data_image0
_cell_length_a       15.649
_cell_length_b       15.649
_cell_length_c       9.917
_cell_angle_alpha    90
_cell_angle_beta     90
_cell_angle_gamma    90

_symmetry_space_group_name_H-M    "P 1"
_symmetry_int_tables_number       1

loop_
  _symmetry_equiv_pos_as_xyz
  'x, y, z'

loop_
  _atom_site_label
  _atom_site_occupancy
  _atom_site_fract_x
  _atom_site_fract_y
  _atom_site_fract_z
  _atom_site_thermal_displace_type
  _atom_site_B_iso_or_equiv
  _atom_site_type_symbol
  Cu1      1.0000 0.00000  0.00000  0.00000  Biso   1.000  Cu
  Cu2      1.0000 0.50000  0.50000  0.50000  Biso   1.000  Cu
  Cu3      1.0000 0.75000  0.25000  0.25000  Biso   1.000  Cu
  Cu4      1.0000 0.25000  0.75000  0.75000  Biso   1.000  Cu
  Cu5      1.0000 0.50000  0.00000  0.50000  Biso   1.000  Cu
  Cu6      1.0000 0.00000  0.50000  0.00000  Biso   1.000  Cu
  Cu7      1.0000 0.75000  0.75000  0.75000  Biso   1.000  Cu
  Cu8      1.0000 0.25000  0.25000  0.25000  Biso   1.000  Cu
  N1       1.0000 0.04280  0.92730  0.85590  Biso   1.000  N
  N2       1.0000 0.54280  0.42730  0.35590  Biso   1.000  N
  N3       1.0000 0.82270  0.29280  0.10590  Biso   1.000  N
  N4       1.0000 0.32270  0.79280  0.60590  Biso   1.000  N
  N5       1.0000 0.45720  0.07270  0.35590  Biso   1.000  N
  N6       1.0000 0.95720  0.57270  0.85590  Biso   1.000  N
  N7       1.0000 0.67730  0.70720  0.60590  Biso   1.000  N
  N8       1.0000 0.17730  0.20720  0.10590  Biso   1.000  N
  N9       1.0000 0.95720  0.07270  0.14410  Biso   1.000  N
  N10      1.0000 0.45720  0.57270  0.64410  Biso   1.000  N
  N11      1.0000 0.67730  0.20720  0.39410  Biso   1.000  N
  N12      1.0000 0.17730  0.70720  0.89410  Biso   1.000  N
  N13      1.0000 0.54280  0.92730  0.64410  Biso   1.000  N
  N14      1.0000 0.04280  0.42730  0.14410  Biso   1.000  N
  N15      1.0000 0.82270  0.79280  0.89410  Biso   1.000  N
  N16      1.0000 0.32270  0.29280  0.39410  Biso   1.000  N
  N17      1.0000 0.93050  0.06980  0.86390  Biso   1.000  N
  N18      1.0000 0.43050  0.56980  0.36390  Biso   1.000  N
  N19      1.0000 0.68020  0.18050  0.11390  Biso   1.000  N
  N20      1.0000 0.18020  0.68050  0.61390  Biso   1.000  N
  N21      1.0000 0.56950  0.93020  0.36390  Biso   1.000  N
  N22      1.0000 0.06950  0.43020  0.86390  Biso   1.000  N
  N23      1.0000 0.81980  0.81950  0.61390  Biso   1.000  N
  N24      1.0000 0.31980  0.31950  0.11390  Biso   1.000  N
  N25      1.0000 0.06950  0.93020  0.13610  Biso   1.000  N
  N26      1.0000 0.56950  0.43020  0.63610  Biso   1.000  N
  N27      1.0000 0.81980  0.31950  0.38610  Biso   1.000  N
  N28      1.0000 0.31980  0.81950  0.88610  Biso   1.000  N
  N29      1.0000 0.43050  0.06980  0.63610  Biso   1.000  N
  N30      1.0000 0.93050  0.56980  0.13610  Biso   1.000  N
  N31      1.0000 0.68020  0.68050  0.88610  Biso   1.000  N
  N32      1.0000 0.18020  0.18050  0.38610  Biso   1.000  N
  C1       1.0000 0.09630  0.90450  0.78460  Biso   1.000  C
  C2       1.0000 0.59630  0.40450  0.28460  Biso   1.000  C
  C3       1.0000 0.84550  0.34630  0.03460  Biso   1.000  C
  C4       1.0000 0.34550  0.84630  0.53460  Biso   1.000  C
  C5       1.0000 0.40370  0.09550  0.28460  Biso   1.000  C
  C6       1.0000 0.90370  0.59550  0.78460  Biso   1.000  C
  C7       1.0000 0.65450  0.65370  0.53460  Biso   1.000  C
  C8       1.0000 0.15450  0.15370  0.03460  Biso   1.000  C
  C9       1.0000 0.90370  0.09550  0.21540  Biso   1.000  C
  C10      1.0000 0.40370  0.59550  0.71540  Biso   1.000  C
  C11      1.0000 0.65450  0.15370  0.46540  Biso   1.000  C
  C12      1.0000 0.15450  0.65370  0.96540  Biso   1.000  C
  C13      1.0000 0.59630  0.90450  0.71540  Biso   1.000  C
  C14      1.0000 0.09630  0.40450  0.21540  Biso   1.000  C
  C15      1.0000 0.84550  0.84630  0.96540  Biso   1.000  C
  C16      1.0000 0.34550  0.34630  0.46540  Biso   1.000  C
  C17      1.0000 0.93250  0.15500  0.86950  Biso   1.000  C
  C18      1.0000 0.43250  0.65500  0.36950  Biso   1.000  C
  C19      1.0000 0.59500  0.18250  0.11950  Biso   1.000  C
  C20      1.0000 0.09500  0.68250  0.61950  Biso   1.000  C
  C21      1.0000 0.56750  0.84500  0.36950  Biso   1.000  C
  C22      1.0000 0.06750  0.34500  0.86950  Biso   1.000  C
  C23      1.0000 0.90500  0.81750  0.61950  Biso   1.000  C
  C24      1.0000 0.40500  0.31750  0.11950  Biso   1.000  C
  C25      1.0000 0.06750  0.84500  0.13050  Biso   1.000  C
  C26      1.0000 0.56750  0.34500  0.63050  Biso   1.000  C
  C27      1.0000 0.90500  0.31750  0.38050  Biso   1.000  C
  C28      1.0000 0.40500  0.81750  0.88050  Biso   1.000  C
  C29      1.0000 0.43250  0.15500  0.63050  Biso   1.000  C
  C30      1.0000 0.93250  0.65500  0.13050  Biso   1.000  C
  C31      1.0000 0.59500  0.68250  0.88050  Biso   1.000  C
  C32      1.0000 0.09500  0.18250  0.38050  Biso   1.000  C
  C33      1.0000 0.88970  0.20460  0.77760  Biso   1.000  C
  C34      1.0000 0.38970  0.70460  0.27760  Biso   1.000  C
  C35      1.0000 0.54540  0.13970  0.02760  Biso   1.000  C
  C36      1.0000 0.04540  0.63970  0.52760  Biso   1.000  C
  C37      1.0000 0.61030  0.79540  0.27760  Biso   1.000  C
  C38      1.0000 0.11030  0.29540  0.77760  Biso   1.000  C
  C39      1.0000 0.95460  0.86030  0.52760  Biso   1.000  C
  C40      1.0000 0.45460  0.36030  0.02760  Biso   1.000  C
  C41      1.0000 0.11030  0.79540  0.22240  Biso   1.000  C
  C42      1.0000 0.61030  0.29540  0.72240  Biso   1.000  C
  C43      1.0000 0.95460  0.36030  0.47240  Biso   1.000  C
  C44      1.0000 0.45460  0.86030  0.97240  Biso   1.000  C
  C45      1.0000 0.38970  0.20460  0.72240  Biso   1.000  C
  C46      1.0000 0.88970  0.70460  0.22240  Biso   1.000  C
  C47      1.0000 0.54540  0.63970  0.97240  Biso   1.000  C
  C48      1.0000 0.04540  0.13970  0.47240  Biso   1.000  C
  C49      1.0000 0.84250  0.16500  0.67730  Biso   1.000  C
  C50      1.0000 0.34250  0.66500  0.17730  Biso   1.000  C
  C51      1.0000 0.58500  0.09250  0.92730  Biso   1.000  C
  C52      1.0000 0.08500  0.59250  0.42730  Biso   1.000  C
  C53      1.0000 0.65750  0.83500  0.17730  Biso   1.000  C
  C54      1.0000 0.15750  0.33500  0.67730  Biso   1.000  C
  C55      1.0000 0.91500  0.90750  0.42730  Biso   1.000  C
  C56      1.0000 0.41500  0.40750  0.92730  Biso   1.000  C
  C57      1.0000 0.15750  0.83500  0.32270  Biso   1.000  C
  C58      1.0000 0.65750  0.33500  0.82270  Biso   1.000  C
  C59      1.0000 0.91500  0.40750  0.57270  Biso   1.000  C
  C60      1.0000 0.41500  0.90750  0.07270  Biso   1.000  C
  C61      1.0000 0.34250  0.16500  0.82270  Biso   1.000  C
  C62      1.0000 0.84250  0.66500  0.32270  Biso   1.000  C
  C63      1.0000 0.58500  0.59250  0.07270  Biso   1.000  C
  C64      1.0000 0.08500  0.09250  0.57270  Biso   1.000  C
  C65      1.0000 0.83940  0.07720  0.67040  Biso   1.000  C
  C66      1.0000 0.33940  0.57720  0.17040  Biso   1.000  C
  C67      1.0000 0.67280  0.08940  0.92040  Biso   1.000  C
  C68      1.0000 0.17280  0.58940  0.42040  Biso   1.000  C
  C69      1.0000 0.66060  0.92280  0.17040  Biso   1.000  C
  C70      1.0000 0.16060  0.42280  0.67040  Biso   1.000  C
  C71      1.0000 0.82720  0.91060  0.42040  Biso   1.000  C
  C72      1.0000 0.32720  0.41060  0.92040  Biso   1.000  C
  C73      1.0000 0.16060  0.92280  0.32960  Biso   1.000  C
  C74      1.0000 0.66060  0.42280  0.82960  Biso   1.000  C
  C75      1.0000 0.82720  0.41060  0.57960  Biso   1.000  C
  C76      1.0000 0.32720  0.91060  0.07960  Biso   1.000  C
  C77      1.0000 0.33940  0.07720  0.82960  Biso   1.000  C
  C78      1.0000 0.83940  0.57720  0.32960  Biso   1.000  C
  C79      1.0000 0.67280  0.58940  0.07960  Biso   1.000  C
  C80      1.0000 0.17280  0.08940  0.57960  Biso   1.000  C
  C81      1.0000 0.88490  0.03280  0.76670  Biso   1.000  C
  C82      1.0000 0.38490  0.53280  0.26670  Biso   1.000  C
  C83      1.0000 0.71720  0.13490  0.01670  Biso   1.000  C
  C84      1.0000 0.21720  0.63490  0.51670  Biso   1.000  C
  C85      1.0000 0.61510  0.96720  0.26670  Biso   1.000  C
  C86      1.0000 0.11510  0.46720  0.76670  Biso   1.000  C
  C87      1.0000 0.78280  0.86510  0.51670  Biso   1.000  C
  C88      1.0000 0.28280  0.36510  0.01670  Biso   1.000  C
  C89      1.0000 0.11510  0.96720  0.23330  Biso   1.000  C
  C90      1.0000 0.61510  0.46720  0.73330  Biso   1.000  C
  C91      1.0000 0.78280  0.36510  0.48330  Biso   1.000  C
  C92      1.0000 0.28280  0.86510  0.98330  Biso   1.000  C
  C93      1.0000 0.38490  0.03280  0.73330  Biso   1.000  C
  C94      1.0000 0.88490  0.53280  0.23330  Biso   1.000  C
  C95      1.0000 0.71720  0.63490  0.98330  Biso   1.000  C
  C96      1.0000 0.21720  0.13490  0.48330  Biso   1.000  C
  O1       1.0000 0.14850  0.87940  0.70810  Biso   1.000  O
  O2       1.0000 0.64850  0.37940  0.20810  Biso   1.000  O
  O3       1.0000 0.87060  0.39850  0.95810  Biso   1.000  O
  O4       1.0000 0.37060  0.89850  0.45810  Biso   1.000  O
  O5       1.0000 0.35150  0.12060  0.20810  Biso   1.000  O
  O6       1.0000 0.85150  0.62060  0.70810  Biso   1.000  O
  O7       1.0000 0.62940  0.60150  0.45810  Biso   1.000  O
  O8       1.0000 0.12940  0.10150  0.95810  Biso   1.000  O
  O9       1.0000 0.85150  0.12060  0.29190  Biso   1.000  O
  O10      1.0000 0.35150  0.62060  0.79190  Biso   1.000  O
  O11      1.0000 0.62940  0.10150  0.54190  Biso   1.000  O
  O12      1.0000 0.12940  0.60150  0.04190  Biso   1.000  O
  O13      1.0000 0.64850  0.87940  0.79190  Biso   1.000  O
  O14      1.0000 0.14850  0.37940  0.29190  Biso   1.000  O
  O15      1.0000 0.87060  0.89850  0.04190  Biso   1.000  O
  O16      1.0000 0.37060  0.39850  0.54190  Biso   1.000  O
  H1       1.0000 0.97000  0.18200  0.94300  Biso   1.000  H
  H2       1.0000 0.47000  0.68200  0.44300  Biso   1.000  H
  H3       1.0000 0.56800  0.22000  0.19300  Biso   1.000  H
  H4       1.0000 0.06800  0.72000  0.69300  Biso   1.000  H
  H5       1.0000 0.53000  0.81800  0.44300  Biso   1.000  H
  H6       1.0000 0.03000  0.31800  0.94300  Biso   1.000  H
  H7       1.0000 0.93200  0.78000  0.69300  Biso   1.000  H
  H8       1.0000 0.43200  0.28000  0.19300  Biso   1.000  H
  H9       1.0000 0.03000  0.81800  0.05700  Biso   1.000  H
  H10      1.0000 0.53000  0.31800  0.55700  Biso   1.000  H
  H11      1.0000 0.93200  0.28000  0.30700  Biso   1.000  H
  H12      1.0000 0.43200  0.78000  0.80700  Biso   1.000  H
  H13      1.0000 0.47000  0.18200  0.55700  Biso   1.000  H
  H14      1.0000 0.97000  0.68200  0.05700  Biso   1.000  H
  H15      1.0000 0.56800  0.72000  0.80700  Biso   1.000  H
  H16      1.0000 0.06800  0.22000  0.30700  Biso   1.000  H
  H17      1.0000 0.89100  0.27500  0.78800  Biso   1.000  H
  H18      1.0000 0.39100  0.77500  0.28800  Biso   1.000  H
  H19      1.0000 0.47500  0.14100  0.03800  Biso   1.000  H
  H20      1.0000 0.97500  0.64100  0.53800  Biso   1.000  H
  H21      1.0000 0.60900  0.72500  0.28800  Biso   1.000  H
  H22      1.0000 0.10900  0.22500  0.78800  Biso   1.000  H
  H23      1.0000 0.02500  0.85900  0.53800  Biso   1.000  H
  H24      1.0000 0.52500  0.35900  0.03800  Biso   1.000  H
  H25      1.0000 0.10900  0.72500  0.21200  Biso   1.000  H
  H26      1.0000 0.60900  0.22500  0.71200  Biso   1.000  H
  H27      1.0000 0.02500  0.35900  0.46200  Biso   1.000  H
  H28      1.0000 0.52500  0.85900  0.96200  Biso   1.000  H
  H29      1.0000 0.39100  0.27500  0.71200  Biso   1.000  H
  H30      1.0000 0.89100  0.77500  0.21200  Biso   1.000  H
  H31      1.0000 0.47500  0.64100  0.96200  Biso   1.000  H
  H32      1.0000 0.97500  0.14100  0.46200  Biso   1.000  H
  H33      1.0000 0.80900  0.20400  0.61000  Biso   1.000  H
  H34      1.0000 0.30900  0.70400  0.11000  Biso   1.000  H
  H35      1.0000 0.54600  0.05900  0.86000  Biso   1.000  H
  H36      1.0000 0.04600  0.55900  0.36000  Biso   1.000  H
  H37      1.0000 0.69100  0.79600  0.11000  Biso   1.000  H
  H38      1.0000 0.19100  0.29600  0.61000  Biso   1.000  H
  H39      1.0000 0.95400  0.94100  0.36000  Biso   1.000  H
  H40      1.0000 0.45400  0.44100  0.86000  Biso   1.000  H
  H41      1.0000 0.19100  0.79600  0.39000  Biso   1.000  H
  H42      1.0000 0.69100  0.29600  0.89000  Biso   1.000  H
  H43      1.0000 0.95400  0.44100  0.64000  Biso   1.000  H
  H44      1.0000 0.45400  0.94100  0.14000  Biso   1.000  H
  H45      1.0000 0.30900  0.20400  0.89000  Biso   1.000  H
  H46      1.0000 0.80900  0.70400  0.39000  Biso   1.000  H
  H47      1.0000 0.54600  0.55900  0.14000  Biso   1.000  H
  H48      1.0000 0.04600  0.05900  0.64000  Biso   1.000  H
  H49      1.0000 0.80500  0.04500  0.59900  Biso   1.000  H
  H50      1.0000 0.30500  0.54500  0.09900  Biso   1.000  H
  H51      1.0000 0.70500  0.05500  0.84900  Biso   1.000  H
  H52      1.0000 0.20500  0.55500  0.34900  Biso   1.000  H
  H53      1.0000 0.69500  0.95500  0.09900  Biso   1.000  H
  H54      1.0000 0.19500  0.45500  0.59900  Biso   1.000  H
  H55      1.0000 0.79500  0.94500  0.34900  Biso   1.000  H
  H56      1.0000 0.29500  0.44500  0.84900  Biso   1.000  H
  H57      1.0000 0.19500  0.95500  0.40100  Biso   1.000  H
  H58      1.0000 0.69500  0.45500  0.90100  Biso   1.000  H
  H59      1.0000 0.79500  0.44500  0.65100  Biso   1.000  H
  H60      1.0000 0.29500  0.94500  0.15100  Biso   1.000  H
  H61      1.0000 0.30500  0.04500  0.90100  Biso   1.000  H
  H62      1.0000 0.80500  0.54500  0.40100  Biso   1.000  H
  H63      1.0000 0.70500  0.55500  0.15100  Biso   1.000  H
  H64      1.0000 0.20500  0.05500  0.65100  Biso   1.000  H
  H65      1.0000 0.88400  0.96700  0.76000  Biso   1.000  H
  H66      1.0000 0.38400  0.46700  0.26000  Biso   1.000  H
  H67      1.0000 0.78300  0.13400  0.01000  Biso   1.000  H
  H68      1.0000 0.28300  0.63400  0.51000  Biso   1.000  H
  H69      1.0000 0.61600  0.03300  0.26000  Biso   1.000  H
  H70      1.0000 0.11600  0.53300  0.76000  Biso   1.000  H
  H71      1.0000 0.71700  0.86600  0.51000  Biso   1.000  H
  H72      1.0000 0.21700  0.36600  0.01000  Biso   1.000  H
  H73      1.0000 0.11600  0.03300  0.24000  Biso   1.000  H
  H74      1.0000 0.61600  0.53300  0.74000  Biso   1.000  H
  H75      1.0000 0.71700  0.36600  0.49000  Biso   1.000  H
  H76      1.0000 0.21700  0.86600  0.99000  Biso   1.000  H
  H77      1.0000 0.38400  0.96700  0.74000  Biso   1.000  H
  H78      1.0000 0.88400  0.46700  0.24000  Biso   1.000  H
  H79      1.0000 0.78300  0.63400  0.99000  Biso   1.000  H
  H80      1.0000 0.28300  0.13400  0.49000  Biso   1.000  H
