data_image0
_cell_length_a       9.8
_cell_length_b       12.336
_cell_length_c       13.352
_cell_angle_alpha    88.53
_cell_angle_beta     74.02
_cell_angle_gamma    82.33

_symmetry_space_group_name_H-M    "P 1"
_symmetry_int_tables_number       1

loop_
  _symmetry_equiv_pos_as_xyz
  'x, y, z'

loop_
  _atom_site_label
  _atom_site_occupancy
  _atom_site_fract_x
  _atom_site_fract_y
  _atom_site_fract_z
  _atom_site_thermal_displace_type
  _atom_site_B_iso_or_equiv
  _atom_site_type_symbol
  Cu1      1.0000 0.25661  0.48080  0.48964  Biso   1.000  Cu
  Cu2      1.0000 0.74339  0.51920  0.51036  Biso   1.000  Cu
  P1       1.0000 0.03754  0.55705  0.35525  Biso   1.000  P
  P2       1.0000 0.96246  0.44295  0.64475  Biso   1.000  P
  P3       1.0000 0.47367  0.41029  0.62447  Biso   1.000  P
  P4       1.0000 0.52633  0.58971  0.37553  Biso   1.000  P
  O1       1.0000 0.12970  0.47680  0.40450  Biso   1.000  O
  O2       1.0000 0.87030  0.52320  0.59550  Biso   1.000  O
  O3       1.0000 0.88060  0.54150  0.38190  Biso   1.000  O
  O4       1.0000 0.11940  0.45850  0.61810  Biso   1.000  O
  O5       1.0000 0.41400  0.40290  0.53200  Biso   1.000  O
  O6       1.0000 0.58600  0.59710  0.46800  Biso   1.000  O
  O7       1.0000 0.63250  0.41920  0.59730  Biso   1.000  O
  O8       1.0000 0.36750  0.58080  0.40270  Biso   1.000  O
  C1       1.0000 0.05320  0.69360  0.38630  Biso   1.000  C
  C2       1.0000 0.94680  0.30640  0.61370  Biso   1.000  C
  C3       1.0000 0.96390  0.78270  0.34000  Biso   1.000  C
  C4       1.0000 0.03610  0.21730  0.66000  Biso   1.000  C
  C5       1.0000 0.98180  0.89660  0.36500  Biso   1.000  C
  C6       1.0000 0.01820  0.10340  0.63500  Biso   1.000  C
  C7       1.0000 0.89650  0.98880  0.32460  Biso   1.000  C
  C8       1.0000 0.10350  0.01120  0.67540  Biso   1.000  C
  C9       1.0000 0.91590  0.10210  0.35190  Biso   1.000  C
  C10      1.0000 0.08410  0.89790  0.64810  Biso   1.000  C
  C11      1.0000 0.82740  0.18860  0.33120  Biso   1.000  C
  C12      1.0000 0.17260  0.81140  0.66880  Biso   1.000  C
  C13      1.0000 0.10430  0.53850  0.21570  Biso   1.000  C
  C14      1.0000 0.89570  0.46150  0.78430  Biso   1.000  C
  C15      1.0000 0.09760  0.42720  0.17840  Biso   1.000  C
  C16      1.0000 0.90240  0.57280  0.82160  Biso   1.000  C
  C17      1.0000 0.15340  0.40350  0.06560  Biso   1.000  C
  C18      1.0000 0.84660  0.59650  0.93440  Biso   1.000  C
  C19      1.0000 0.13870  0.29220  0.03320  Biso   1.000  C
  C20      1.0000 0.86130  0.70780  0.96680  Biso   1.000  C
  C21      1.0000 0.17960  0.23580  0.98080  Biso   1.000  C
  C22      1.0000 0.82040  0.76420  0.01920  Biso   1.000  C
  C23      1.0000 0.15800  0.12330  0.95840  Biso   1.000  C
  C24      1.0000 0.84200  0.87670  0.04160  Biso   1.000  C
  C25      1.0000 0.44850  0.28660  0.69800  Biso   1.000  C
  C26      1.0000 0.55150  0.71340  0.30200  Biso   1.000  C
  C27      1.0000 0.52630  0.18490  0.63670  Biso   1.000  C
  C28      1.0000 0.47370  0.81510  0.36330  Biso   1.000  C
  C29      1.0000 0.51570  0.08100  0.69750  Biso   1.000  C
  C30      1.0000 0.48430  0.91900  0.30250  Biso   1.000  C
  C31      1.0000 0.59610  0.97950  0.63960  Biso   1.000  C
  C32      1.0000 0.40390  0.02050  0.36040  Biso   1.000  C
  C33      1.0000 0.59300  0.87880  0.69950  Biso   1.000  C
  C34      1.0000 0.40700  0.12120  0.30050  Biso   1.000  C
  C35      1.0000 0.66810  0.78060  0.64270  Biso   1.000  C
  C36      1.0000 0.33190  0.21940  0.35730  Biso   1.000  C
  C37      1.0000 0.37720  0.52210  0.70650  Biso   1.000  C
  C38      1.0000 0.62280  0.47790  0.29350  Biso   1.000  C
  C39      1.0000 0.42980  0.54280  0.80240  Biso   1.000  C
  C40      1.0000 0.57020  0.45720  0.19760  Biso   1.000  C
  C41      1.0000 0.34800  0.64220  0.86390  Biso   1.000  C
  C42      1.0000 0.65200  0.35780  0.13610  Biso   1.000  C
  C43      1.0000 0.39510  0.67100  0.95570  Biso   1.000  C
  C44      1.0000 0.60490  0.32900  0.04430  Biso   1.000  C
  C45      1.0000 0.30350  0.77440  0.01220  Biso   1.000  C
  C46      1.0000 0.69650  0.22560  0.98780  Biso   1.000  C
  C47      1.0000 0.33280  0.81080  0.08690  Biso   1.000  C
  C48      1.0000 0.66720  0.18920  0.91310  Biso   1.000  C
  H1       1.0000 0.02270  0.70170  0.46230  Biso   1.000  H
  H2       1.0000 0.97730  0.29830  0.53770  Biso   1.000  H
  H3       1.0000 0.15390  0.70580  0.36030  Biso   1.000  H
  H4       1.0000 0.84610  0.29420  0.63970  Biso   1.000  H
  H5       1.0000 0.99240  0.77380  0.26410  Biso   1.000  H
  H6       1.0000 0.00760  0.22620  0.73590  Biso   1.000  H
  H7       1.0000 0.86280  0.77210  0.36740  Biso   1.000  H
  H8       1.0000 0.13720  0.22790  0.63260  Biso   1.000  H
  H9       1.0000 0.95560  0.90360  0.44110  Biso   1.000  H
  H10      1.0000 0.04440  0.09640  0.55890  Biso   1.000  H
  H11      1.0000 0.08310  0.90620  0.33650  Biso   1.000  H
  H12      1.0000 0.91690  0.09380  0.66350  Biso   1.000  H
  H13      1.0000 0.92320  0.98270  0.24850  Biso   1.000  H
  H14      1.0000 0.07680  0.01730  0.75150  Biso   1.000  H
  H15      1.0000 0.79510  0.97940  0.35250  Biso   1.000  H
  H16      1.0000 0.20490  0.02060  0.64750  Biso   1.000  H
  H17      1.0000 0.90580  0.10330  0.42700  Biso   1.000  H
  H18      1.0000 0.09420  0.89670  0.57300  Biso   1.000  H
  H19      1.0000 0.01370  0.11480  0.31410  Biso   1.000  H
  H20      1.0000 0.98630  0.88520  0.68590  Biso   1.000  H
  H21      1.0000 0.79710  0.23830  0.39150  Biso   1.000  H
  H22      1.0000 0.20290  0.76170  0.60850  Biso   1.000  H
  H23      1.0000 0.87870  0.22710  0.26990  Biso   1.000  H
  H24      1.0000 0.12130  0.77290  0.73010  Biso   1.000  H
  H25      1.0000 0.74360  0.16190  0.31820  Biso   1.000  H
  H26      1.0000 0.25640  0.83810  0.68180  Biso   1.000  H
  H27      1.0000 0.04770  0.59100  0.18250  Biso   1.000  H
  H28      1.0000 0.95230  0.40900  0.81750  Biso   1.000  H
  H29      1.0000 0.20420  0.55360  0.19440  Biso   1.000  H
  H30      1.0000 0.79580  0.44640  0.80560  Biso   1.000  H
  H31      1.0000 0.15160  0.37550  0.21430  Biso   1.000  H
  H32      1.0000 0.84840  0.62450  0.78570  Biso   1.000  H
  H33      1.0000 0.99700  0.41390  0.19920  Biso   1.000  H
  H34      1.0000 0.00300  0.58610  0.80080  Biso   1.000  H
  H35      1.0000 0.10210  0.45620  0.02880  Biso   1.000  H
  H36      1.0000 0.89790  0.54380  0.97120  Biso   1.000  H
  H37      1.0000 0.25510  0.41350  0.04460  Biso   1.000  H
  H38      1.0000 0.74490  0.58650  0.95540  Biso   1.000  H
  H39      1.0000 0.14300  0.25240  0.09620  Biso   1.000  H
  H40      1.0000 0.85700  0.74760  0.90380  Biso   1.000  H
  H41      1.0000 0.04050  0.30380  0.02830  Biso   1.000  H
  H42      1.0000 0.95950  0.69620  0.97170  Biso   1.000  H
  H43      1.0000 0.16960  0.27330  0.91750  Biso   1.000  H
  H44      1.0000 0.83040  0.72670  0.08250  Biso   1.000  H
  H45      1.0000 0.27900  0.22640  0.98180  Biso   1.000  H
  H46      1.0000 0.72100  0.77360  0.01820  Biso   1.000  H
  H47      1.0000 0.06930  0.10380  0.00660  Biso   1.000  H
  H48      1.0000 0.93070  0.89620  0.99340  Biso   1.000  H
  H49      1.0000 0.15180  0.11960  0.88660  Biso   1.000  H
  H50      1.0000 0.84820  0.88040  0.11340  Biso   1.000  H
  H51      1.0000 0.23890  0.07330  0.96700  Biso   1.000  H
  H52      1.0000 0.76110  0.92670  0.03300  Biso   1.000  H
  H53      1.0000 0.48360  0.29220  0.75950  Biso   1.000  H
  H54      1.0000 0.51640  0.70780  0.24050  Biso   1.000  H
  H55      1.0000 0.34610  0.27900  0.72040  Biso   1.000  H
  H56      1.0000 0.65390  0.72100  0.27960  Biso   1.000  H
  H57      1.0000 0.48650  0.17710  0.57780  Biso   1.000  H
  H58      1.0000 0.51350  0.82290  0.42220  Biso   1.000  H
  H59      1.0000 0.62760  0.19520  0.61020  Biso   1.000  H
  H60      1.0000 0.37240  0.80480  0.38980  Biso   1.000  H
  H61      1.0000 0.55220  0.09010  0.75770  Biso   1.000  H
  H62      1.0000 0.44780  0.90990  0.24230  Biso   1.000  H
  H63      1.0000 0.41450  0.06970  0.72180  Biso   1.000  H
  H64      1.0000 0.58550  0.93030  0.27820  Biso   1.000  H
  H65      1.0000 0.55570  0.96820  0.58170  Biso   1.000  H
  H66      1.0000 0.44430  0.03180  0.41830  Biso   1.000  H
  H67      1.0000 0.69620  0.99260  0.61180  Biso   1.000  H
  H68      1.0000 0.30380  0.00740  0.38820  Biso   1.000  H
  H69      1.0000 0.63550  0.88940  0.75640  Biso   1.000  H
  H70      1.0000 0.36450  0.11060  0.24360  Biso   1.000  H
  H71      1.0000 0.49280  0.86650  0.72860  Biso   1.000  H
  H72      1.0000 0.50720  0.13350  0.27140  Biso   1.000  H
  H73      1.0000 0.65960  0.71860  0.69050  Biso   1.000  H
  H74      1.0000 0.34040  0.28140  0.30950  Biso   1.000  H
  H75      1.0000 0.62580  0.76710  0.58640  Biso   1.000  H
  H76      1.0000 0.37420  0.23290  0.41360  Biso   1.000  H
  H77      1.0000 0.76910  0.79060  0.61350  Biso   1.000  H
  H78      1.0000 0.23090  0.20940  0.38650  Biso   1.000  H
  H79      1.0000 0.38350  0.58840  0.66420  Biso   1.000  H
  H80      1.0000 0.61650  0.41160  0.33580  Biso   1.000  H
  H81      1.0000 0.27700  0.50810  0.73140  Biso   1.000  H
  H82      1.0000 0.72300  0.49190  0.26860  Biso   1.000  H
  H83      1.0000 0.41830  0.47890  0.84770  Biso   1.000  H
  H84      1.0000 0.58170  0.52110  0.15230  Biso   1.000  H
  H85      1.0000 0.53120  0.55360  0.77870  Biso   1.000  H
  H86      1.0000 0.46880  0.44640  0.22130  Biso   1.000  H
  H87      1.0000 0.35650  0.70470  0.81670  Biso   1.000  H
  H88      1.0000 0.64350  0.29530  0.18330  Biso   1.000  H
  H89      1.0000 0.24740  0.62930  0.88890  Biso   1.000  H
  H90      1.0000 0.75260  0.37070  0.11110  Biso   1.000  H
  H91      1.0000 0.38610  0.60980  0.00440  Biso   1.000  H
  H92      1.0000 0.61390  0.39020  0.99560  Biso   1.000  H
  H93      1.0000 0.49550  0.68500  0.93220  Biso   1.000  H
  H94      1.0000 0.50450  0.31500  0.06780  Biso   1.000  H
  H95      1.0000 0.30940  0.83240  0.96020  Biso   1.000  H
  H96      1.0000 0.69060  0.16760  0.03980  Biso   1.000  H
  H97      1.0000 0.20460  0.75690  0.03640  Biso   1.000  H
  H98      1.0000 0.79540  0.24310  0.96360  Biso   1.000  H
  H99      1.0000 0.38430  0.75220  0.11770  Biso   1.000  H
  H100     1.0000 0.61570  0.24780  0.88230  Biso   1.000  H
  H101     1.0000 0.39330  0.86950  0.06330  Biso   1.000  H
  H102     1.0000 0.60670  0.13050  0.93670  Biso   1.000  H
  H103     1.0000 0.24470  0.83920  0.13820  Biso   1.000  H
  H104     1.0000 0.75530  0.16080  0.86180  Biso   1.000  H
