data_image0
_cell_length_a       8.913
_cell_length_b       14.075
_cell_length_c       12.04
_cell_angle_alpha    90
_cell_angle_beta     98.934
_cell_angle_gamma    90

_symmetry_space_group_name_H-M    "P 1"
_symmetry_int_tables_number       1

loop_
  _symmetry_equiv_pos_as_xyz
  'x, y, z'

loop_
  _atom_site_label
  _atom_site_occupancy
  _atom_site_fract_x
  _atom_site_fract_y
  _atom_site_fract_z
  _atom_site_thermal_displace_type
  _atom_site_B_iso_or_equiv
  _atom_site_type_symbol
  Cu1      1.0000 0.62230  0.76738  0.88164  Biso   1.000  Cu
  Cu2      1.0000 0.37770  0.26738  0.61836  Biso   1.000  Cu
  Cu3      1.0000 0.37770  0.23262  0.11836  Biso   1.000  Cu
  Cu4      1.0000 0.62230  0.73262  0.38164  Biso   1.000  Cu
  Cl1      1.0000 0.79960  0.90065  0.85532  Biso   1.000  Cl
  Cl2      1.0000 0.20040  0.40065  0.64468  Biso   1.000  Cl
  Cl3      1.0000 0.20040  0.09935  0.14468  Biso   1.000  Cl
  Cl4      1.0000 0.79960  0.59935  0.35532  Biso   1.000  Cl
  Cl5      1.0000 0.78486  0.63334  0.92497  Biso   1.000  Cl
  Cl6      1.0000 0.21514  0.13334  0.57503  Biso   1.000  Cl
  Cl7      1.0000 0.21514  0.36666  0.07503  Biso   1.000  Cl
  Cl8      1.0000 0.78486  0.86666  0.42497  Biso   1.000  Cl
  N1       1.0000 0.58815  0.72733  0.72244  Biso   1.000  N
  N2       1.0000 0.41185  0.22733  0.77756  Biso   1.000  N
  N3       1.0000 0.41185  0.27267  0.27756  Biso   1.000  N
  N4       1.0000 0.58815  0.77267  0.22244  Biso   1.000  N
  N5       1.0000 0.60030  0.71909  0.53994  Biso   1.000  N
  N6       1.0000 0.39970  0.21909  0.96006  Biso   1.000  N
  N7       1.0000 0.39970  0.28091  0.46006  Biso   1.000  N
  N8       1.0000 0.60030  0.78091  0.03994  Biso   1.000  N
  N9       1.0000 0.42895  0.59262  0.84033  Biso   1.000  N
  N10      1.0000 0.57105  0.09262  0.65967  Biso   1.000  N
  N11      1.0000 0.57105  0.40738  0.15967  Biso   1.000  N
  N12      1.0000 0.42895  0.90738  0.34033  Biso   1.000  N
  H1       1.0000 0.52620  0.59200  0.85600  Biso   1.000  H
  H2       1.0000 0.47380  0.09200  0.64400  Biso   1.000  H
  H3       1.0000 0.47380  0.40800  0.14400  Biso   1.000  H
  H4       1.0000 0.52620  0.90800  0.35600  Biso   1.000  H
  N13      1.0000 0.21864  0.63926  0.71588  Biso   1.000  N
  N14      1.0000 0.78136  0.13926  0.78412  Biso   1.000  N
  N15      1.0000 0.78136  0.36074  0.28412  Biso   1.000  N
  N16      1.0000 0.21864  0.86074  0.21588  Biso   1.000  N
  H5       1.0000 0.17700  0.66620  0.65330  Biso   1.000  H
  H6       1.0000 0.82300  0.16620  0.84670  Biso   1.000  H
  H7       1.0000 0.82300  0.33380  0.34670  Biso   1.000  H
  H8       1.0000 0.17700  0.83380  0.15330  Biso   1.000  H
  N17      1.0000 0.29429  0.55150  0.46812  Biso   1.000  N
  N18      1.0000 0.70571  0.05150  0.03188  Biso   1.000  N
  N19      1.0000 0.70571  0.44850  0.53188  Biso   1.000  N
  N20      1.0000 0.29429  0.94850  0.96812  Biso   1.000  N
  H9       1.0000 0.28800  0.52940  0.53250  Biso   1.000  H
  H10      1.0000 0.71200  0.02940  0.96750  Biso   1.000  H
  H11      1.0000 0.71200  0.47060  0.46750  Biso   1.000  H
  H12      1.0000 0.28800  0.97060  0.03250  Biso   1.000  H
  N21      1.0000 0.42857  0.65364  0.36418  Biso   1.000  N
  N22      1.0000 0.57143  0.15364  0.13582  Biso   1.000  N
  N23      1.0000 0.57143  0.34636  0.63582  Biso   1.000  N
  N24      1.0000 0.42857  0.84636  0.86418  Biso   1.000  N
  C1       1.0000 0.66176  0.75487  0.63956  Biso   1.000  C
  C2       1.0000 0.33824  0.25487  0.86044  Biso   1.000  C
  C3       1.0000 0.33824  0.24513  0.36044  Biso   1.000  C
  C4       1.0000 0.66176  0.74513  0.13956  Biso   1.000  C
  H13      1.0000 0.74810  0.79530  0.65010  Biso   1.000  H
  H14      1.0000 0.25190  0.29530  0.84990  Biso   1.000  H
  H15      1.0000 0.25190  0.20470  0.34990  Biso   1.000  H
  H16      1.0000 0.74810  0.70470  0.15010  Biso   1.000  H
  C5       1.0000 0.47851  0.66562  0.55917  Biso   1.000  C
  C6       1.0000 0.52149  0.16562  0.94083  Biso   1.000  C
  C7       1.0000 0.52149  0.33438  0.44083  Biso   1.000  C
  C8       1.0000 0.47851  0.83438  0.05917  Biso   1.000  C
  C9       1.0000 0.47055  0.67060  0.67259  Biso   1.000  C
  C10      1.0000 0.52945  0.17060  0.82741  Biso   1.000  C
  C11      1.0000 0.52945  0.32940  0.32741  Biso   1.000  C
  C12      1.0000 0.47055  0.82940  0.17259  Biso   1.000  C
  C13      1.0000 0.36619  0.63164  0.74397  Biso   1.000  C
  C14      1.0000 0.63381  0.13164  0.75603  Biso   1.000  C
  C15      1.0000 0.63381  0.36836  0.25603  Biso   1.000  C
  C16      1.0000 0.36619  0.86836  0.24397  Biso   1.000  C
  C17      1.0000 0.34150  0.56064  0.92656  Biso   1.000  C
  C18      1.0000 0.65850  0.06064  0.57344  Biso   1.000  C
  C19      1.0000 0.65850  0.43936  0.07344  Biso   1.000  C
  C20      1.0000 0.34150  0.93936  0.42656  Biso   1.000  C
  H17      1.0000 0.39890  0.57390  0.00220  Biso   1.000  H
  H18      1.0000 0.60110  0.07390  0.49780  Biso   1.000  H
  H19      1.0000 0.60110  0.42610  0.99780  Biso   1.000  H
  H20      1.0000 0.39890  0.92610  0.50220  Biso   1.000  H
  H21      1.0000 0.32420  0.49130  0.91980  Biso   1.000  H
  H22      1.0000 0.67580  0.99130  0.58020  Biso   1.000  H
  H23      1.0000 0.67580  0.50870  0.08020  Biso   1.000  H
  H24      1.0000 0.32420  0.00870  0.41980  Biso   1.000  H
  C21      1.0000 0.19160  0.61187  0.91205  Biso   1.000  C
  C22      1.0000 0.80840  0.11187  0.58795  Biso   1.000  C
  C23      1.0000 0.80840  0.38813  0.08795  Biso   1.000  C
  C24      1.0000 0.19160  0.88813  0.41205  Biso   1.000  C
  H25      1.0000 0.20820  0.67940  0.93340  Biso   1.000  H
  H26      1.0000 0.79180  0.17940  0.56660  Biso   1.000  H
  H27      1.0000 0.79180  0.32060  0.06660  Biso   1.000  H
  H28      1.0000 0.20820  0.82060  0.43340  Biso   1.000  H
  H29      1.0000 0.12560  0.58330  0.96200  Biso   1.000  H
  H30      1.0000 0.87440  0.08330  0.53800  Biso   1.000  H
  H31      1.0000 0.87440  0.41670  0.03800  Biso   1.000  H
  H32      1.0000 0.12560  0.91670  0.46200  Biso   1.000  H
  C25      1.0000 0.11420  0.60523  0.79053  Biso   1.000  C
  C26      1.0000 0.88580  0.10523  0.70947  Biso   1.000  C
  C27      1.0000 0.88580  0.39477  0.20947  Biso   1.000  C
  C28      1.0000 0.11420  0.89477  0.29053  Biso   1.000  C
  H33      1.0000 0.08530  0.53850  0.77200  Biso   1.000  H
  H34      1.0000 0.91470  0.03850  0.72800  Biso   1.000  H
  H35      1.0000 0.91470  0.46150  0.22800  Biso   1.000  H
  H36      1.0000 0.08530  0.96150  0.27200  Biso   1.000  H
  H37      1.0000 0.02070  0.64430  0.77980  Biso   1.000  H
  H38      1.0000 0.97930  0.14430  0.72020  Biso   1.000  H
  H39      1.0000 0.97930  0.35570  0.22020  Biso   1.000  H
  H40      1.0000 0.02070  0.85570  0.27980  Biso   1.000  H
  C29      1.0000 0.39420  0.62043  0.45834  Biso   1.000  C
  C30      1.0000 0.60580  0.12043  0.04166  Biso   1.000  C
  C31      1.0000 0.60580  0.37957  0.54166  Biso   1.000  C
  C32      1.0000 0.39420  0.87957  0.95834  Biso   1.000  C
  C33      1.0000 0.20100  0.50902  0.36995  Biso   1.000  C
  C34      1.0000 0.79900  0.00902  0.13005  Biso   1.000  C
  C35      1.0000 0.79900  0.49098  0.63005  Biso   1.000  C
  C36      1.0000 0.20100  0.99098  0.86995  Biso   1.000  C
  H41      1.0000 0.09740  0.49660  0.38650  Biso   1.000  H
  H42      1.0000 0.90260  0.99660  0.11350  Biso   1.000  H
  H43      1.0000 0.90260  0.50340  0.61350  Biso   1.000  H
  H44      1.0000 0.09740  0.00340  0.88650  Biso   1.000  H
  H45      1.0000 0.24590  0.44780  0.35130  Biso   1.000  H
  H46      1.0000 0.75410  0.94780  0.14870  Biso   1.000  H
  H47      1.0000 0.75410  0.55220  0.64870  Biso   1.000  H
  H48      1.0000 0.24590  0.05220  0.85130  Biso   1.000  H
  C37      1.0000 0.19360  0.57700  0.27122  Biso   1.000  C
  C38      1.0000 0.80640  0.07700  0.22878  Biso   1.000  C
  C39      1.0000 0.80640  0.42300  0.72878  Biso   1.000  C
  C40      1.0000 0.19360  0.92300  0.77122  Biso   1.000  C
  H49      1.0000 0.12990  0.63260  0.28330  Biso   1.000  H
  H50      1.0000 0.87010  0.13260  0.21670  Biso   1.000  H
  H51      1.0000 0.87010  0.36740  0.71670  Biso   1.000  H
  H52      1.0000 0.12990  0.86740  0.78330  Biso   1.000  H
  H53      1.0000 0.14690  0.54470  0.20130  Biso   1.000  H
  H54      1.0000 0.85310  0.04470  0.29870  Biso   1.000  H
  H55      1.0000 0.85310  0.45530  0.79870  Biso   1.000  H
  H56      1.0000 0.14690  0.95530  0.70130  Biso   1.000  H
  C41      1.0000 0.35310  0.60975  0.25999  Biso   1.000  C
  C42      1.0000 0.64690  0.10975  0.24001  Biso   1.000  C
  C43      1.0000 0.64690  0.39025  0.74001  Biso   1.000  C
  C44      1.0000 0.35310  0.89025  0.75999  Biso   1.000  C
  H57      1.0000 0.41350  0.55460  0.24130  Biso   1.000  H
  H58      1.0000 0.58650  0.05460  0.25870  Biso   1.000  H
  H59      1.0000 0.58650  0.44540  0.75870  Biso   1.000  H
  H60      1.0000 0.41350  0.94540  0.74130  Biso   1.000  H
  H61      1.0000 0.34770  0.65620  0.19770  Biso   1.000  H
  H62      1.0000 0.65230  0.15620  0.30230  Biso   1.000  H
  H63      1.0000 0.65230  0.34380  0.80230  Biso   1.000  H
  H64      1.0000 0.34770  0.84380  0.69770  Biso   1.000  H
  O1       1.0000 0.03184  0.70973  0.53226  Biso   1.000  O
  O2       1.0000 0.96816  0.20973  0.96774  Biso   1.000  O
  O3       1.0000 0.96816  0.29027  0.46774  Biso   1.000  O
  O4       1.0000 0.03184  0.79027  0.03226  Biso   1.000  O
  H65      1.0000 0.98500  0.76130  0.51900  Biso   1.000  H
  H66      1.0000 0.01500  0.26130  0.98100  Biso   1.000  H
  H67      1.0000 0.01500  0.23870  0.48100  Biso   1.000  H
  H68      1.0000 0.98500  0.73870  0.01900  Biso   1.000  H
  H69      1.0000 0.98600  0.67020  0.48700  Biso   1.000  H
  H70      1.0000 0.01400  0.17020  0.01300  Biso   1.000  H
  H71      1.0000 0.01400  0.32980  0.51300  Biso   1.000  H
  H72      1.0000 0.98600  0.82980  0.98700  Biso   1.000  H
