data_image0
_cell_length_a       12.287
_cell_length_b       9.6705
_cell_length_c       10.764
_cell_angle_alpha    90
_cell_angle_beta     109.93
_cell_angle_gamma    90

_symmetry_space_group_name_H-M    "P 1"
_symmetry_int_tables_number       1

loop_
  _symmetry_equiv_pos_as_xyz
  'x, y, z'

loop_
  _atom_site_label
  _atom_site_occupancy
  _atom_site_fract_x
  _atom_site_fract_y
  _atom_site_fract_z
  _atom_site_thermal_displace_type
  _atom_site_B_iso_or_equiv
  _atom_site_type_symbol
  Cu1      1.0000 0.00000  0.00000  0.50000  Biso   1.000  Cu
  Cu2      1.0000 0.00000  0.50000  0.00000  Biso   1.000  Cu
  O1       1.0000 0.20145  0.17587  0.45118  Biso   1.000  O
  O2       1.0000 0.79855  0.67587  0.04882  Biso   1.000  O
  O3       1.0000 0.79855  0.82413  0.54882  Biso   1.000  O
  O4       1.0000 0.20145  0.32413  0.95118  Biso   1.000  O
  O5       1.0000 0.16136  0.04308  0.59940  Biso   1.000  O
  O6       1.0000 0.83864  0.54308  0.90060  Biso   1.000  O
  O7       1.0000 0.83864  0.95692  0.40060  Biso   1.000  O
  O8       1.0000 0.16136  0.45692  0.09940  Biso   1.000  O
  O9       1.0000 0.03408  0.04555  0.28355  Biso   1.000  O
  O10      1.0000 0.96592  0.54555  0.21645  Biso   1.000  O
  O11      1.0000 0.96592  0.95445  0.71645  Biso   1.000  O
  O12      1.0000 0.03408  0.45445  0.78355  Biso   1.000  O
  H1       1.0000 0.09110  0.09200  0.33400  Biso   1.000  H
  H2       1.0000 0.90890  0.59200  0.16600  Biso   1.000  H
  H3       1.0000 0.90890  0.90800  0.66600  Biso   1.000  H
  H4       1.0000 0.09110  0.40800  0.83400  Biso   1.000  H
  N1       1.0000 0.95494  0.30343  0.02394  Biso   1.000  N
  N2       1.0000 0.04506  0.80343  0.47606  Biso   1.000  N
  N3       1.0000 0.04506  0.69657  0.97606  Biso   1.000  N
  N4       1.0000 0.95494  0.19657  0.52394  Biso   1.000  N
  C1       1.0000 0.22416  0.12750  0.56450  Biso   1.000  C
  C2       1.0000 0.77584  0.62750  0.93550  Biso   1.000  C
  C3       1.0000 0.77584  0.87250  0.43550  Biso   1.000  C
  C4       1.0000 0.22416  0.37250  0.06450  Biso   1.000  C
  C5       1.0000 0.33210  0.17580  0.67420  Biso   1.000  C
  C6       1.0000 0.66790  0.67580  0.82580  Biso   1.000  C
  C7       1.0000 0.66790  0.82420  0.32580  Biso   1.000  C
  C8       1.0000 0.33210  0.32420  0.17420  Biso   1.000  C
  H5       1.0000 0.31840  0.26800  0.70110  Biso   1.000  H
  H6       1.0000 0.68160  0.76800  0.79890  Biso   1.000  H
  H7       1.0000 0.68160  0.73200  0.29890  Biso   1.000  H
  H8       1.0000 0.31840  0.23200  0.20110  Biso   1.000  H
  H9       1.0000 0.34550  0.11520  0.74980  Biso   1.000  H
  H10      1.0000 0.65450  0.61520  0.75020  Biso   1.000  H
  H11      1.0000 0.65450  0.88480  0.25020  Biso   1.000  H
  H12      1.0000 0.34550  0.38480  0.24980  Biso   1.000  H
  C9       1.0000 0.43977  0.17870  0.63730  Biso   1.000  C
  C10      1.0000 0.56023  0.67870  0.86270  Biso   1.000  C
  C11      1.0000 0.56023  0.82130  0.36270  Biso   1.000  C
  C12      1.0000 0.43977  0.32130  0.13730  Biso   1.000  C
  C13      1.0000 0.51530  0.06670  0.66830  Biso   1.000  C
  C14      1.0000 0.48470  0.56670  0.83170  Biso   1.000  C
  C15      1.0000 0.48470  0.93330  0.33170  Biso   1.000  C
  C16      1.0000 0.51530  0.43330  0.16830  Biso   1.000  C
  H13      1.0000 0.49860  0.99160  0.71270  Biso   1.000  H
  H14      1.0000 0.50140  0.49160  0.78730  Biso   1.000  H
  H15      1.0000 0.50140  0.00840  0.28730  Biso   1.000  H
  H16      1.0000 0.49860  0.50840  0.21270  Biso   1.000  H
  C17      1.0000 0.61330  0.06390  0.63540  Biso   1.000  C
  C18      1.0000 0.38670  0.56390  0.86460  Biso   1.000  C
  C19      1.0000 0.38670  0.93610  0.36460  Biso   1.000  C
  C20      1.0000 0.61330  0.43610  0.13540  Biso   1.000  C
  H17      1.0000 0.66120  0.98660  0.65500  Biso   1.000  H
  H18      1.0000 0.33880  0.48660  0.84500  Biso   1.000  H
  H19      1.0000 0.33880  0.01340  0.34500  Biso   1.000  H
  H20      1.0000 0.66120  0.51340  0.15500  Biso   1.000  H
  C21      1.0000 0.64020  0.17270  0.57490  Biso   1.000  C
  C22      1.0000 0.35980  0.67270  0.92510  Biso   1.000  C
  C23      1.0000 0.35980  0.82730  0.42510  Biso   1.000  C
  C24      1.0000 0.64020  0.32730  0.07490  Biso   1.000  C
  H21      1.0000 0.70860  0.17220  0.55600  Biso   1.000  H
  H22      1.0000 0.29140  0.67220  0.94400  Biso   1.000  H
  H23      1.0000 0.29140  0.82780  0.44400  Biso   1.000  H
  H24      1.0000 0.70860  0.32780  0.05600  Biso   1.000  H
  C25      1.0000 0.56840  0.28470  0.54060  Biso   1.000  C
  C26      1.0000 0.43160  0.78470  0.95940  Biso   1.000  C
  C27      1.0000 0.43160  0.71530  0.45940  Biso   1.000  C
  C28      1.0000 0.56840  0.21530  0.04060  Biso   1.000  C
  H25      1.0000 0.58700  0.35870  0.49650  Biso   1.000  H
  H26      1.0000 0.41300  0.85870  0.00350  Biso   1.000  H
  H27      1.0000 0.41300  0.64130  0.50350  Biso   1.000  H
  H28      1.0000 0.58700  0.14130  0.99650  Biso   1.000  H
  C29      1.0000 0.46590  0.28790  0.57220  Biso   1.000  C
  C30      1.0000 0.53410  0.78790  0.92780  Biso   1.000  C
  C31      1.0000 0.53410  0.71210  0.42780  Biso   1.000  C
  C32      1.0000 0.46590  0.21210  0.07220  Biso   1.000  C
  H29      1.0000 0.41670  0.36380  0.54880  Biso   1.000  H
  H30      1.0000 0.58330  0.86380  0.95120  Biso   1.000  H
  H31      1.0000 0.58330  0.63620  0.45120  Biso   1.000  H
  H32      1.0000 0.41670  0.13620  0.04880  Biso   1.000  H
  C33      1.0000 0.00711  0.24018  0.14004  Biso   1.000  C
  C34      1.0000 0.99289  0.74018  0.35996  Biso   1.000  C
  C35      1.0000 0.99289  0.75982  0.85996  Biso   1.000  C
  C36      1.0000 0.00711  0.25982  0.64004  Biso   1.000  C
  H33      1.0000 0.06490  0.28730  0.20530  Biso   1.000  H
  H34      1.0000 0.93510  0.78730  0.29470  Biso   1.000  H
  H35      1.0000 0.93510  0.71270  0.79470  Biso   1.000  H
  H36      1.0000 0.06490  0.21270  0.70530  Biso   1.000  H
  C37      1.0000 0.97848  0.10803  0.16670  Biso   1.000  C
  C38      1.0000 0.02152  0.60803  0.33330  Biso   1.000  C
  C39      1.0000 0.02152  0.89197  0.83330  Biso   1.000  C
  C40      1.0000 0.97848  0.39197  0.66670  Biso   1.000  C
  C41      1.0000 0.89150  0.03870  0.06970  Biso   1.000  C
  C42      1.0000 0.10850  0.53870  0.43030  Biso   1.000  C
  C43      1.0000 0.10850  0.96130  0.93030  Biso   1.000  C
  C44      1.0000 0.89150  0.46130  0.56970  Biso   1.000  C
  H37      1.0000 0.86900  0.95020  0.08470  Biso   1.000  H
  H38      1.0000 0.13100  0.45020  0.41530  Biso   1.000  H
  H39      1.0000 0.13100  0.04980  0.91530  Biso   1.000  H
  H40      1.0000 0.86900  0.54980  0.58470  Biso   1.000  H
  C45      1.0000 0.83910  0.10440  0.95060  Biso   1.000  C
  C46      1.0000 0.16090  0.60440  0.54940  Biso   1.000  C
  C47      1.0000 0.16090  0.89560  0.04940  Biso   1.000  C
  C48      1.0000 0.83910  0.39560  0.45060  Biso   1.000  C
  H41      1.0000 0.78110  0.05950  0.88370  Biso   1.000  H
  H42      1.0000 0.21890  0.55950  0.61630  Biso   1.000  H
  H43      1.0000 0.21890  0.94050  0.11630  Biso   1.000  H
  H44      1.0000 0.78110  0.44050  0.38370  Biso   1.000  H
  C49      1.0000 0.87199  0.23540  0.92993  Biso   1.000  C
  C50      1.0000 0.12801  0.73540  0.57007  Biso   1.000  C
  C51      1.0000 0.12801  0.76460  0.07007  Biso   1.000  C
  C52      1.0000 0.87199  0.26460  0.42993  Biso   1.000  C
  H45      1.0000 0.83580  0.27800  0.84880  Biso   1.000  H
  H46      1.0000 0.16420  0.77800  0.65120  Biso   1.000  H
  H47      1.0000 0.16420  0.72200  0.15120  Biso   1.000  H
  H48      1.0000 0.83580  0.22200  0.34880  Biso   1.000  H
