data_image0
_cell_length_a       7.7198
_cell_length_b       8.2762
_cell_length_c       11.16
_cell_angle_alpha    96.71
_cell_angle_beta     90.03
_cell_angle_gamma    105.39

_symmetry_space_group_name_H-M    "P 1"
_symmetry_int_tables_number       1

loop_
  _symmetry_equiv_pos_as_xyz
  'x, y, z'

loop_
  _atom_site_label
  _atom_site_occupancy
  _atom_site_fract_x
  _atom_site_fract_y
  _atom_site_fract_z
  _atom_site_thermal_displace_type
  _atom_site_B_iso_or_equiv
  _atom_site_type_symbol
  Cu1      1.0000 0.40044  0.44211  0.08962  Biso   1.000  Cu
  Cu2      1.0000 0.59956  0.55789  0.91038  Biso   1.000  Cu
  O1       1.0000 0.53850  0.27120  0.07860  Biso   1.000  O
  O2       1.0000 0.46150  0.72880  0.92140  Biso   1.000  O
  O3       1.0000 0.69740  0.36390  0.92310  Biso   1.000  O
  O4       1.0000 0.30260  0.63610  0.07690  Biso   1.000  O
  O5       1.0000 0.60240  0.58810  0.19700  Biso   1.000  O
  O6       1.0000 0.39760  0.41190  0.80300  Biso   1.000  O
  O7       1.0000 0.76150  0.69110  0.04430  Biso   1.000  O
  O8       1.0000 0.23850  0.30890  0.95570  Biso   1.000  O
  N1       1.0000 0.21600  0.34400  0.22780  Biso   1.000  N
  N2       1.0000 0.78400  0.65600  0.77220  Biso   1.000  N
  N3       1.0000 0.78950  0.37010  0.35700  Biso   1.000  N
  N4       1.0000 0.21050  0.62990  0.64300  Biso   1.000  N
  H1       1.0000 0.74730  0.41150  0.29990  Biso   1.000  H
  H2       1.0000 0.25270  0.58850  0.70010  Biso   1.000  H
  C1       1.0000 0.05990  0.37990  0.24590  Biso   1.000  C
  C2       1.0000 0.94010  0.62010  0.75410  Biso   1.000  C
  H3       1.0000 0.02200  0.44210  0.19210  Biso   1.000  H
  H4       1.0000 0.97800  0.55790  0.80790  Biso   1.000  H
  C3       1.0000 0.94850  0.32950  0.34170  Biso   1.000  C
  C4       1.0000 0.05150  0.67050  0.65830  Biso   1.000  C
  C5       1.0000 0.01340  0.23790  0.42060  Biso   1.000  C
  C6       1.0000 0.98660  0.76210  0.57940  Biso   1.000  C
  H5       1.0000 0.94790  0.20370  0.48740  Biso   1.000  H
  H6       1.0000 0.05210  0.79630  0.51260  Biso   1.000  H
  C7       1.0000 0.17370  0.19840  0.39960  Biso   1.000  C
  C8       1.0000 0.82630  0.80160  0.60040  Biso   1.000  C
  H7       1.0000 0.21600  0.13610  0.45130  Biso   1.000  H
  H8       1.0000 0.78400  0.86390  0.54870  Biso   1.000  H
  C9       1.0000 0.27130  0.25170  0.30160  Biso   1.000  C
  C10      1.0000 0.72870  0.74830  0.69840  Biso   1.000  C
  H9       1.0000 0.37820  0.22240  0.28680  Biso   1.000  H
  H10      1.0000 0.62180  0.77760  0.71320  Biso   1.000  H
  C11      1.0000 0.68950  0.34610  0.46550  Biso   1.000  C
  C12      1.0000 0.31050  0.65390  0.53450  Biso   1.000  C
  H11      1.0000 0.59960  0.40880  0.46620  Biso   1.000  H
  H12      1.0000 0.40040  0.59120  0.53380  Biso   1.000  H
  H13      1.0000 0.77110  0.39470  0.53430  Biso   1.000  H
  H14      1.0000 0.22890  0.60530  0.46570  Biso   1.000  H
  C13      1.0000 0.59560  0.16440  0.48210  Biso   1.000  C
  C14      1.0000 0.40440  0.83560  0.51790  Biso   1.000  C
  C15      1.0000 0.53690  0.12740  0.59580  Biso   1.000  C
  C16      1.0000 0.46310  0.87260  0.40420  Biso   1.000  C
  H15      1.0000 0.56160  0.21220  0.66080  Biso   1.000  H
  H16      1.0000 0.43840  0.78780  0.33920  Biso   1.000  H
  C17      1.0000 0.55860  0.03600  0.38680  Biso   1.000  C
  C18      1.0000 0.44140  0.96400  0.61320  Biso   1.000  C
  H17      1.0000 0.59800  0.05900  0.31030  Biso   1.000  H
  H18      1.0000 0.40200  0.94100  0.68970  Biso   1.000  H
  C19      1.0000 0.65440  0.26440  0.00120  Biso   1.000  C
  C20      1.0000 0.34560  0.73560  0.99880  Biso   1.000  C
  C21      1.0000 0.74860  0.12710  0.00140  Biso   1.000  C
  C22      1.0000 0.25140  0.87290  0.99860  Biso   1.000  C
  H19      1.0000 0.72190  0.07410  0.07370  Biso   1.000  H
  H20      1.0000 0.27810  0.92590  0.92630  Biso   1.000  H
  H21      1.0000 0.87600  0.17490  0.99840  Biso   1.000  H
  H22      1.0000 0.12400  0.82510  0.00160  Biso   1.000  H
  H23      1.0000 0.70810  0.04470  0.93230  Biso   1.000  H
  H24      1.0000 0.29190  0.95530  0.06770  Biso   1.000  H
  C23      1.0000 0.73750  0.68300  0.15500  Biso   1.000  C
  C24      1.0000 0.26250  0.31700  0.84500  Biso   1.000  C
  C25      1.0000 0.87780  0.79390  0.24130  Biso   1.000  C
  C26      1.0000 0.12220  0.20610  0.75870  Biso   1.000  C
  H25      1.0000 0.90650  0.90720  0.22080  Biso   1.000  H
  H26      1.0000 0.09350  0.09280  0.77920  Biso   1.000  H
  H27      1.0000 0.98380  0.75380  0.23710  Biso   1.000  H
  H28      1.0000 0.01620  0.24620  0.76290  Biso   1.000  H
  H29      1.0000 0.83390  0.79210  0.32170  Biso   1.000  H
  H30      1.0000 0.16610  0.20790  0.67830  Biso   1.000  H
