data_image0
_cell_length_a       24.8536
_cell_length_b       10.8716
_cell_length_c       18.6837
_cell_angle_alpha    90
_cell_angle_beta     101.581
_cell_angle_gamma    90

_symmetry_space_group_name_H-M    "P 1"
_symmetry_int_tables_number       1

loop_
  _symmetry_equiv_pos_as_xyz
  'x, y, z'

loop_
  _atom_site_label
  _atom_site_occupancy
  _atom_site_fract_x
  _atom_site_fract_y
  _atom_site_fract_z
  _atom_site_thermal_displace_type
  _atom_site_B_iso_or_equiv
  _atom_site_type_symbol
  Cu1      1.0000 0.40993  0.15821  0.52869  Biso   1.000  Cu
  Cu2      1.0000 0.59007  0.15821  0.97131  Biso   1.000  Cu
  Cu3      1.0000 0.90994  0.65821  0.52869  Biso   1.000  Cu
  Cu4      1.0000 0.09007  0.65821  0.97131  Biso   1.000  Cu
  Cu5      1.0000 0.59007  0.84179  0.47131  Biso   1.000  Cu
  Cu6      1.0000 0.40993  0.84179  0.02869  Biso   1.000  Cu
  Cu7      1.0000 0.09007  0.34179  0.47131  Biso   1.000  Cu
  Cu8      1.0000 0.90994  0.34179  0.02869  Biso   1.000  Cu
  Cu9      1.0000 0.44234  0.42890  0.51526  Biso   1.000  Cu
  Cu10     1.0000 0.55766  0.42890  0.98474  Biso   1.000  Cu
  Cu11     1.0000 0.94234  0.92890  0.51526  Biso   1.000  Cu
  Cu12     1.0000 0.05766  0.92890  0.98474  Biso   1.000  Cu
  Cu13     1.0000 0.55766  0.57110  0.48474  Biso   1.000  Cu
  Cu14     1.0000 0.44234  0.57110  0.01526  Biso   1.000  Cu
  Cu15     1.0000 0.05766  0.07110  0.48474  Biso   1.000  Cu
  Cu16     1.0000 0.94234  0.07110  0.01526  Biso   1.000  Cu
  O1       1.0000 0.39257  0.32050  0.54910  Biso   1.000  O
  O2       1.0000 0.60743  0.32050  0.95090  Biso   1.000  O
  O3       1.0000 0.89257  0.82050  0.54910  Biso   1.000  O
  O4       1.0000 0.10743  0.82050  0.95090  Biso   1.000  O
  O5       1.0000 0.60743  0.67950  0.45090  Biso   1.000  O
  O6       1.0000 0.39257  0.67950  0.04910  Biso   1.000  O
  O7       1.0000 0.10743  0.17950  0.45090  Biso   1.000  O
  O8       1.0000 0.89257  0.17950  0.04910  Biso   1.000  O
  H1       1.0000 0.39550  0.32930  0.59490  Biso   1.000  H
  H2       1.0000 0.60450  0.32930  0.90510  Biso   1.000  H
  H3       1.0000 0.89550  0.82930  0.59490  Biso   1.000  H
  H4       1.0000 0.10450  0.82930  0.90510  Biso   1.000  H
  H5       1.0000 0.60450  0.67070  0.40510  Biso   1.000  H
  H6       1.0000 0.39550  0.67070  0.09490  Biso   1.000  H
  H7       1.0000 0.10450  0.17070  0.40510  Biso   1.000  H
  H8       1.0000 0.89550  0.17070  0.09490  Biso   1.000  H
  O9       1.0000 0.49529  0.54190  0.48174  Biso   1.000  O
  O10      1.0000 0.50471  0.54190  0.01826  Biso   1.000  O
  O11      1.0000 0.99529  0.04190  0.48174  Biso   1.000  O
  O12      1.0000 0.00471  0.04190  0.01826  Biso   1.000  O
  O13      1.0000 0.50471  0.45810  0.51826  Biso   1.000  O
  O14      1.0000 0.49529  0.45810  0.98174  Biso   1.000  O
  O15      1.0000 0.00471  0.95810  0.51826  Biso   1.000  O
  O16      1.0000 0.99529  0.95810  0.98174  Biso   1.000  O
  H9       1.0000 0.51740  0.51010  0.45770  Biso   1.000  H
  H10      1.0000 0.48260  0.51010  0.04230  Biso   1.000  H
  H11      1.0000 0.01740  0.01010  0.45770  Biso   1.000  H
  H12      1.0000 0.98260  0.01010  0.04230  Biso   1.000  H
  H13      1.0000 0.48260  0.48990  0.54230  Biso   1.000  H
  H14      1.0000 0.51740  0.48990  0.95770  Biso   1.000  H
  H15      1.0000 0.98260  0.98990  0.54230  Biso   1.000  H
  H16      1.0000 0.01740  0.98990  0.95770  Biso   1.000  H
  H17      1.0000 0.51400  0.57710  0.51930  Biso   1.000  H
  H18      1.0000 0.48600  0.57710  0.98070  Biso   1.000  H
  H19      1.0000 0.01400  0.07710  0.51930  Biso   1.000  H
  H20      1.0000 0.98600  0.07710  0.98070  Biso   1.000  H
  H21      1.0000 0.48600  0.42290  0.48070  Biso   1.000  H
  H22      1.0000 0.51400  0.42290  0.01930  Biso   1.000  H
  H23      1.0000 0.98600  0.92290  0.48070  Biso   1.000  H
  H24      1.0000 0.01400  0.92290  0.01930  Biso   1.000  H
  N1       1.0000 0.50967  0.30110  0.56010  Biso   1.000  N
  N2       1.0000 0.49033  0.30110  0.93990  Biso   1.000  N
  N3       1.0000 0.00967  0.80110  0.56010  Biso   1.000  N
  N4       1.0000 0.99033  0.80110  0.93990  Biso   1.000  N
  N5       1.0000 0.49033  0.69890  0.43990  Biso   1.000  N
  N6       1.0000 0.50967  0.69890  0.06010  Biso   1.000  N
  N7       1.0000 0.99033  0.19890  0.43990  Biso   1.000  N
  N8       1.0000 0.00967  0.19890  0.06010  Biso   1.000  N
  C1       1.0000 0.56190  0.32920  0.57930  Biso   1.000  C
  C2       1.0000 0.43810  0.32920  0.92070  Biso   1.000  C
  C3       1.0000 0.06190  0.82920  0.57930  Biso   1.000  C
  C4       1.0000 0.93810  0.82920  0.92070  Biso   1.000  C
  C5       1.0000 0.43810  0.67080  0.42070  Biso   1.000  C
  C6       1.0000 0.56190  0.67080  0.07930  Biso   1.000  C
  C7       1.0000 0.93810  0.17080  0.42070  Biso   1.000  C
  C8       1.0000 0.06190  0.17080  0.07930  Biso   1.000  C
  H25      1.0000 0.57190  0.41220  0.57660  Biso   1.000  H
  H26      1.0000 0.42810  0.41220  0.92340  Biso   1.000  H
  H27      1.0000 0.07190  0.91220  0.57660  Biso   1.000  H
  H28      1.0000 0.92810  0.91220  0.92340  Biso   1.000  H
  H29      1.0000 0.42810  0.58780  0.42340  Biso   1.000  H
  H30      1.0000 0.57190  0.58780  0.07660  Biso   1.000  H
  H31      1.0000 0.92810  0.08780  0.42340  Biso   1.000  H
  H32      1.0000 0.07190  0.08780  0.07660  Biso   1.000  H
  C9       1.0000 0.58840  0.12310  0.59400  Biso   1.000  C
  C10      1.0000 0.41160  0.12310  0.90600  Biso   1.000  C
  C11      1.0000 0.08840  0.62310  0.59400  Biso   1.000  C
  C12      1.0000 0.91160  0.62310  0.90600  Biso   1.000  C
  C13      1.0000 0.41160  0.87690  0.40600  Biso   1.000  C
  C14      1.0000 0.58840  0.87690  0.09400  Biso   1.000  C
  C15      1.0000 0.91160  0.37690  0.40600  Biso   1.000  C
  C16      1.0000 0.08840  0.37690  0.09400  Biso   1.000  C
  H33      1.0000 0.61480  0.06010  0.59990  Biso   1.000  H
  H34      1.0000 0.38520  0.06010  0.90010  Biso   1.000  H
  H35      1.0000 0.11480  0.56010  0.59990  Biso   1.000  H
  H36      1.0000 0.88520  0.56010  0.90010  Biso   1.000  H
  H37      1.0000 0.38520  0.93990  0.40010  Biso   1.000  H
  H38      1.0000 0.61480  0.93990  0.09990  Biso   1.000  H
  H39      1.0000 0.88520  0.43990  0.40010  Biso   1.000  H
  H40      1.0000 0.11480  0.43990  0.09990  Biso   1.000  H
  C17      1.0000 0.53240  0.09740  0.57560  Biso   1.000  C
  C18      1.0000 0.46760  0.09740  0.92440  Biso   1.000  C
  C19      1.0000 0.03240  0.59740  0.57560  Biso   1.000  C
  C20      1.0000 0.96760  0.59740  0.92440  Biso   1.000  C
  C21      1.0000 0.46760  0.90260  0.42440  Biso   1.000  C
  C22      1.0000 0.53240  0.90260  0.07560  Biso   1.000  C
  C23      1.0000 0.96760  0.40260  0.42440  Biso   1.000  C
  C24      1.0000 0.03240  0.40260  0.07560  Biso   1.000  C
  H41      1.0000 0.52120  0.01480  0.57510  Biso   1.000  H
  H42      1.0000 0.47880  0.01480  0.92490  Biso   1.000  H
  H43      1.0000 0.02120  0.51480  0.57510  Biso   1.000  H
  H44      1.0000 0.97880  0.51480  0.92490  Biso   1.000  H
  H45      1.0000 0.47880  0.98520  0.42490  Biso   1.000  H
  H46      1.0000 0.52120  0.98520  0.07510  Biso   1.000  H
  H47      1.0000 0.97880  0.48520  0.42490  Biso   1.000  H
  H48      1.0000 0.02120  0.48520  0.07510  Biso   1.000  H
  O17      1.0000 0.41797  0.14349  0.42239  Biso   1.000  O
  O18      1.0000 0.58203  0.14349  0.07761  Biso   1.000  O
  O19      1.0000 0.91797  0.64349  0.42239  Biso   1.000  O
  O20      1.0000 0.08203  0.64349  0.07761  Biso   1.000  O
  O21      1.0000 0.58203  0.85651  0.57761  Biso   1.000  O
  O22      1.0000 0.41797  0.85651  0.92239  Biso   1.000  O
  O23      1.0000 0.08203  0.35651  0.57761  Biso   1.000  O
  O24      1.0000 0.91797  0.35651  0.92239  Biso   1.000  O
  O25      1.0000 0.42331  0.34840  0.41816  Biso   1.000  O
  O26      1.0000 0.57669  0.34840  0.08184  Biso   1.000  O
  O27      1.0000 0.92331  0.84840  0.41816  Biso   1.000  O
  O28      1.0000 0.07669  0.84840  0.08184  Biso   1.000  O
  O29      1.0000 0.57669  0.65160  0.58184  Biso   1.000  O
  O30      1.0000 0.42331  0.65160  0.91816  Biso   1.000  O
  O31      1.0000 0.07669  0.15160  0.58184  Biso   1.000  O
  O32      1.0000 0.92331  0.15160  0.91816  Biso   1.000  O
  O33      1.0000 0.43172  0.45740  0.09162  Biso   1.000  O
  O34      1.0000 0.56828  0.45740  0.40838  Biso   1.000  O
  O35      1.0000 0.93172  0.95740  0.09162  Biso   1.000  O
  O36      1.0000 0.06828  0.95740  0.40838  Biso   1.000  O
  O37      1.0000 0.56828  0.54260  0.90838  Biso   1.000  O
  O38      1.0000 0.43172  0.54260  0.59162  Biso   1.000  O
  O39      1.0000 0.06828  0.04260  0.90838  Biso   1.000  O
  O40      1.0000 0.93172  0.04260  0.59162  Biso   1.000  O
  O41      1.0000 0.43337  0.55927  0.19518  Biso   1.000  O
  O42      1.0000 0.56663  0.55927  0.30482  Biso   1.000  O
  O43      1.0000 0.93337  0.05927  0.19518  Biso   1.000  O
  O44      1.0000 0.06663  0.05927  0.30482  Biso   1.000  O
  O45      1.0000 0.56663  0.44073  0.80482  Biso   1.000  O
  O46      1.0000 0.43337  0.44073  0.69518  Biso   1.000  O
  O47      1.0000 0.06663  0.94073  0.80482  Biso   1.000  O
  O48      1.0000 0.93337  0.94073  0.69518  Biso   1.000  O
  O49      1.0000 0.42682  0.00679  0.09348  Biso   1.000  O
  O50      1.0000 0.57318  0.00679  0.40652  Biso   1.000  O
  O51      1.0000 0.92682  0.50679  0.09348  Biso   1.000  O
  O52      1.0000 0.07318  0.50679  0.40652  Biso   1.000  O
  O53      1.0000 0.57318  0.99321  0.90652  Biso   1.000  O
  O54      1.0000 0.42682  0.99321  0.59348  Biso   1.000  O
  O55      1.0000 0.07318  0.49321  0.90652  Biso   1.000  O
  O56      1.0000 0.92682  0.49321  0.59348  Biso   1.000  O
  O57      1.0000 0.42705  0.90783  0.19845  Biso   1.000  O
  O58      1.0000 0.57295  0.90783  0.30155  Biso   1.000  O
  O59      1.0000 0.92705  0.40783  0.19845  Biso   1.000  O
  O60      1.0000 0.07295  0.40783  0.30155  Biso   1.000  O
  O61      1.0000 0.57295  0.09217  0.80155  Biso   1.000  O
  O62      1.0000 0.42705  0.09217  0.69845  Biso   1.000  O
  O63      1.0000 0.07295  0.59217  0.80155  Biso   1.000  O
  O64      1.0000 0.92705  0.59217  0.69845  Biso   1.000  O
  N9       1.0000 0.49311  0.18616  0.55835  Biso   1.000  N
  N10      1.0000 0.50689  0.18616  0.94165  Biso   1.000  N
  N11      1.0000 0.99311  0.68616  0.55835  Biso   1.000  N
  N12      1.0000 0.00689  0.68616  0.94165  Biso   1.000  N
  N13      1.0000 0.50689  0.81384  0.44165  Biso   1.000  N
  N14      1.0000 0.49311  0.81384  0.05835  Biso   1.000  N
  N15      1.0000 0.00689  0.31384  0.44165  Biso   1.000  N
  N16      1.0000 0.99311  0.31384  0.05835  Biso   1.000  N
  C25      1.0000 0.60329  0.24490  0.60319  Biso   1.000  C
  C26      1.0000 0.39671  0.24490  0.89681  Biso   1.000  C
  C27      1.0000 0.10329  0.74490  0.60319  Biso   1.000  C
  C28      1.0000 0.89671  0.74490  0.89681  Biso   1.000  C
  C29      1.0000 0.39671  0.75510  0.39681  Biso   1.000  C
  C30      1.0000 0.60329  0.75510  0.10319  Biso   1.000  C
  C31      1.0000 0.89671  0.25510  0.39681  Biso   1.000  C
  C32      1.0000 0.10329  0.25510  0.10319  Biso   1.000  C
  N17      1.0000 0.79633  0.65650  0.44248  Biso   1.000  N
  N18      1.0000 0.20367  0.65650  0.05752  Biso   1.000  N
  N19      1.0000 0.29633  0.15650  0.44248  Biso   1.000  N
  N20      1.0000 0.70367  0.15650  0.05752  Biso   1.000  N
  N21      1.0000 0.20367  0.34350  0.55752  Biso   1.000  N
  N22      1.0000 0.79633  0.34350  0.94248  Biso   1.000  N
  N23      1.0000 0.70367  0.84350  0.55752  Biso   1.000  N
  N24      1.0000 0.29633  0.84350  0.94248  Biso   1.000  N
  N25      1.0000 0.82879  0.61110  0.50234  Biso   1.000  N
  N26      1.0000 0.17121  0.61110  0.99766  Biso   1.000  N
  N27      1.0000 0.32879  0.11110  0.50234  Biso   1.000  N
  N28      1.0000 0.67121  0.11110  0.99766  Biso   1.000  N
  N29      1.0000 0.17121  0.38890  0.49766  Biso   1.000  N
  N30      1.0000 0.82879  0.38890  0.00234  Biso   1.000  N
  N31      1.0000 0.67121  0.88890  0.49766  Biso   1.000  N
  N32      1.0000 0.32879  0.88890  0.00234  Biso   1.000  N
  C33      1.0000 0.80850  0.53960  0.54756  Biso   1.000  C
  C34      1.0000 0.19150  0.53960  0.95244  Biso   1.000  C
  C35      1.0000 0.30850  0.03960  0.54756  Biso   1.000  C
  C36      1.0000 0.69150  0.03960  0.95244  Biso   1.000  C
  C37      1.0000 0.19150  0.46040  0.45244  Biso   1.000  C
  C38      1.0000 0.80850  0.46040  0.04756  Biso   1.000  C
  C39      1.0000 0.69150  0.96040  0.45244  Biso   1.000  C
  C40      1.0000 0.30850  0.96040  0.04756  Biso   1.000  C
  H49      1.0000 0.83260  0.51290  0.59010  Biso   1.000  H
  H50      1.0000 0.16740  0.51290  0.90990  Biso   1.000  H
  H51      1.0000 0.33260  0.01290  0.59010  Biso   1.000  H
  H52      1.0000 0.66740  0.01290  0.90990  Biso   1.000  H
  H53      1.0000 0.16740  0.48710  0.40990  Biso   1.000  H
  H54      1.0000 0.83260  0.48710  0.09010  Biso   1.000  H
  H55      1.0000 0.66740  0.98710  0.40990  Biso   1.000  H
  H56      1.0000 0.33260  0.98710  0.09010  Biso   1.000  H
  C41      1.0000 0.75392  0.50070  0.53690  Biso   1.000  C
  C42      1.0000 0.24608  0.50070  0.96310  Biso   1.000  C
  C43      1.0000 0.25392  0.00070  0.53690  Biso   1.000  C
  C44      1.0000 0.74608  0.00070  0.96310  Biso   1.000  C
  C45      1.0000 0.24608  0.49930  0.46310  Biso   1.000  C
  C46      1.0000 0.75392  0.49930  0.03690  Biso   1.000  C
  C47      1.0000 0.74608  0.99930  0.46310  Biso   1.000  C
  C48      1.0000 0.25392  0.99930  0.03690  Biso   1.000  C
  C49      1.0000 0.72034  0.54760  0.47531  Biso   1.000  C
  C50      1.0000 0.27966  0.54760  0.02469  Biso   1.000  C
  C51      1.0000 0.22034  0.04760  0.47531  Biso   1.000  C
  C52      1.0000 0.77966  0.04760  0.02469  Biso   1.000  C
  C53      1.0000 0.27966  0.45240  0.52469  Biso   1.000  C
  C54      1.0000 0.72034  0.45240  0.97531  Biso   1.000  C
  C55      1.0000 0.77966  0.95240  0.52469  Biso   1.000  C
  C56      1.0000 0.22034  0.95240  0.97531  Biso   1.000  C
  H57      1.0000 0.68280  0.52730  0.46340  Biso   1.000  H
  H58      1.0000 0.31720  0.52730  0.03660  Biso   1.000  H
  H59      1.0000 0.18280  0.02730  0.46340  Biso   1.000  H
  H60      1.0000 0.81720  0.02730  0.03660  Biso   1.000  H
  H61      1.0000 0.31720  0.47270  0.53660  Biso   1.000  H
  H62      1.0000 0.68280  0.47270  0.96340  Biso   1.000  H
  H63      1.0000 0.81720  0.97270  0.53660  Biso   1.000  H
  H64      1.0000 0.18280  0.97270  0.96340  Biso   1.000  H
  C57      1.0000 0.74362  0.62540  0.43164  Biso   1.000  C
  C58      1.0000 0.25638  0.62540  0.06836  Biso   1.000  C
  C59      1.0000 0.24362  0.12540  0.43164  Biso   1.000  C
  C60      1.0000 0.75638  0.12540  0.06836  Biso   1.000  C
  C61      1.0000 0.25638  0.37460  0.56836  Biso   1.000  C
  C62      1.0000 0.74362  0.37460  0.93164  Biso   1.000  C
  C63      1.0000 0.75638  0.87460  0.56836  Biso   1.000  C
  C64      1.0000 0.24362  0.87460  0.93164  Biso   1.000  C
  H65      1.0000 0.72010  0.65930  0.39060  Biso   1.000  H
  H66      1.0000 0.27990  0.65930  0.10940  Biso   1.000  H
  H67      1.0000 0.22010  0.15930  0.39060  Biso   1.000  H
  H68      1.0000 0.77990  0.15930  0.10940  Biso   1.000  H
  H69      1.0000 0.27990  0.34070  0.60940  Biso   1.000  H
  H70      1.0000 0.72010  0.34070  0.89060  Biso   1.000  H
  H71      1.0000 0.77990  0.84070  0.60940  Biso   1.000  H
  H72      1.0000 0.22010  0.84070  0.89060  Biso   1.000  H
  C65      1.0000 0.73698  0.41710  0.59348  Biso   1.000  C
  C66      1.0000 0.26302  0.41710  0.90652  Biso   1.000  C
  C67      1.0000 0.23698  0.91710  0.59348  Biso   1.000  C
  C68      1.0000 0.76302  0.91710  0.90652  Biso   1.000  C
  C69      1.0000 0.26302  0.58290  0.40652  Biso   1.000  C
  C70      1.0000 0.73698  0.58290  0.09348  Biso   1.000  C
  C71      1.0000 0.76302  0.08290  0.40652  Biso   1.000  C
  C72      1.0000 0.23698  0.08290  0.09348  Biso   1.000  C
  C73      1.0000 0.67764  0.37200  0.56990  Biso   1.000  C
  C74      1.0000 0.32236  0.37200  0.93010  Biso   1.000  C
  C75      1.0000 0.17764  0.87200  0.56990  Biso   1.000  C
  C76      1.0000 0.82236  0.87200  0.93010  Biso   1.000  C
  C77      1.0000 0.32236  0.62800  0.43010  Biso   1.000  C
  C78      1.0000 0.67764  0.62800  0.06990  Biso   1.000  C
  C79      1.0000 0.82236  0.12800  0.43010  Biso   1.000  C
  C80      1.0000 0.17764  0.12800  0.06990  Biso   1.000  C
  H73      1.0000 0.67370  0.32670  0.52380  Biso   1.000  H
  H74      1.0000 0.32630  0.32670  0.97620  Biso   1.000  H
  H75      1.0000 0.17370  0.82670  0.52380  Biso   1.000  H
  H76      1.0000 0.82630  0.82670  0.97620  Biso   1.000  H
  H77      1.0000 0.32630  0.67330  0.47620  Biso   1.000  H
  H78      1.0000 0.67370  0.67330  0.02380  Biso   1.000  H
  H79      1.0000 0.82630  0.17330  0.47620  Biso   1.000  H
  H80      1.0000 0.17370  0.17330  0.02380  Biso   1.000  H
  H81      1.0000 0.65280  0.44280  0.56180  Biso   1.000  H
  H82      1.0000 0.34720  0.44280  0.93820  Biso   1.000  H
  H83      1.0000 0.15280  0.94280  0.56180  Biso   1.000  H
  H84      1.0000 0.84720  0.94280  0.93820  Biso   1.000  H
  H85      1.0000 0.34720  0.55720  0.43820  Biso   1.000  H
  H86      1.0000 0.65280  0.55720  0.06180  Biso   1.000  H
  H87      1.0000 0.84720  0.05720  0.43820  Biso   1.000  H
  H88      1.0000 0.15280  0.05720  0.06180  Biso   1.000  H
  C81      1.0000 0.66180  0.28750  0.62906  Biso   1.000  C
  C82      1.0000 0.33820  0.28750  0.87094  Biso   1.000  C
  C83      1.0000 0.16180  0.78750  0.62906  Biso   1.000  C
  C84      1.0000 0.83820  0.78750  0.87094  Biso   1.000  C
  C85      1.0000 0.33820  0.71250  0.37094  Biso   1.000  C
  C86      1.0000 0.66180  0.71250  0.12906  Biso   1.000  C
  C87      1.0000 0.83820  0.21250  0.37094  Biso   1.000  C
  C88      1.0000 0.16180  0.21250  0.12906  Biso   1.000  C
  C89      1.0000 0.70136  0.17730  0.64138  Biso   1.000  C
  C90      1.0000 0.29864  0.17730  0.85862  Biso   1.000  C
  C91      1.0000 0.20136  0.67730  0.64138  Biso   1.000  C
  C92      1.0000 0.79864  0.67730  0.85862  Biso   1.000  C
  C93      1.0000 0.29864  0.82270  0.35862  Biso   1.000  C
  C94      1.0000 0.70136  0.82270  0.14138  Biso   1.000  C
  C95      1.0000 0.79864  0.32270  0.35862  Biso   1.000  C
  C96      1.0000 0.20136  0.32270  0.14138  Biso   1.000  C
  H89      1.0000 0.69170  0.12280  0.67860  Biso   1.000  H
  H90      1.0000 0.30830  0.12280  0.82140  Biso   1.000  H
  H91      1.0000 0.19170  0.62280  0.67860  Biso   1.000  H
  H92      1.0000 0.80830  0.62280  0.82140  Biso   1.000  H
  H93      1.0000 0.30830  0.87720  0.32140  Biso   1.000  H
  H94      1.0000 0.69170  0.87720  0.17860  Biso   1.000  H
  H95      1.0000 0.80830  0.37720  0.32140  Biso   1.000  H
  H96      1.0000 0.19170  0.37720  0.17860  Biso   1.000  H
  H97      1.0000 0.69820  0.13050  0.59590  Biso   1.000  H
  H98      1.0000 0.30180  0.13050  0.90410  Biso   1.000  H
  H99      1.0000 0.19820  0.63050  0.59590  Biso   1.000  H
  H100     1.0000 0.80180  0.63050  0.90410  Biso   1.000  H
  H101     1.0000 0.30180  0.86950  0.40410  Biso   1.000  H
  H102     1.0000 0.69820  0.86950  0.09590  Biso   1.000  H
  H103     1.0000 0.80180  0.36950  0.40410  Biso   1.000  H
  H104     1.0000 0.19820  0.36950  0.09590  Biso   1.000  H
  C97      1.0000 0.76042  0.22330  0.66633  Biso   1.000  C
  C98      1.0000 0.23958  0.22330  0.83367  Biso   1.000  C
  C99      1.0000 0.26042  0.72330  0.66633  Biso   1.000  C
  C100     1.0000 0.73958  0.72330  0.83367  Biso   1.000  C
  C101     1.0000 0.23958  0.77670  0.33367  Biso   1.000  C
  C102     1.0000 0.76042  0.77670  0.16633  Biso   1.000  C
  C103     1.0000 0.73958  0.27670  0.33367  Biso   1.000  C
  C104     1.0000 0.26042  0.27670  0.16633  Biso   1.000  C
  H105     1.0000 0.78560  0.15190  0.67450  Biso   1.000  H
  H106     1.0000 0.21440  0.15190  0.82550  Biso   1.000  H
  H107     1.0000 0.28560  0.65190  0.67450  Biso   1.000  H
  H108     1.0000 0.71440  0.65190  0.82550  Biso   1.000  H
  H109     1.0000 0.21440  0.84810  0.32550  Biso   1.000  H
  H110     1.0000 0.78560  0.84810  0.17450  Biso   1.000  H
  H111     1.0000 0.71440  0.34810  0.32550  Biso   1.000  H
  H112     1.0000 0.28560  0.34810  0.17450  Biso   1.000  H
  C105     1.0000 0.77539  0.30450  0.60734  Biso   1.000  C
  C106     1.0000 0.22461  0.30450  0.89266  Biso   1.000  C
  C107     1.0000 0.27539  0.80450  0.60734  Biso   1.000  C
  C108     1.0000 0.72461  0.80450  0.89266  Biso   1.000  C
  C109     1.0000 0.22461  0.69550  0.39266  Biso   1.000  C
  C110     1.0000 0.77539  0.69550  0.10734  Biso   1.000  C
  C111     1.0000 0.72461  0.19550  0.39266  Biso   1.000  C
  C112     1.0000 0.27539  0.19550  0.10734  Biso   1.000  C
  H113     1.0000 0.77240  0.25720  0.56210  Biso   1.000  H
  H114     1.0000 0.22760  0.25720  0.93790  Biso   1.000  H
  H115     1.0000 0.27240  0.75720  0.56210  Biso   1.000  H
  H116     1.0000 0.72760  0.75720  0.93790  Biso   1.000  H
  H117     1.0000 0.22760  0.74280  0.43790  Biso   1.000  H
  H118     1.0000 0.77240  0.74280  0.06210  Biso   1.000  H
  H119     1.0000 0.72760  0.24280  0.43790  Biso   1.000  H
  H120     1.0000 0.27240  0.24280  0.06210  Biso   1.000  H
  H121     1.0000 0.81350  0.33220  0.62240  Biso   1.000  H
  H122     1.0000 0.18650  0.33220  0.87760  Biso   1.000  H
  H123     1.0000 0.31350  0.83220  0.62240  Biso   1.000  H
  H124     1.0000 0.68650  0.83220  0.87760  Biso   1.000  H
  H125     1.0000 0.18650  0.66780  0.37760  Biso   1.000  H
  H126     1.0000 0.81350  0.66780  0.12240  Biso   1.000  H
  H127     1.0000 0.68650  0.16780  0.37760  Biso   1.000  H
  H128     1.0000 0.31350  0.16780  0.12240  Biso   1.000  H
  C113     1.0000 0.74122  0.48870  0.66522  Biso   1.000  C
  C114     1.0000 0.25878  0.48870  0.83478  Biso   1.000  C
  C115     1.0000 0.24122  0.98870  0.66522  Biso   1.000  C
  C116     1.0000 0.75878  0.98870  0.83478  Biso   1.000  C
  C117     1.0000 0.25878  0.51130  0.33478  Biso   1.000  C
  C118     1.0000 0.74122  0.51130  0.16522  Biso   1.000  C
  C119     1.0000 0.75878  0.01130  0.33478  Biso   1.000  C
  C120     1.0000 0.24122  0.01130  0.16522  Biso   1.000  C
  H129     1.0000 0.77870  0.52010  0.68100  Biso   1.000  H
  H130     1.0000 0.22130  0.52010  0.81900  Biso   1.000  H
  H131     1.0000 0.27870  0.02010  0.68100  Biso   1.000  H
  H132     1.0000 0.72130  0.02010  0.81900  Biso   1.000  H
  H133     1.0000 0.22130  0.47990  0.31900  Biso   1.000  H
  H134     1.0000 0.77870  0.47990  0.18100  Biso   1.000  H
  H135     1.0000 0.72130  0.97990  0.31900  Biso   1.000  H
  H136     1.0000 0.27870  0.97990  0.18100  Biso   1.000  H
  H137     1.0000 0.71610  0.55910  0.65730  Biso   1.000  H
  H138     1.0000 0.28390  0.55910  0.84270  Biso   1.000  H
  H139     1.0000 0.21610  0.05910  0.65730  Biso   1.000  H
  H140     1.0000 0.78390  0.05910  0.84270  Biso   1.000  H
  H141     1.0000 0.28390  0.44090  0.34270  Biso   1.000  H
  H142     1.0000 0.71610  0.44090  0.15730  Biso   1.000  H
  H143     1.0000 0.78390  0.94090  0.34270  Biso   1.000  H
  H144     1.0000 0.21610  0.94090  0.15730  Biso   1.000  H
  C121     1.0000 0.72677  0.40610  0.72451  Biso   1.000  C
  C122     1.0000 0.27323  0.40610  0.77549  Biso   1.000  C
  C123     1.0000 0.22677  0.90610  0.72451  Biso   1.000  C
  C124     1.0000 0.77323  0.90610  0.77549  Biso   1.000  C
  C125     1.0000 0.27323  0.59390  0.27549  Biso   1.000  C
  C126     1.0000 0.72677  0.59390  0.22451  Biso   1.000  C
  C127     1.0000 0.77323  0.09390  0.27549  Biso   1.000  C
  C128     1.0000 0.22677  0.09390  0.22451  Biso   1.000  C
  H145     1.0000 0.72990  0.45370  0.77030  Biso   1.000  H
  H146     1.0000 0.27010  0.45370  0.72970  Biso   1.000  H
  H147     1.0000 0.22990  0.95370  0.77030  Biso   1.000  H
  H148     1.0000 0.77010  0.95370  0.72970  Biso   1.000  H
  H149     1.0000 0.27010  0.54630  0.22970  Biso   1.000  H
  H150     1.0000 0.72990  0.54630  0.27030  Biso   1.000  H
  H151     1.0000 0.77010  0.04630  0.22970  Biso   1.000  H
  H152     1.0000 0.22990  0.04630  0.27030  Biso   1.000  H
  C129     1.0000 0.66773  0.36040  0.70023  Biso   1.000  C
  C130     1.0000 0.33227  0.36040  0.79977  Biso   1.000  C
  C131     1.0000 0.16773  0.86040  0.70023  Biso   1.000  C
  C132     1.0000 0.83227  0.86040  0.79977  Biso   1.000  C
  C133     1.0000 0.33227  0.63960  0.29977  Biso   1.000  C
  C134     1.0000 0.66773  0.63960  0.20023  Biso   1.000  C
  C135     1.0000 0.83227  0.13960  0.29977  Biso   1.000  C
  C136     1.0000 0.16773  0.13960  0.20023  Biso   1.000  C
  H153     1.0000 0.65800  0.30790  0.73840  Biso   1.000  H
  H154     1.0000 0.34200  0.30790  0.76160  Biso   1.000  H
  H155     1.0000 0.15800  0.80790  0.73840  Biso   1.000  H
  H156     1.0000 0.84200  0.80790  0.76160  Biso   1.000  H
  H157     1.0000 0.34200  0.69210  0.26160  Biso   1.000  H
  H158     1.0000 0.65800  0.69210  0.23840  Biso   1.000  H
  H159     1.0000 0.84200  0.19210  0.26160  Biso   1.000  H
  H160     1.0000 0.15800  0.19210  0.23840  Biso   1.000  H
  H161     1.0000 0.64250  0.43070  0.69290  Biso   1.000  H
  H162     1.0000 0.35750  0.43070  0.80710  Biso   1.000  H
  H163     1.0000 0.14250  0.93070  0.69290  Biso   1.000  H
  H164     1.0000 0.85750  0.93070  0.80710  Biso   1.000  H
  H165     1.0000 0.35750  0.56930  0.30710  Biso   1.000  H
  H166     1.0000 0.64250  0.56930  0.19290  Biso   1.000  H
  H167     1.0000 0.85750  0.06930  0.30710  Biso   1.000  H
  H168     1.0000 0.14250  0.06930  0.19290  Biso   1.000  H
  C137     1.0000 0.76580  0.29610  0.73776  Biso   1.000  C
  C138     1.0000 0.23420  0.29610  0.76224  Biso   1.000  C
  C139     1.0000 0.26580  0.79610  0.73776  Biso   1.000  C
  C140     1.0000 0.73420  0.79610  0.76224  Biso   1.000  C
  C141     1.0000 0.23420  0.70390  0.26224  Biso   1.000  C
  C142     1.0000 0.76580  0.70390  0.23776  Biso   1.000  C
  C143     1.0000 0.73420  0.20390  0.26224  Biso   1.000  C
  C144     1.0000 0.26580  0.20390  0.23776  Biso   1.000  C
  H169     1.0000 0.75650  0.24340  0.77610  Biso   1.000  H
  H170     1.0000 0.24350  0.24340  0.72390  Biso   1.000  H
  H171     1.0000 0.25650  0.74340  0.77610  Biso   1.000  H
  H172     1.0000 0.74350  0.74340  0.72390  Biso   1.000  H
  H173     1.0000 0.24350  0.75660  0.22390  Biso   1.000  H
  H174     1.0000 0.75650  0.75660  0.27610  Biso   1.000  H
  H175     1.0000 0.74350  0.25660  0.22390  Biso   1.000  H
  H176     1.0000 0.25650  0.25660  0.27610  Biso   1.000  H
  H177     1.0000 0.80370  0.32470  0.75390  Biso   1.000  H
  H178     1.0000 0.19630  0.32470  0.74610  Biso   1.000  H
  H179     1.0000 0.30370  0.82470  0.75390  Biso   1.000  H
  H180     1.0000 0.69630  0.82470  0.74610  Biso   1.000  H
  H181     1.0000 0.19630  0.67530  0.24610  Biso   1.000  H
  H182     1.0000 0.80370  0.67530  0.25390  Biso   1.000  H
  H183     1.0000 0.69630  0.17530  0.24610  Biso   1.000  H
  H184     1.0000 0.30370  0.17530  0.25390  Biso   1.000  H
  C145     1.0000 0.42128  0.24400  0.38974  Biso   1.000  C
  C146     1.0000 0.57872  0.24400  0.11026  Biso   1.000  C
  C147     1.0000 0.92128  0.74400  0.38974  Biso   1.000  C
  C148     1.0000 0.07872  0.74400  0.11026  Biso   1.000  C
  C149     1.0000 0.57872  0.75600  0.61026  Biso   1.000  C
  C150     1.0000 0.42128  0.75600  0.88974  Biso   1.000  C
  C151     1.0000 0.07872  0.25600  0.61026  Biso   1.000  C
  C152     1.0000 0.92128  0.25600  0.88974  Biso   1.000  C
  C153     1.0000 0.43134  0.46370  0.15831  Biso   1.000  C
  C154     1.0000 0.56866  0.46370  0.34169  Biso   1.000  C
  C155     1.0000 0.93134  0.96370  0.15831  Biso   1.000  C
  C156     1.0000 0.06866  0.96370  0.34169  Biso   1.000  C
  C157     1.0000 0.56866  0.53630  0.84169  Biso   1.000  C
  C158     1.0000 0.43134  0.53630  0.65831  Biso   1.000  C
  C159     1.0000 0.06866  0.03630  0.84169  Biso   1.000  C
  C160     1.0000 0.93134  0.03630  0.65831  Biso   1.000  C
  C161     1.0000 0.42791  0.00350  0.16149  Biso   1.000  C
  C162     1.0000 0.57209  0.00350  0.33851  Biso   1.000  C
  C163     1.0000 0.92791  0.50350  0.16149  Biso   1.000  C
  C164     1.0000 0.07209  0.50350  0.33851  Biso   1.000  C
  C165     1.0000 0.57209  0.99650  0.83851  Biso   1.000  C
  C166     1.0000 0.42791  0.99650  0.66149  Biso   1.000  C
  C167     1.0000 0.07209  0.49650  0.83851  Biso   1.000  C
  C168     1.0000 0.92791  0.49650  0.66149  Biso   1.000  C
  C169     1.0000 0.42341  0.23770  0.30982  Biso   1.000  C
  C170     1.0000 0.57659  0.23770  0.19018  Biso   1.000  C
  C171     1.0000 0.92341  0.73770  0.30982  Biso   1.000  C
  C172     1.0000 0.07659  0.73770  0.19018  Biso   1.000  C
  C173     1.0000 0.57659  0.76230  0.69018  Biso   1.000  C
  C174     1.0000 0.42341  0.76230  0.80982  Biso   1.000  C
  C175     1.0000 0.07659  0.26230  0.69018  Biso   1.000  C
  C176     1.0000 0.92341  0.26230  0.80982  Biso   1.000  C
  C177     1.0000 0.42593  0.34610  0.27171  Biso   1.000  C
  C178     1.0000 0.57407  0.34610  0.22829  Biso   1.000  C
  C179     1.0000 0.92593  0.84610  0.27171  Biso   1.000  C
  C180     1.0000 0.07407  0.84610  0.22829  Biso   1.000  C
  C181     1.0000 0.57407  0.65390  0.72829  Biso   1.000  C
  C182     1.0000 0.42593  0.65390  0.77171  Biso   1.000  C
  C183     1.0000 0.07407  0.15390  0.72829  Biso   1.000  C
  C184     1.0000 0.92593  0.15390  0.77171  Biso   1.000  C
  H185     1.0000 0.42590  0.42180  0.29600  Biso   1.000  H
  H186     1.0000 0.57410  0.42180  0.20400  Biso   1.000  H
  H187     1.0000 0.92590  0.92180  0.29600  Biso   1.000  H
  H188     1.0000 0.07410  0.92180  0.20400  Biso   1.000  H
  H189     1.0000 0.57410  0.57820  0.70400  Biso   1.000  H
  H190     1.0000 0.42590  0.57820  0.79600  Biso   1.000  H
  H191     1.0000 0.07410  0.07820  0.70400  Biso   1.000  H
  H192     1.0000 0.92590  0.07820  0.79600  Biso   1.000  H
  C185     1.0000 0.42842  0.34480  0.19833  Biso   1.000  C
  C186     1.0000 0.57158  0.34480  0.30167  Biso   1.000  C
  C187     1.0000 0.92842  0.84480  0.19833  Biso   1.000  C
  C188     1.0000 0.07158  0.84480  0.30167  Biso   1.000  C
  C189     1.0000 0.57158  0.65520  0.80167  Biso   1.000  C
  C190     1.0000 0.42842  0.65520  0.69833  Biso   1.000  C
  C191     1.0000 0.07158  0.15520  0.80167  Biso   1.000  C
  C192     1.0000 0.92842  0.15520  0.69833  Biso   1.000  C
  C193     1.0000 0.42903  0.23350  0.16259  Biso   1.000  C
  C194     1.0000 0.57097  0.23350  0.33741  Biso   1.000  C
  C195     1.0000 0.92903  0.73350  0.16259  Biso   1.000  C
  C196     1.0000 0.07097  0.73350  0.33741  Biso   1.000  C
  C197     1.0000 0.57097  0.76650  0.83741  Biso   1.000  C
  C198     1.0000 0.42903  0.76650  0.66259  Biso   1.000  C
  C199     1.0000 0.07097  0.26650  0.83741  Biso   1.000  C
  C200     1.0000 0.92903  0.26650  0.66259  Biso   1.000  C
  H193     1.0000 0.43070  0.23200  0.11280  Biso   1.000  H
  H194     1.0000 0.56930  0.23200  0.38720  Biso   1.000  H
  H195     1.0000 0.93070  0.73200  0.11280  Biso   1.000  H
  H196     1.0000 0.06930  0.73200  0.38720  Biso   1.000  H
  H197     1.0000 0.56930  0.76800  0.88720  Biso   1.000  H
  H198     1.0000 0.43070  0.76800  0.61280  Biso   1.000  H
  H199     1.0000 0.06930  0.26800  0.88720  Biso   1.000  H
  H200     1.0000 0.93070  0.26800  0.61280  Biso   1.000  H
  C201     1.0000 0.42723  0.12400  0.20030  Biso   1.000  C
  C202     1.0000 0.57277  0.12400  0.29970  Biso   1.000  C
  C203     1.0000 0.92723  0.62400  0.20030  Biso   1.000  C
  C204     1.0000 0.07277  0.62400  0.29970  Biso   1.000  C
  C205     1.0000 0.57277  0.87600  0.79970  Biso   1.000  C
  C206     1.0000 0.42723  0.87600  0.70030  Biso   1.000  C
  C207     1.0000 0.07277  0.37600  0.79970  Biso   1.000  C
  C208     1.0000 0.92723  0.37600  0.70030  Biso   1.000  C
  C209     1.0000 0.42441  0.12700  0.27387  Biso   1.000  C
  C210     1.0000 0.57559  0.12700  0.22613  Biso   1.000  C
  C211     1.0000 0.92441  0.62700  0.27387  Biso   1.000  C
  C212     1.0000 0.07559  0.62700  0.22613  Biso   1.000  C
  C213     1.0000 0.57559  0.87300  0.72613  Biso   1.000  C
  C214     1.0000 0.42441  0.87300  0.77387  Biso   1.000  C
  C215     1.0000 0.07559  0.37300  0.72613  Biso   1.000  C
  C216     1.0000 0.92441  0.37300  0.77387  Biso   1.000  C
  H201     1.0000 0.42320  0.05290  0.29940  Biso   1.000  H
  H202     1.0000 0.57680  0.05290  0.20060  Biso   1.000  H
  H203     1.0000 0.92320  0.55290  0.29940  Biso   1.000  H
  H204     1.0000 0.07680  0.55290  0.20060  Biso   1.000  H
  H205     1.0000 0.57680  0.94710  0.70060  Biso   1.000  H
  H206     1.0000 0.42320  0.94710  0.79940  Biso   1.000  H
  H207     1.0000 0.07680  0.44710  0.70060  Biso   1.000  H
  H208     1.0000 0.92320  0.44710  0.79940  Biso   1.000  H
  Cu17     1.0000 0.44074  0.26516  0.68701  Biso   1.000  Cu
  Cu18     1.0000 0.55926  0.26516  0.81299  Biso   1.000  Cu
  Cu19     1.0000 0.94074  0.76516  0.68701  Biso   1.000  Cu
  Cu20     1.0000 0.05926  0.76516  0.81299  Biso   1.000  Cu
  Cu21     1.0000 0.55926  0.73484  0.31299  Biso   1.000  Cu
  Cu22     1.0000 0.44074  0.73484  0.18701  Biso   1.000  Cu
  Cu23     1.0000 0.05926  0.23484  0.31299  Biso   1.000  Cu
  Cu24     1.0000 0.94074  0.23484  0.18701  Biso   1.000  Cu
  H209     1.0000 0.38930  0.34420  0.57960  Biso   1.000  H
  H210     1.0000 0.61070  0.34420  0.92040  Biso   1.000  H
  H211     1.0000 0.88930  0.84420  0.57960  Biso   1.000  H
  H212     1.0000 0.11070  0.84420  0.92040  Biso   1.000  H
  H213     1.0000 0.61070  0.65580  0.42040  Biso   1.000  H
  H214     1.0000 0.38930  0.65580  0.07960  Biso   1.000  H
  H215     1.0000 0.11070  0.15580  0.42040  Biso   1.000  H
  H216     1.0000 0.88930  0.15580  0.07960  Biso   1.000  H
  O65      1.0000 0.49240  0.26210  0.78067  Biso   1.000  O
  O66      1.0000 0.50760  0.26210  0.71933  Biso   1.000  O
  O67      1.0000 0.99240  0.76210  0.78067  Biso   1.000  O
  O68      1.0000 0.00760  0.76210  0.71933  Biso   1.000  O
  O69      1.0000 0.50760  0.73790  0.21933  Biso   1.000  O
  O70      1.0000 0.49240  0.73790  0.28067  Biso   1.000  O
  O71      1.0000 0.00760  0.23790  0.21933  Biso   1.000  O
  O72      1.0000 0.99240  0.23790  0.28067  Biso   1.000  O
  H217     1.0000 0.51370  0.20070  0.78160  Biso   1.000  H
  H218     1.0000 0.48630  0.20070  0.71840  Biso   1.000  H
  H219     1.0000 0.01370  0.70070  0.78160  Biso   1.000  H
  H220     1.0000 0.98630  0.70070  0.71840  Biso   1.000  H
  H221     1.0000 0.48630  0.79930  0.21840  Biso   1.000  H
  H222     1.0000 0.51370  0.79930  0.28160  Biso   1.000  H
  H223     1.0000 0.98630  0.29930  0.21840  Biso   1.000  H
  H224     1.0000 0.01370  0.29930  0.28160  Biso   1.000  H
  H225     1.0000 0.51170  0.32500  0.79560  Biso   1.000  H
  H226     1.0000 0.48830  0.32500  0.70440  Biso   1.000  H
  H227     1.0000 0.01170  0.82500  0.79560  Biso   1.000  H
  H228     1.0000 0.98830  0.82500  0.70440  Biso   1.000  H
  H229     1.0000 0.48830  0.67500  0.20440  Biso   1.000  H
  H230     1.0000 0.51170  0.67500  0.29560  Biso   1.000  H
  H231     1.0000 0.98830  0.17500  0.20440  Biso   1.000  H
  H232     1.0000 0.01170  0.17500  0.29560  Biso   1.000  H
  N33      1.0000 0.50799  0.24210  0.62250  Biso   1.000  N
  N34      1.0000 0.49201  0.24210  0.87750  Biso   1.000  N
  N35      1.0000 0.00799  0.74210  0.62250  Biso   1.000  N
  N36      1.0000 0.99201  0.74210  0.87750  Biso   1.000  N
  N37      1.0000 0.49201  0.75790  0.37750  Biso   1.000  N
  N38      1.0000 0.50799  0.75790  0.12250  Biso   1.000  N
  N39      1.0000 0.99201  0.25790  0.37750  Biso   1.000  N
  N40      1.0000 0.00799  0.25790  0.12250  Biso   1.000  N
  C217     1.0000 0.56010  0.26940  0.64630  Biso   1.000  C
  C218     1.0000 0.43990  0.26940  0.85370  Biso   1.000  C
  C219     1.0000 0.06010  0.76940  0.64630  Biso   1.000  C
  C220     1.0000 0.93990  0.76940  0.85370  Biso   1.000  C
  C221     1.0000 0.43990  0.73060  0.35370  Biso   1.000  C
  C222     1.0000 0.56010  0.73060  0.14630  Biso   1.000  C
  C223     1.0000 0.93990  0.23060  0.35370  Biso   1.000  C
  C224     1.0000 0.06010  0.23060  0.14630  Biso   1.000  C
  H233     1.0000 0.57060  0.30600  0.69250  Biso   1.000  H
  H234     1.0000 0.42940  0.30600  0.80750  Biso   1.000  H
  H235     1.0000 0.07060  0.80600  0.69250  Biso   1.000  H
  H236     1.0000 0.92940  0.80600  0.80750  Biso   1.000  H
  H237     1.0000 0.42940  0.69400  0.30750  Biso   1.000  H
  H238     1.0000 0.57060  0.69400  0.19250  Biso   1.000  H
  H239     1.0000 0.92940  0.19400  0.30750  Biso   1.000  H
  H240     1.0000 0.07060  0.19400  0.19250  Biso   1.000  H
  C225     1.0000 0.58500  0.18190  0.54360  Biso   1.000  C
  C226     1.0000 0.41500  0.18190  0.95640  Biso   1.000  C
  C227     1.0000 0.08500  0.68190  0.54360  Biso   1.000  C
  C228     1.0000 0.91500  0.68190  0.95640  Biso   1.000  C
  C229     1.0000 0.41500  0.81810  0.45640  Biso   1.000  C
  C230     1.0000 0.58500  0.81810  0.04360  Biso   1.000  C
  C231     1.0000 0.91500  0.31810  0.45640  Biso   1.000  C
  C232     1.0000 0.08500  0.31810  0.04360  Biso   1.000  C
  H241     1.0000 0.61030  0.15260  0.51640  Biso   1.000  H
  H242     1.0000 0.38970  0.15260  0.98360  Biso   1.000  H
  H243     1.0000 0.11030  0.65260  0.51640  Biso   1.000  H
  H244     1.0000 0.88970  0.65260  0.98360  Biso   1.000  H
  H245     1.0000 0.38970  0.84740  0.48360  Biso   1.000  H
  H246     1.0000 0.61030  0.84740  0.01640  Biso   1.000  H
  H247     1.0000 0.88970  0.34740  0.48360  Biso   1.000  H
  H248     1.0000 0.11030  0.34740  0.01640  Biso   1.000  H
  C233     1.0000 0.52980  0.15700  0.51930  Biso   1.000  C
  C234     1.0000 0.47020  0.15700  0.98070  Biso   1.000  C
  C235     1.0000 0.02980  0.65700  0.51930  Biso   1.000  C
  C236     1.0000 0.97020  0.65700  0.98070  Biso   1.000  C
  C237     1.0000 0.47020  0.84300  0.48070  Biso   1.000  C
  C238     1.0000 0.52980  0.84300  0.01930  Biso   1.000  C
  C239     1.0000 0.97020  0.34300  0.48070  Biso   1.000  C
  C240     1.0000 0.02980  0.34300  0.01930  Biso   1.000  C
  H249     1.0000 0.51820  0.11840  0.47380  Biso   1.000  H
  H250     1.0000 0.48180  0.11840  0.02620  Biso   1.000  H
  H251     1.0000 0.01820  0.61840  0.47380  Biso   1.000  H
  H252     1.0000 0.98180  0.61840  0.02620  Biso   1.000  H
  H253     1.0000 0.48180  0.88160  0.52620  Biso   1.000  H
  H254     1.0000 0.51820  0.88160  0.97380  Biso   1.000  H
  H255     1.0000 0.98180  0.38160  0.52620  Biso   1.000  H
  H256     1.0000 0.01820  0.38160  0.97380  Biso   1.000  H
  O73      1.0000 0.38975  0.27190  0.59688  Biso   1.000  O
  O74      1.0000 0.61025  0.27190  0.90312  Biso   1.000  O
  O75      1.0000 0.88975  0.77190  0.59688  Biso   1.000  O
  O76      1.0000 0.11025  0.77190  0.90312  Biso   1.000  O
  O77      1.0000 0.61025  0.72810  0.40312  Biso   1.000  O
  O78      1.0000 0.38975  0.72810  0.09688  Biso   1.000  O
  O79      1.0000 0.11025  0.22810  0.40312  Biso   1.000  O
  O80      1.0000 0.88975  0.22810  0.09688  Biso   1.000  O
