data_image0
_cell_length_a       11.1208
_cell_length_b       11.5078
_cell_length_c       13.8841
_cell_angle_alpha    83.981
_cell_angle_beta     67.507
_cell_angle_gamma    62.065

_symmetry_space_group_name_H-M    "P 1"
_symmetry_int_tables_number       1

loop_
  _symmetry_equiv_pos_as_xyz
  'x, y, z'

loop_
  _atom_site_label
  _atom_site_occupancy
  _atom_site_fract_x
  _atom_site_fract_y
  _atom_site_fract_z
  _atom_site_thermal_displace_type
  _atom_site_B_iso_or_equiv
  _atom_site_type_symbol
  Cu1      1.0000 0.31127  0.93994  0.32959  Biso   1.000  Cu
  Cu2      1.0000 0.68873  0.06006  0.67041  Biso   1.000  Cu
  Cu3      1.0000 0.07996  0.84025  0.48897  Biso   1.000  Cu
  Cu4      1.0000 0.92004  0.15975  0.51103  Biso   1.000  Cu
  O1       1.0000 0.11100  0.96770  0.38990  Biso   1.000  O
  O2       1.0000 0.88900  0.03230  0.61010  Biso   1.000  O
  H1       1.0000 0.10000  0.94000  0.34160  Biso   1.000  H
  H2       1.0000 0.90000  0.06000  0.65840  Biso   1.000  H
  O3       1.0000 0.52330  0.87470  0.28090  Biso   1.000  O
  O4       1.0000 0.47670  0.12530  0.71910  Biso   1.000  O
  O5       1.0000 0.57660  0.70280  0.18680  Biso   1.000  O
  O6       1.0000 0.42340  0.29720  0.81320  Biso   1.000  O
  O7       1.0000 0.75880  0.45930  0.52380  Biso   1.000  O
  O8       1.0000 0.24120  0.54070  0.47620  Biso   1.000  O
  O9       1.0000 0.94110  0.28790  0.41070  Biso   1.000  O
  O10      1.0000 0.05890  0.71210  0.58930  Biso   1.000  O
  O11      1.0000 0.95820  0.80490  0.43840  Biso   1.000  O
  O12      1.0000 0.04180  0.19510  0.56160  Biso   1.000  O
  O13      1.0000 0.00860  0.87140  0.27820  Biso   1.000  O
  O14      1.0000 0.99140  0.12860  0.72180  Biso   1.000  O
  N1       1.0000 0.31720  0.89230  0.47610  Biso   1.000  N
  N2       1.0000 0.68280  0.10770  0.52390  Biso   1.000  N
  N3       1.0000 0.22070  0.85360  0.53980  Biso   1.000  N
  N4       1.0000 0.77930  0.14640  0.46020  Biso   1.000  N
  N5       1.0000 0.29980  0.10920  0.15840  Biso   1.000  N
  N6       1.0000 0.70020  0.89080  0.84160  Biso   1.000  N
  N7       1.0000 0.30520  0.99210  0.18690  Biso   1.000  N
  N8       1.0000 0.69480  0.00790  0.81310  Biso   1.000  N
  C1       1.0000 0.40870  0.90150  0.50900  Biso   1.000  C
  C2       1.0000 0.59130  0.09850  0.49100  Biso   1.000  C
  H3       1.0000 0.47400  0.93030  0.46370  Biso   1.000  H
  H4       1.0000 0.52600  0.06970  0.53630  Biso   1.000  H
  C3       1.0000 0.41410  0.87110  0.60630  Biso   1.000  C
  C4       1.0000 0.58590  0.12890  0.39370  Biso   1.000  C
  H5       1.0000 0.48190  0.87840  0.62550  Biso   1.000  H
  H6       1.0000 0.51810  0.12160  0.37450  Biso   1.000  H
  C5       1.0000 0.31720  0.82980  0.67460  Biso   1.000  C
  C6       1.0000 0.68280  0.17020  0.32540  Biso   1.000  C
  C7       1.0000 0.22060  0.82490  0.63470  Biso   1.000  C
  C8       1.0000 0.77940  0.17510  0.36530  Biso   1.000  C
  H7       1.0000 0.15130  0.79940  0.67850  Biso   1.000  H
  H8       1.0000 0.84870  0.20060  0.32150  Biso   1.000  H
  C9       1.0000 0.30080  0.13980  0.06460  Biso   1.000  C
  C10      1.0000 0.69920  0.86020  0.93540  Biso   1.000  C
  H9       1.0000 0.29530  0.22150  0.04550  Biso   1.000  H
  H10      1.0000 0.70470  0.77850  0.95450  Biso   1.000  H
  C11      1.0000 0.30960  0.05900  0.99080  Biso   1.000  C
  C12      1.0000 0.69040  0.94100  0.00920  Biso   1.000  C
  H11      1.0000 0.31230  0.08510  0.92460  Biso   1.000  H
  H12      1.0000 0.68770  0.91490  0.07540  Biso   1.000  H
  C13      1.0000 0.31400  0.93970  0.01990  Biso   1.000  C
  C14      1.0000 0.68600  0.06030  0.98010  Biso   1.000  C
  C15      1.0000 0.31080  0.91300  0.12110  Biso   1.000  C
  C16      1.0000 0.68920  0.08700  0.87890  Biso   1.000  C
  H13      1.0000 0.31260  0.83340  0.14390  Biso   1.000  H
  H14      1.0000 0.68740  0.16660  0.85610  Biso   1.000  H
  C17      1.0000 0.31710  0.78630  0.78110  Biso   1.000  C
  C18      1.0000 0.68290  0.21370  0.21890  Biso   1.000  C
  C19      1.0000 0.31280  0.88890  0.84550  Biso   1.000  C
  C20      1.0000 0.68720  0.11110  0.15450  Biso   1.000  C
  H15      1.0000 0.22310  0.97090  0.85650  Biso   1.000  H
  H16      1.0000 0.77690  0.02910  0.14350  Biso   1.000  H
  H17      1.0000 0.39540  0.90600  0.80700  Biso   1.000  H
  H18      1.0000 0.60460  0.09400  0.19300  Biso   1.000  H
  C21      1.0000 0.31900  0.84200  0.95160  Biso   1.000  C
  C22      1.0000 0.68100  0.15800  0.04840  Biso   1.000  C
  C23      1.0000 0.46320  0.70970  0.93110  Biso   1.000  C
  C24      1.0000 0.53680  0.29030  0.06890  Biso   1.000  C
  H19      1.0000 0.54750  0.72400  0.89160  Biso   1.000  H
  H20      1.0000 0.45250  0.27600  0.10840  Biso   1.000  H
  H21      1.0000 0.47020  0.67800  0.99720  Biso   1.000  H
  H22      1.0000 0.52980  0.32200  0.00280  Biso   1.000  H
  C25      1.0000 0.46410  0.60630  0.86970  Biso   1.000  C
  C26      1.0000 0.53590  0.39370  0.13030  Biso   1.000  C
  H23      1.0000 0.55440  0.52310  0.85870  Biso   1.000  H
  H24      1.0000 0.44560  0.47690  0.14130  Biso   1.000  H
  C27      1.0000 0.46090  0.65460  0.76360  Biso   1.000  C
  C28      1.0000 0.53910  0.34540  0.23640  Biso   1.000  C
  H25      1.0000 0.46460  0.58870  0.72280  Biso   1.000  H
  H26      1.0000 0.53540  0.41130  0.27720  Biso   1.000  H
  H27      1.0000 0.54590  0.66860  0.72530  Biso   1.000  H
  H28      1.0000 0.45410  0.33140  0.27470  Biso   1.000  H
  C29      1.0000 0.18510  0.76040  0.84290  Biso   1.000  C
  C30      1.0000 0.81490  0.23960  0.15710  Biso   1.000  C
  H29      1.0000 0.09410  0.84120  0.85420  Biso   1.000  H
  H30      1.0000 0.90590  0.15880  0.14580  Biso   1.000  H
  H31      1.0000 0.18690  0.69480  0.80310  Biso   1.000  H
  H32      1.0000 0.81310  0.30520  0.19690  Biso   1.000  H
  C31      1.0000 0.19170  0.71150  0.94780  Biso   1.000  C
  C32      1.0000 0.80830  0.28850  0.05220  Biso   1.000  C
  H33      1.0000 0.10660  0.69640  0.98670  Biso   1.000  H
  H34      1.0000 0.89340  0.30360  0.01330  Biso   1.000  H
  C33      1.0000 0.18650  0.81710  0.01070  Biso   1.000  C
  C34      1.0000 0.81350  0.18290  0.98930  Biso   1.000  C
  H35      1.0000 0.09610  0.89850  0.02190  Biso   1.000  H
  H36      1.0000 0.90390  0.10150  0.97810  Biso   1.000  H
  H37      1.0000 0.18760  0.78770  0.07860  Biso   1.000  H
  H38      1.0000 0.81240  0.21230  0.92140  Biso   1.000  H
  C35      1.0000 0.33130  0.58370  0.93210  Biso   1.000  C
  C36      1.0000 0.66870  0.41630  0.06790  Biso   1.000  C
  H39      1.0000 0.33320  0.51600  0.89460  Biso   1.000  H
  H40      1.0000 0.66680  0.48400  0.10540  Biso   1.000  H
  H41      1.0000 0.33460  0.55410  0.99950  Biso   1.000  H
  H42      1.0000 0.66540  0.44590  0.00050  Biso   1.000  H
  C37      1.0000 0.61150  0.75610  0.23550  Biso   1.000  C
  C38      1.0000 0.38850  0.24390  0.76450  Biso   1.000  C
  C39      1.0000 0.85760  0.41230  0.43700  Biso   1.000  C
  C40      1.0000 0.14240  0.58770  0.56300  Biso   1.000  C
  C41      1.0000 0.97170  0.79930  0.34320  Biso   1.000  C
  C42      1.0000 0.02830  0.20070  0.65680  Biso   1.000  C
  C43      1.0000 0.75760  0.68320  0.24930  Biso   1.000  C
  C44      1.0000 0.24240  0.31680  0.75070  Biso   1.000  C
  C45      1.0000 0.73960  0.58610  0.33380  Biso   1.000  C
  C46      1.0000 0.26040  0.41390  0.66620  Biso   1.000  C
  H43      1.0000 0.66050  0.63570  0.39860  Biso   1.000  H
  H44      1.0000 0.33950  0.36430  0.60140  Biso   1.000  H
  H45      1.0000 0.71370  0.52730  0.31090  Biso   1.000  H
  H46      1.0000 0.28630  0.47270  0.68910  Biso   1.000  H
  C47      1.0000 0.88400  0.50370  0.35330  Biso   1.000  C
  C48      1.0000 0.11600  0.49630  0.64670  Biso   1.000  C
  C49      1.0000 0.91870  0.60090  0.39230  Biso   1.000  C
  C50      1.0000 0.08130  0.39910  0.60770  Biso   1.000  C
  H47      1.0000 0.83930  0.64950  0.45730  Biso   1.000  H
  H48      1.0000 0.16070  0.35050  0.54270  Biso   1.000  H
  H49      1.0000 0.00820  0.55190  0.40590  Biso   1.000  H
  H50      1.0000 0.99180  0.44810  0.59410  Biso   1.000  H
  C51      1.0000 0.93780  0.69850  0.31040  Biso   1.000  C
  C52      1.0000 0.06220  0.30150  0.68960  Biso   1.000  C
  C53      1.0000 0.79540  0.77600  0.29010  Biso   1.000  C
  C54      1.0000 0.20460  0.22400  0.70990  Biso   1.000  C
  H51      1.0000 0.80630  0.83840  0.23920  Biso   1.000  H
  H52      1.0000 0.19370  0.16160  0.76080  Biso   1.000  H
  H53      1.0000 0.71530  0.82570  0.35460  Biso   1.000  H
  H54      1.0000 0.28470  0.17430  0.64540  Biso   1.000  H
  C55      1.0000 0.88290  0.60370  0.14800  Biso   1.000  C
  C56      1.0000 0.11710  0.39630  0.85200  Biso   1.000  C
  H55      1.0000 0.86010  0.54320  0.12370  Biso   1.000  H
  H56      1.0000 0.13990  0.45680  0.87630  Biso   1.000  H
  H57      1.0000 0.89520  0.66270  0.09420  Biso   1.000  H
  H58      1.0000 0.10480  0.33730  0.90580  Biso   1.000  H
  C57      1.0000 0.02430  0.52640  0.16870  Biso   1.000  C
  C58      1.0000 0.97570  0.47360  0.83130  Biso   1.000  C
  H59      1.0000 0.10500  0.47720  0.10310  Biso   1.000  H
  H60      1.0000 0.89500  0.52280  0.89690  Biso   1.000  H
  C59      1.0000 0.00930  0.42880  0.24950  Biso   1.000  C
  C60      1.0000 0.99070  0.57120  0.75050  Biso   1.000  C
  H61      1.0000 0.10080  0.37870  0.26040  Biso   1.000  H
  H62      1.0000 0.89920  0.62130  0.73960  Biso   1.000  H
  H63      1.0000 0.98860  0.36730  0.22430  Biso   1.000  H
  H64      1.0000 0.01140  0.63270  0.77570  Biso   1.000  H
  C61      1.0000 0.06280  0.61850  0.20900  Biso   1.000  C
  C62      1.0000 0.93720  0.38150  0.79100  Biso   1.000  C
  H65      1.0000 0.15280  0.56670  0.22160  Biso   1.000  H
  H66      1.0000 0.84720  0.43330  0.77840  Biso   1.000  H
  H67      1.0000 0.07900  0.67800  0.15660  Biso   1.000  H
  H68      1.0000 0.92100  0.32200  0.84340  Biso   1.000  H
  O15      1.0000 0.27680  0.14950  0.37180  Biso   1.000  O
  O16      1.0000 0.72320  0.85050  0.62820  Biso   1.000  O
  H69      1.0000 0.27090  0.18730  0.31660  Biso   1.000  H
  H70      1.0000 0.72910  0.81270  0.68340  Biso   1.000  H
  H71      1.0000 0.20270  0.19940  0.42410  Biso   1.000  H
  H72      1.0000 0.79730  0.80060  0.57590  Biso   1.000  H
  O17      1.0000 0.31850  0.68180  0.31170  Biso   1.000  O
  O18      1.0000 0.68150  0.31820  0.68830  Biso   1.000  O
  H73      1.0000 0.40290  0.67760  0.29280  Biso   1.000  H
  H74      1.0000 0.59710  0.32240  0.70720  Biso   1.000  H
  H75      1.0000 0.32430  0.60810  0.33330  Biso   1.000  H
  H76      1.0000 0.67570  0.39190  0.66670  Biso   1.000  H
  O19      1.0000 0.46400  0.56280  0.52250  Biso   1.000  O
  O20      1.0000 0.53600  0.43720  0.47750  Biso   1.000  O
