data_image0
_cell_length_a       8.394
_cell_length_b       9.819
_cell_length_c       10.884
_cell_angle_alpha    101.85
_cell_angle_beta     97.48
_cell_angle_gamma    112.6

_symmetry_space_group_name_H-M    "P 1"
_symmetry_int_tables_number       1

loop_
  _symmetry_equiv_pos_as_xyz
  'x, y, z'

loop_
  _atom_site_label
  _atom_site_occupancy
  _atom_site_fract_x
  _atom_site_fract_y
  _atom_site_fract_z
  _atom_site_thermal_displace_type
  _atom_site_B_iso_or_equiv
  _atom_site_type_symbol
  Cu1      1.0000 0.27000  0.08160  0.04660  Biso   1.000  Cu
  Cu2      1.0000 0.73000  0.91840  0.95340  Biso   1.000  Cu
  N1       1.0000 0.24930  0.42670  0.47570  Biso   1.000  N
  N2       1.0000 0.75070  0.57330  0.52430  Biso   1.000  N
  C1       1.0000 0.28270  0.31330  0.41530  Biso   1.000  C
  C2       1.0000 0.71730  0.68670  0.58470  Biso   1.000  C
  C3       1.0000 0.23860  0.26250  0.27690  Biso   1.000  C
  C4       1.0000 0.76140  0.73750  0.72310  Biso   1.000  C
  C5       1.0000 0.16210  0.34030  0.21230  Biso   1.000  C
  C6       1.0000 0.83790  0.65970  0.78770  Biso   1.000  C
  C7       1.0000 0.12280  0.45770  0.28200  Biso   1.000  C
  C8       1.0000 0.87720  0.54230  0.71800  Biso   1.000  C
  C9       1.0000 0.16880  0.49890  0.41450  Biso   1.000  C
  C10      1.0000 0.83120  0.50110  0.58550  Biso   1.000  C
  C11      1.0000 0.36620  0.23920  0.49210  Biso   1.000  C
  C12      1.0000 0.63380  0.76080  0.50790  Biso   1.000  C
  C13      1.0000 0.12060  0.30340  0.07100  Biso   1.000  C
  C14      1.0000 0.87940  0.69660  0.92900  Biso   1.000  C
  C15      1.0000 0.03570  0.54190  0.21600  Biso   1.000  C
  C16      1.0000 0.96430  0.45810  0.78400  Biso   1.000  C
  O1       1.0000 0.27480  0.15240  0.22390  Biso   1.000  O
  O2       1.0000 0.72520  0.84760  0.77610  Biso   1.000  O
  O3       1.0000 0.86720  0.43490  0.12820  Biso   1.000  O
  O4       1.0000 0.13280  0.56510  0.87180  Biso   1.000  O
  N3       1.0000 0.15460  0.20530  0.99710  Biso   1.000  N
  N4       1.0000 0.84540  0.79470  0.00290  Biso   1.000  N
  C17      1.0000 0.10850  0.17750  0.85660  Biso   1.000  C
  C18      1.0000 0.89150  0.82250  0.14340  Biso   1.000  C
  C19      1.0000 0.14550  0.04520  0.78670  Biso   1.000  C
  C20      1.0000 0.85450  0.95480  0.21330  Biso   1.000  C
  O5       1.0000 0.22050  0.98830  0.85960  Biso   1.000  O
  O6       1.0000 0.77950  0.01170  0.14040  Biso   1.000  O
  O7       1.0000 0.10270  0.00200  0.67000  Biso   1.000  O
  O8       1.0000 0.89730  0.99800  0.33000  Biso   1.000  O
  P1       1.0000 0.69130  0.36030  0.18030  Biso   1.000  P
  P2       1.0000 0.30870  0.63970  0.81970  Biso   1.000  P
  O9       1.0000 0.55430  0.25910  0.05920  Biso   1.000  O
  O10      1.0000 0.44570  0.74090  0.94080  Biso   1.000  O
  O11      1.0000 0.73280  0.26570  0.26850  Biso   1.000  O
  O12      1.0000 0.26720  0.73430  0.73150  Biso   1.000  O
  O13      1.0000 0.66040  0.48530  0.26210  Biso   1.000  O
  O14      1.0000 0.33960  0.51470  0.73790  Biso   1.000  O
  O15      1.0000 0.32470  0.92080  0.08790  Biso   1.000  O
  O16      1.0000 0.67530  0.07920  0.91210  Biso   1.000  O
  O17      1.0000 0.53960  0.35440  0.82750  Biso   1.000  O
  O18      1.0000 0.46040  0.64560  0.17250  Biso   1.000  O
  O19      1.0000 0.42460  0.90250  0.32450  Biso   1.000  O
  O20      1.0000 0.57540  0.09750  0.67550  Biso   1.000  O
  O21      1.0000 0.12340  0.84770  0.44490  Biso   1.000  O
  O22      1.0000 0.87660  0.15230  0.55510  Biso   1.000  O
  H1       1.0000 0.28870  0.46150  0.57940  Biso   1.000  H
  H2       1.0000 0.71130  0.53850  0.42060  Biso   1.000  H
  H3       1.0000 0.28870  0.19050  0.55180  Biso   1.000  H
  H4       1.0000 0.71130  0.80950  0.44820  Biso   1.000  H
  H5       1.0000 0.38980  0.15180  0.42670  Biso   1.000  H
  H6       1.0000 0.61020  0.84820  0.57330  Biso   1.000  H
  H7       1.0000 0.49750  0.32450  0.54950  Biso   1.000  H
  H8       1.0000 0.50250  0.67550  0.45050  Biso   1.000  H
  H9       1.0000 0.14040  0.58780  0.47010  Biso   1.000  H
  H10      1.0000 0.85960  0.41220  0.52990  Biso   1.000  H
  H11      1.0000 0.05960  0.36740  0.03200  Biso   1.000  H
  H12      1.0000 0.94040  0.63260  0.96800  Biso   1.000  H
  H13      1.0000 0.12880  0.66530  0.24210  Biso   1.000  H
  H14      1.0000 0.87120  0.33470  0.75790  Biso   1.000  H
  H15      1.0000 0.94640  0.54360  0.28240  Biso   1.000  H
  H16      1.0000 0.05360  0.45640  0.71760  Biso   1.000  H
  H17      1.0000 0.17810  0.27900  0.82950  Biso   1.000  H
  H18      1.0000 0.82190  0.72100  0.17050  Biso   1.000  H
  H19      1.0000 0.96740  0.14800  0.82670  Biso   1.000  H
  H20      1.0000 0.03260  0.85200  0.17330  Biso   1.000  H
  H21      1.0000 0.77350  0.18330  0.22500  Biso   1.000  H
  H22      1.0000 0.22650  0.81670  0.77500  Biso   1.000  H
