data_image0
_cell_length_a       9.8505
_cell_length_b       12.6846
_cell_length_c       8.7731
_cell_angle_alpha    90
_cell_angle_beta     95.127
_cell_angle_gamma    90

_symmetry_space_group_name_H-M    "P 1"
_symmetry_int_tables_number       1

loop_
  _symmetry_equiv_pos_as_xyz
  'x, y, z'

loop_
  _atom_site_label
  _atom_site_occupancy
  _atom_site_fract_x
  _atom_site_fract_y
  _atom_site_fract_z
  _atom_site_thermal_displace_type
  _atom_site_B_iso_or_equiv
  _atom_site_type_symbol
  Cu1      1.0000 0.00000  0.00000  0.50000  Biso   1.000  Cu
  Cu2      1.0000 0.00000  0.50000  0.00000  Biso   1.000  Cu
  O1       1.0000 0.00845  0.00150  0.72288  Biso   1.000  O
  O2       1.0000 0.99155  0.50150  0.77712  Biso   1.000  O
  O3       1.0000 0.99155  0.99850  0.27712  Biso   1.000  O
  O4       1.0000 0.00845  0.49850  0.22288  Biso   1.000  O
  O5       1.0000 0.05487  0.17087  0.77636  Biso   1.000  O
  O6       1.0000 0.94513  0.67087  0.72364  Biso   1.000  O
  O7       1.0000 0.94513  0.82913  0.22364  Biso   1.000  O
  O8       1.0000 0.05487  0.32913  0.27636  Biso   1.000  O
  O9       1.0000 0.14432  0.16663  0.48891  Biso   1.000  O
  O10      1.0000 0.85568  0.66663  0.01109  Biso   1.000  O
  O11      1.0000 0.85568  0.83337  0.51109  Biso   1.000  O
  O12      1.0000 0.14432  0.33337  0.98891  Biso   1.000  O
  N1       1.0000 0.82388  0.08025  0.48699  Biso   1.000  N
  N2       1.0000 0.17612  0.58025  0.01301  Biso   1.000  N
  N3       1.0000 0.17612  0.91975  0.51301  Biso   1.000  N
  N4       1.0000 0.82388  0.41975  0.98699  Biso   1.000  N
  N5       1.0000 0.50242  0.38896  0.47225  Biso   1.000  N
  N6       1.0000 0.49758  0.88896  0.02775  Biso   1.000  N
  N7       1.0000 0.49758  0.61104  0.52775  Biso   1.000  N
  N8       1.0000 0.50242  0.11104  0.97225  Biso   1.000  N
  C1       1.0000 0.81233  0.17033  0.40835  Biso   1.000  C
  C2       1.0000 0.18767  0.67033  0.09165  Biso   1.000  C
  C3       1.0000 0.18767  0.82967  0.59165  Biso   1.000  C
  C4       1.0000 0.81233  0.32967  0.90835  Biso   1.000  C
  H1       1.0000 0.88210  0.18950  0.34920  Biso   1.000  H
  H2       1.0000 0.11790  0.68950  0.15080  Biso   1.000  H
  H3       1.0000 0.11790  0.81050  0.65080  Biso   1.000  H
  H4       1.0000 0.88210  0.31050  0.84920  Biso   1.000  H
  C5       1.0000 0.70099  0.23629  0.41125  Biso   1.000  C
  C6       1.0000 0.29901  0.73629  0.08875  Biso   1.000  C
  C7       1.0000 0.29901  0.76371  0.58875  Biso   1.000  C
  C8       1.0000 0.70099  0.26371  0.91125  Biso   1.000  C
  H5       1.0000 0.69740  0.29890  0.35580  Biso   1.000  H
  H6       1.0000 0.30260  0.79890  0.14420  Biso   1.000  H
  H7       1.0000 0.30260  0.70110  0.64420  Biso   1.000  H
  H8       1.0000 0.69740  0.20110  0.85580  Biso   1.000  H
  C9       1.0000 0.59449  0.20905  0.49699  Biso   1.000  C
  C10      1.0000 0.40551  0.70905  0.00301  Biso   1.000  C
  C11      1.0000 0.40551  0.79095  0.50301  Biso   1.000  C
  C12      1.0000 0.59449  0.29095  0.99699  Biso   1.000  C
  C13      1.0000 0.60537  0.11356  0.57469  Biso   1.000  C
  C14      1.0000 0.39463  0.61356  0.92531  Biso   1.000  C
  C15      1.0000 0.39463  0.88644  0.42531  Biso   1.000  C
  C16      1.0000 0.60537  0.38644  0.07469  Biso   1.000  C
  H9       1.0000 0.53540  0.09120  0.63140  Biso   1.000  H
  H10      1.0000 0.46460  0.59120  0.86860  Biso   1.000  H
  H11      1.0000 0.46460  0.90880  0.36860  Biso   1.000  H
  H12      1.0000 0.53540  0.40880  0.13140  Biso   1.000  H
  C17      1.0000 0.71978  0.05213  0.56769  Biso   1.000  C
  C18      1.0000 0.28022  0.55213  0.93231  Biso   1.000  C
  C19      1.0000 0.28022  0.94787  0.43231  Biso   1.000  C
  C20      1.0000 0.71978  0.44787  0.06769  Biso   1.000  C
  H13      1.0000 0.72540  0.98860  0.62090  Biso   1.000  H
  H14      1.0000 0.27460  0.48860  0.87910  Biso   1.000  H
  H15      1.0000 0.27460  0.01140  0.37910  Biso   1.000  H
  H16      1.0000 0.72540  0.51140  0.12090  Biso   1.000  H
  C21      1.0000 0.47195  0.27922  0.50480  Biso   1.000  C
  C22      1.0000 0.52805  0.77922  0.99520  Biso   1.000  C
  C23      1.0000 0.52805  0.72078  0.49520  Biso   1.000  C
  C24      1.0000 0.47195  0.22078  0.00480  Biso   1.000  C
  H17      1.0000 0.39920  0.25480  0.43160  Biso   1.000  H
  H18      1.0000 0.60080  0.75480  0.06840  Biso   1.000  H
  H19      1.0000 0.60080  0.74520  0.56840  Biso   1.000  H
  H20      1.0000 0.39920  0.24520  0.93160  Biso   1.000  H
  H21      1.0000 0.44030  0.27440  0.60610  Biso   1.000  H
  H22      1.0000 0.55970  0.77440  0.89390  Biso   1.000  H
  H23      1.0000 0.55970  0.72560  0.39390  Biso   1.000  H
  H24      1.0000 0.44030  0.22560  0.10610  Biso   1.000  H
  C25      1.0000 0.58788  0.43752  0.59734  Biso   1.000  C
  C26      1.0000 0.41212  0.93752  0.90266  Biso   1.000  C
  C27      1.0000 0.41212  0.56248  0.40266  Biso   1.000  C
  C28      1.0000 0.58788  0.06248  0.09734  Biso   1.000  C
  H25      1.0000 0.67110  0.39700  0.61710  Biso   1.000  H
  H26      1.0000 0.32890  0.89700  0.88290  Biso   1.000  H
  H27      1.0000 0.32890  0.60300  0.38290  Biso   1.000  H
  H28      1.0000 0.67110  0.10300  0.11710  Biso   1.000  H
  H29      1.0000 0.54030  0.43680  0.68940  Biso   1.000  H
  H30      1.0000 0.45970  0.93680  0.81060  Biso   1.000  H
  H31      1.0000 0.45970  0.56320  0.31060  Biso   1.000  H
  H32      1.0000 0.54030  0.06320  0.18940  Biso   1.000  H
  C29      1.0000 0.37731  0.45062  0.44120  Biso   1.000  C
  C30      1.0000 0.62269  0.95062  0.05880  Biso   1.000  C
  C31      1.0000 0.62269  0.54938  0.55880  Biso   1.000  C
  C32      1.0000 0.37731  0.04938  0.94120  Biso   1.000  C
  H33      1.0000 0.32570  0.44980  0.53030  Biso   1.000  H
  H34      1.0000 0.67430  0.94980  0.96970  Biso   1.000  H
  H35      1.0000 0.67430  0.55020  0.46970  Biso   1.000  H
  H36      1.0000 0.32570  0.05020  0.03030  Biso   1.000  H
  H37      1.0000 0.32130  0.41950  0.35630  Biso   1.000  H
  H38      1.0000 0.67870  0.91950  0.14370  Biso   1.000  H
  H39      1.0000 0.67870  0.58050  0.64370  Biso   1.000  H
  H40      1.0000 0.32130  0.08050  0.85630  Biso   1.000  H
  C33      1.0000 0.02390  0.07950  0.81299  Biso   1.000  C
  C34      1.0000 0.97610  0.57950  0.68701  Biso   1.000  C
  C35      1.0000 0.97610  0.92050  0.18701  Biso   1.000  C
  C36      1.0000 0.02390  0.42050  0.31299  Biso   1.000  C
  C37      1.0000 0.99988  0.05793  0.97862  Biso   1.000  C
  C38      1.0000 0.00012  0.55793  0.52138  Biso   1.000  C
  C39      1.0000 0.00012  0.94207  0.02138  Biso   1.000  C
  C40      1.0000 0.99988  0.44207  0.47862  Biso   1.000  C
  H41      1.0000 0.07000  0.09360  0.04410  Biso   1.000  H
  H42      1.0000 0.93000  0.59360  0.45590  Biso   1.000  H
  H43      1.0000 0.93000  0.90640  0.95590  Biso   1.000  H
  H44      1.0000 0.07000  0.40640  0.54410  Biso   1.000  H
  H45      1.0000 0.91280  0.08810  0.99880  Biso   1.000  H
  H46      1.0000 0.08720  0.58810  0.50120  Biso   1.000  H
  H47      1.0000 0.08720  0.91190  0.00120  Biso   1.000  H
  H48      1.0000 0.91280  0.41190  0.49880  Biso   1.000  H
  H49      1.0000 0.11900  0.21640  0.43470  Biso   1.000  H
  H50      1.0000 0.88100  0.71640  0.06530  Biso   1.000  H
  H51      1.0000 0.88100  0.78360  0.56530  Biso   1.000  H
  H52      1.0000 0.11900  0.28360  0.93470  Biso   1.000  H
  H53      1.0000 0.12300  0.18080  0.57960  Biso   1.000  H
  H54      1.0000 0.87700  0.68080  0.92040  Biso   1.000  H
  H55      1.0000 0.87700  0.81920  0.42040  Biso   1.000  H
  H56      1.0000 0.12300  0.31920  0.07960  Biso   1.000  H
