data_image0
_cell_length_a       9.7737
_cell_length_b       7.9812
_cell_length_c       12.9258
_cell_angle_alpha    90
_cell_angle_beta     90.0211
_cell_angle_gamma    90

_symmetry_space_group_name_H-M    "P 1"
_symmetry_int_tables_number       1

loop_
  _symmetry_equiv_pos_as_xyz
  'x, y, z'

loop_
  _atom_site_label
  _atom_site_occupancy
  _atom_site_fract_x
  _atom_site_fract_y
  _atom_site_fract_z
  _atom_site_thermal_displace_type
  _atom_site_B_iso_or_equiv
  _atom_site_type_symbol
  C1       1.0000 0.28570  0.56510  0.14730  Biso   1.000  C
  C2       1.0000 0.71430  0.56510  0.35270  Biso   1.000  C
  C3       1.0000 0.71430  0.43490  0.85270  Biso   1.000  C
  C4       1.0000 0.28570  0.43490  0.64730  Biso   1.000  C
  C5       1.0000 0.37440  0.64530  0.06486  Biso   1.000  C
  C6       1.0000 0.62560  0.64530  0.43514  Biso   1.000  C
  C7       1.0000 0.62560  0.35470  0.93514  Biso   1.000  C
  C8       1.0000 0.37440  0.35470  0.56486  Biso   1.000  C
  C9       1.0000 0.35960  0.62080  0.95890  Biso   1.000  C
  C10      1.0000 0.64040  0.62080  0.54110  Biso   1.000  C
  C11      1.0000 0.64040  0.37920  0.04110  Biso   1.000  C
  C12      1.0000 0.35960  0.37920  0.45890  Biso   1.000  C
  H1       1.0000 0.28910  0.55480  0.93300  Biso   1.000  H
  H2       1.0000 0.71090  0.55480  0.56700  Biso   1.000  H
  H3       1.0000 0.71090  0.44520  0.06700  Biso   1.000  H
  H4       1.0000 0.28910  0.44520  0.43300  Biso   1.000  H
  C13      1.0000 0.45170  0.69630  0.89320  Biso   1.000  C
  C14      1.0000 0.54830  0.69630  0.60680  Biso   1.000  C
  C15      1.0000 0.54830  0.30370  0.10680  Biso   1.000  C
  C16      1.0000 0.45170  0.30370  0.39320  Biso   1.000  C
  H5       1.0000 0.44390  0.68050  0.82210  Biso   1.000  H
  H6       1.0000 0.55610  0.68050  0.67790  Biso   1.000  H
  H7       1.0000 0.55610  0.31950  0.17790  Biso   1.000  H
  H8       1.0000 0.44390  0.31950  0.32210  Biso   1.000  H
  C17      1.0000 0.55720  0.79690  0.93270  Biso   1.000  C
  C18      1.0000 0.44280  0.79690  0.56730  Biso   1.000  C
  C19      1.0000 0.44280  0.20310  0.06730  Biso   1.000  C
  C20      1.0000 0.55720  0.20310  0.43270  Biso   1.000  C
  H9       1.0000 0.62030  0.84760  0.88890  Biso   1.000  H
  H10      1.0000 0.37970  0.84760  0.61110  Biso   1.000  H
  H11      1.0000 0.37970  0.15240  0.11110  Biso   1.000  H
  H12      1.0000 0.62030  0.15240  0.38890  Biso   1.000  H
  C21      1.0000 0.56440  0.81860  0.03940  Biso   1.000  C
  C22      1.0000 0.43560  0.81860  0.46060  Biso   1.000  C
  C23      1.0000 0.43560  0.18140  0.96060  Biso   1.000  C
  C24      1.0000 0.56440  0.18140  0.53940  Biso   1.000  C
  C25      1.0000 0.66930  0.92690  0.09500  Biso   1.000  C
  C26      1.0000 0.33070  0.92690  0.40500  Biso   1.000  C
  C27      1.0000 0.33070  0.07310  0.90500  Biso   1.000  C
  C28      1.0000 0.66930  0.07310  0.59500  Biso   1.000  C
  Cu1      1.0000 0.50000  0.75555  0.25000  Biso   1.000  Cu
  Cu2      1.0000 0.50000  0.24445  0.75000  Biso   1.000  Cu
  H13      1.0000 0.98300  0.74900  0.13000  Biso   1.000  H
  H14      1.0000 0.01700  0.74900  0.37000  Biso   1.000  H
  H15      1.0000 0.01700  0.25100  0.87000  Biso   1.000  H
  H16      1.0000 0.98300  0.25100  0.63000  Biso   1.000  H
  H17      1.0000 0.02500  0.18300  0.12800  Biso   1.000  H
  H18      1.0000 0.97500  0.18300  0.37200  Biso   1.000  H
  H19      1.0000 0.97500  0.81700  0.87200  Biso   1.000  H
  H20      1.0000 0.02500  0.81700  0.62800  Biso   1.000  H
  H21      1.0000 0.83900  0.65800  0.18700  Biso   1.000  H
  H22      1.0000 0.16100  0.65800  0.31300  Biso   1.000  H
  H23      1.0000 0.16100  0.34200  0.81300  Biso   1.000  H
  H24      1.0000 0.83900  0.34200  0.68700  Biso   1.000  H
  H25      1.0000 0.86900  0.17700  0.10000  Biso   1.000  H
  H26      1.0000 0.13100  0.17700  0.40000  Biso   1.000  H
  H27      1.0000 0.13100  0.82300  0.90000  Biso   1.000  H
  H28      1.0000 0.86900  0.82300  0.60000  Biso   1.000  H
  N1       1.0000 0.47420  0.74310  0.10200  Biso   1.000  N
  N2       1.0000 0.52580  0.74310  0.39800  Biso   1.000  N
  N3       1.0000 0.52580  0.25690  0.89800  Biso   1.000  N
  N4       1.0000 0.47420  0.25690  0.60200  Biso   1.000  N
  Na1      1.0000 0.00000  0.43831  0.25000  Biso   1.000  Na
  Na2      1.0000 0.00000  0.56169  0.75000  Biso   1.000  Na
  Na3      1.0000 0.00000  0.50000  0.00000  Biso   1.000  Na
  Na4      1.0000 0.00000  0.50000  0.50000  Biso   1.000  Na
  O1       1.0000 0.32730  0.58280  0.23873  Biso   1.000  O
  O2       1.0000 0.67270  0.58280  0.26127  Biso   1.000  O
  O3       1.0000 0.67270  0.41720  0.76127  Biso   1.000  O
  O4       1.0000 0.32730  0.41720  0.73873  Biso   1.000  O
  O5       1.0000 0.18130  0.48830  0.11969  Biso   1.000  O
  O6       1.0000 0.81870  0.48830  0.38031  Biso   1.000  O
  O7       1.0000 0.81870  0.51170  0.88031  Biso   1.000  O
  O8       1.0000 0.18130  0.51170  0.61969  Biso   1.000  O
  O9       1.0000 0.65750  0.93070  0.19196  Biso   1.000  O
  O10      1.0000 0.34250  0.93070  0.30804  Biso   1.000  O
  O11      1.0000 0.34250  0.06930  0.80804  Biso   1.000  O
  O12      1.0000 0.65750  0.06930  0.69196  Biso   1.000  O
  O13      1.0000 0.75400  0.00350  0.04177  Biso   1.000  O
  O14      1.0000 0.24600  0.00350  0.45823  Biso   1.000  O
  O15      1.0000 0.24600  0.99650  0.95823  Biso   1.000  O
  O16      1.0000 0.75400  0.99650  0.54177  Biso   1.000  O
  O17      1.0000 0.91400  0.66490  0.14004  Biso   1.000  O
  O18      1.0000 0.08600  0.66490  0.35996  Biso   1.000  O
  O19      1.0000 0.08600  0.33510  0.85996  Biso   1.000  O
  O20      1.0000 0.91400  0.33510  0.64004  Biso   1.000  O
  O21      1.0000 0.94470  0.24440  0.11400  Biso   1.000  O
  O22      1.0000 0.05530  0.24440  0.38600  Biso   1.000  O
  O23      1.0000 0.05530  0.75560  0.88600  Biso   1.000  O
  O24      1.0000 0.94470  0.75560  0.61400  Biso   1.000  O
  H29      1.0000 0.83500  0.07600  0.91000  Biso   1.000  H
  H30      1.0000 0.16500  0.07600  0.59000  Biso   1.000  H
  H31      1.0000 0.16500  0.92400  0.09000  Biso   1.000  H
  H32      1.0000 0.83500  0.92400  0.41000  Biso   1.000  H
  H33      1.0000 0.80300  0.02900  0.80000  Biso   1.000  H
  H34      1.0000 0.19700  0.02900  0.70000  Biso   1.000  H
  H35      1.0000 0.19700  0.97100  0.20000  Biso   1.000  H
  H36      1.0000 0.80300  0.97100  0.30000  Biso   1.000  H
  O25      1.0000 0.87680  0.04410  0.84790  Biso   1.000  O
  O26      1.0000 0.12320  0.04410  0.65210  Biso   1.000  O
  O27      1.0000 0.12320  0.95590  0.15210  Biso   1.000  O
  O28      1.0000 0.87680  0.95590  0.34790  Biso   1.000  O
