data_image0
_cell_length_a       9.7626
_cell_length_b       7.9756
_cell_length_c       12.9066
_cell_angle_alpha    90
_cell_angle_beta     90.066
_cell_angle_gamma    90

_symmetry_space_group_name_H-M    "P 1"
_symmetry_int_tables_number       1

loop_
  _symmetry_equiv_pos_as_xyz
  'x, y, z'

loop_
  _atom_site_label
  _atom_site_occupancy
  _atom_site_fract_x
  _atom_site_fract_y
  _atom_site_fract_z
  _atom_site_thermal_displace_type
  _atom_site_B_iso_or_equiv
  _atom_site_type_symbol
  C1       1.0000 0.71474  0.06440  0.64706  Biso   1.000  C
  C2       1.0000 0.28526  0.06440  0.85294  Biso   1.000  C
  C3       1.0000 0.28526  0.93560  0.35294  Biso   1.000  C
  C4       1.0000 0.71474  0.93560  0.14706  Biso   1.000  C
  C5       1.0000 0.33100  0.42670  0.59484  Biso   1.000  C
  C6       1.0000 0.66900  0.42670  0.90516  Biso   1.000  C
  C7       1.0000 0.66900  0.57330  0.40516  Biso   1.000  C
  C8       1.0000 0.33100  0.57330  0.09484  Biso   1.000  C
  C9       1.0000 0.43581  0.31850  0.53903  Biso   1.000  C
  C10      1.0000 0.56419  0.31850  0.96097  Biso   1.000  C
  C11      1.0000 0.56419  0.68150  0.46097  Biso   1.000  C
  C12      1.0000 0.43581  0.68150  0.03903  Biso   1.000  C
  C13      1.0000 0.44320  0.29590  0.43290  Biso   1.000  C
  C14      1.0000 0.55680  0.29590  0.06710  Biso   1.000  C
  C15      1.0000 0.55680  0.70410  0.56710  Biso   1.000  C
  C16      1.0000 0.44320  0.70410  0.93290  Biso   1.000  C
  C17      1.0000 0.54800  0.19710  0.39346  Biso   1.000  C
  C18      1.0000 0.45200  0.19710  0.10654  Biso   1.000  C
  C19      1.0000 0.45200  0.80290  0.60654  Biso   1.000  C
  C20      1.0000 0.54800  0.80290  0.89346  Biso   1.000  C
  C21      1.0000 0.63980  0.12110  0.45936  Biso   1.000  C
  C22      1.0000 0.36020  0.12110  0.04064  Biso   1.000  C
  C23      1.0000 0.36020  0.87890  0.54064  Biso   1.000  C
  C24      1.0000 0.63980  0.87890  0.95936  Biso   1.000  C
  C25      1.0000 0.62575  0.14530  0.56456  Biso   1.000  C
  C26      1.0000 0.37425  0.14530  0.93544  Biso   1.000  C
  C27      1.0000 0.37425  0.85470  0.43544  Biso   1.000  C
  C28      1.0000 0.62575  0.85470  0.06456  Biso   1.000  C
  N1       1.0000 0.52545  0.24310  0.60210  Biso   1.000  N
  N2       1.0000 0.47455  0.24310  0.89790  Biso   1.000  N
  N3       1.0000 0.47455  0.75690  0.39790  Biso   1.000  N
  N4       1.0000 0.52545  0.75690  0.10210  Biso   1.000  N
  O1       1.0000 0.08600  0.16340  0.63972  Biso   1.000  O
  O2       1.0000 0.91400  0.16340  0.86028  Biso   1.000  O
  O3       1.0000 0.91400  0.83660  0.36028  Biso   1.000  O
  O4       1.0000 0.08600  0.83660  0.13972  Biso   1.000  O
  O5       1.0000 0.05510  0.74490  0.61452  Biso   1.000  O
  O6       1.0000 0.94490  0.74490  0.88548  Biso   1.000  O
  O7       1.0000 0.94490  0.25510  0.38548  Biso   1.000  O
  O8       1.0000 0.05510  0.25510  0.11452  Biso   1.000  O
  O9       1.0000 0.87770  0.45520  0.65205  Biso   1.000  O
  O10      1.0000 0.12230  0.45520  0.84795  Biso   1.000  O
  O11      1.0000 0.12230  0.54480  0.34795  Biso   1.000  O
  O12      1.0000 0.87770  0.54480  0.15205  Biso   1.000  O
  O13      1.0000 0.67285  0.08250  0.73904  Biso   1.000  O
  O14      1.0000 0.32715  0.08250  0.76096  Biso   1.000  O
  O15      1.0000 0.32715  0.91750  0.26096  Biso   1.000  O
  O16      1.0000 0.67285  0.91750  0.23904  Biso   1.000  O
  O17      1.0000 0.81861  0.98850  0.61979  Biso   1.000  O
  O18      1.0000 0.18139  0.98850  0.88021  Biso   1.000  O
  O19      1.0000 0.18139  0.01150  0.38021  Biso   1.000  O
  O20      1.0000 0.81861  0.01150  0.11979  Biso   1.000  O
  O21      1.0000 0.34195  0.43050  0.69235  Biso   1.000  O
  O22      1.0000 0.65805  0.43050  0.80765  Biso   1.000  O
  O23      1.0000 0.65805  0.56950  0.30765  Biso   1.000  O
  O24      1.0000 0.34195  0.56950  0.19235  Biso   1.000  O
  O25      1.0000 0.24580  0.50300  0.54196  Biso   1.000  O
  O26      1.0000 0.75420  0.50300  0.95804  Biso   1.000  O
  O27      1.0000 0.75420  0.49700  0.45804  Biso   1.000  O
  O28      1.0000 0.24580  0.49700  0.04196  Biso   1.000  O
  Cu1      1.0000 0.50000  0.25541  0.75000  Biso   1.000  Cu
  Cu2      1.0000 0.50000  0.74459  0.25000  Biso   1.000  Cu
  Na1      1.0000 0.00000  0.00000  0.50000  Biso   1.000  Na
  Na2      1.0000 0.00000  0.00000  0.00000  Biso   1.000  Na
  Na3      1.0000 0.00000  0.93825  0.75000  Biso   1.000  Na
  Na4      1.0000 0.00000  0.06175  0.25000  Biso   1.000  Na
  H1       1.0000 0.15100  0.17200  0.66900  Biso   1.000  H
  H2       1.0000 0.84900  0.17200  0.83100  Biso   1.000  H
  H3       1.0000 0.84900  0.82800  0.33100  Biso   1.000  H
  H4       1.0000 0.15100  0.82800  0.16900  Biso   1.000  H
  H5       1.0000 0.04100  0.23900  0.63400  Biso   1.000  H
  H6       1.0000 0.95900  0.23900  0.86600  Biso   1.000  H
  H7       1.0000 0.95900  0.76100  0.36600  Biso   1.000  H
  H8       1.0000 0.04100  0.76100  0.13400  Biso   1.000  H
  H9       1.0000 0.11100  0.68600  0.60100  Biso   1.000  H
  H10      1.0000 0.88900  0.68600  0.89900  Biso   1.000  H
  H11      1.0000 0.88900  0.31400  0.39900  Biso   1.000  H
  H12      1.0000 0.11100  0.31400  0.10100  Biso   1.000  H
  H13      1.0000 0.99600  0.68100  0.62400  Biso   1.000  H
  H14      1.0000 0.00400  0.68100  0.87600  Biso   1.000  H
  H15      1.0000 0.00400  0.31900  0.37600  Biso   1.000  H
  H16      1.0000 0.99600  0.31900  0.12400  Biso   1.000  H
  H17      1.0000 0.38100  0.34800  0.39000  Biso   1.000  H
  H18      1.0000 0.61900  0.34800  0.11000  Biso   1.000  H
  H19      1.0000 0.61900  0.65200  0.61000  Biso   1.000  H
  H20      1.0000 0.38100  0.65200  0.89000  Biso   1.000  H
  H21      1.0000 0.82300  0.46200  0.69700  Biso   1.000  H
  H22      1.0000 0.17700  0.46200  0.80300  Biso   1.000  H
  H23      1.0000 0.17700  0.53800  0.30300  Biso   1.000  H
  H24      1.0000 0.82300  0.53800  0.19700  Biso   1.000  H
  H25      1.0000 0.83600  0.46300  0.60300  Biso   1.000  H
  H26      1.0000 0.16400  0.46300  0.89700  Biso   1.000  H
  H27      1.0000 0.16400  0.53700  0.39700  Biso   1.000  H
  H28      1.0000 0.83600  0.53700  0.10300  Biso   1.000  H
  H29      1.0000 0.55900  0.18200  0.32400  Biso   1.000  H
  H30      1.0000 0.44100  0.18200  0.17600  Biso   1.000  H
  H31      1.0000 0.44100  0.81800  0.67600  Biso   1.000  H
  H32      1.0000 0.55900  0.81800  0.82400  Biso   1.000  H
  H33      1.0000 0.70500  0.05700  0.43200  Biso   1.000  H
  H34      1.0000 0.29500  0.05700  0.06800  Biso   1.000  H
  H35      1.0000 0.29500  0.94300  0.56800  Biso   1.000  H
  H36      1.0000 0.70500  0.94300  0.93200  Biso   1.000  H
