data_image0
_cell_length_a       11.2453
_cell_length_b       7.1554
_cell_length_c       17.3387
_cell_angle_alpha    90
_cell_angle_beta     101.106
_cell_angle_gamma    90

_symmetry_space_group_name_H-M    "P 1"
_symmetry_int_tables_number       1

loop_
  _symmetry_equiv_pos_as_xyz
  'x, y, z'

loop_
  _atom_site_label
  _atom_site_occupancy
  _atom_site_fract_x
  _atom_site_fract_y
  _atom_site_fract_z
  _atom_site_thermal_displace_type
  _atom_site_B_iso_or_equiv
  _atom_site_type_symbol
  Cu1      1.0000 0.96874  0.68095  0.12852  Biso   1.000  Cu
  Cu2      1.0000 0.03126  0.18095  0.37148  Biso   1.000  Cu
  Cu3      1.0000 0.03126  0.31905  0.87148  Biso   1.000  Cu
  Cu4      1.0000 0.96874  0.81905  0.62852  Biso   1.000  Cu
  O1       1.0000 0.87304  0.59710  0.20647  Biso   1.000  O
  O2       1.0000 0.12696  0.09710  0.29353  Biso   1.000  O
  O3       1.0000 0.12696  0.40290  0.79353  Biso   1.000  O
  O4       1.0000 0.87304  0.90290  0.70647  Biso   1.000  O
  O5       1.0000 0.06480  0.54570  0.21986  Biso   1.000  O
  O6       1.0000 0.93520  0.04570  0.28014  Biso   1.000  O
  O7       1.0000 0.93520  0.45430  0.78014  Biso   1.000  O
  O8       1.0000 0.06480  0.95430  0.71986  Biso   1.000  O
  O9       1.0000 0.97156  0.46790  0.31889  Biso   1.000  O
  O10      1.0000 0.02844  0.96790  0.18111  Biso   1.000  O
  O11      1.0000 0.02844  0.53210  0.68111  Biso   1.000  O
  O12      1.0000 0.97156  0.03210  0.81889  Biso   1.000  O
  N1       1.0000 0.83443  0.76030  0.04449  Biso   1.000  N
  N2       1.0000 0.16557  0.26030  0.45551  Biso   1.000  N
  N3       1.0000 0.16557  0.23970  0.95551  Biso   1.000  N
  N4       1.0000 0.83443  0.73970  0.54449  Biso   1.000  N
  N5       1.0000 0.08875  0.68690  0.05906  Biso   1.000  N
  N6       1.0000 0.91125  0.18690  0.44094  Biso   1.000  N
  N7       1.0000 0.91125  0.31310  0.94094  Biso   1.000  N
  N8       1.0000 0.08875  0.81310  0.55906  Biso   1.000  N
  N9       1.0000 0.95466  0.80880  0.94826  Biso   1.000  N
  N10      1.0000 0.04534  0.30880  0.55174  Biso   1.000  N
  N11      1.0000 0.04534  0.19120  0.05174  Biso   1.000  N
  N12      1.0000 0.95466  0.69120  0.44826  Biso   1.000  N
  H1       1.0000 0.95280  0.85580  0.90240  Biso   1.000  H
  H2       1.0000 0.04720  0.35580  0.59760  Biso   1.000  H
  H3       1.0000 0.04720  0.14420  0.09760  Biso   1.000  H
  H4       1.0000 0.95280  0.64420  0.40240  Biso   1.000  H
  C1       1.0000 0.96990  0.53320  0.25128  Biso   1.000  C
  C2       1.0000 0.03010  0.03320  0.24872  Biso   1.000  C
  C3       1.0000 0.03010  0.46680  0.74872  Biso   1.000  C
  C4       1.0000 0.96990  0.96680  0.75128  Biso   1.000  C
  C5       1.0000 0.72170  0.76610  0.06218  Biso   1.000  C
  C6       1.0000 0.27830  0.26610  0.43782  Biso   1.000  C
  C7       1.0000 0.27830  0.23390  0.93782  Biso   1.000  C
  C8       1.0000 0.72170  0.73390  0.56218  Biso   1.000  C
  H5       1.0000 0.71350  0.73410  0.11290  Biso   1.000  H
  H6       1.0000 0.28650  0.23410  0.38710  Biso   1.000  H
  H7       1.0000 0.28650  0.26590  0.88710  Biso   1.000  H
  H8       1.0000 0.71350  0.76590  0.61290  Biso   1.000  H
  C9       1.0000 0.62080  0.81600  0.00992  Biso   1.000  C
  C10      1.0000 0.37920  0.31600  0.49008  Biso   1.000  C
  C11      1.0000 0.37920  0.18400  0.99008  Biso   1.000  C
  C12      1.0000 0.62080  0.68400  0.50992  Biso   1.000  C
  H9       1.0000 0.54550  0.81720  0.02460  Biso   1.000  H
  H10      1.0000 0.45450  0.31720  0.47540  Biso   1.000  H
  H11      1.0000 0.45450  0.18280  0.97540  Biso   1.000  H
  H12      1.0000 0.54550  0.68280  0.52460  Biso   1.000  H
  C13      1.0000 0.63160  0.86510  0.93428  Biso   1.000  C
  C14      1.0000 0.36840  0.36510  0.56572  Biso   1.000  C
  C15      1.0000 0.36840  0.13490  0.06572  Biso   1.000  C
  C16      1.0000 0.63160  0.63490  0.43428  Biso   1.000  C
  H13      1.0000 0.56370  0.90010  0.89750  Biso   1.000  H
  H14      1.0000 0.43630  0.40010  0.60250  Biso   1.000  H
  H15      1.0000 0.43630  0.09990  0.10250  Biso   1.000  H
  H16      1.0000 0.56370  0.59990  0.39750  Biso   1.000  H
  C17      1.0000 0.74340  0.86150  0.91450  Biso   1.000  C
  C18      1.0000 0.25660  0.36150  0.58550  Biso   1.000  C
  C19      1.0000 0.25660  0.13850  0.08550  Biso   1.000  C
  C20      1.0000 0.74340  0.63850  0.41450  Biso   1.000  C
  H17      1.0000 0.75240  0.89370  0.86400  Biso   1.000  H
  H18      1.0000 0.24760  0.39370  0.63600  Biso   1.000  H
  H19      1.0000 0.24760  0.10630  0.13600  Biso   1.000  H
  H20      1.0000 0.75240  0.60630  0.36400  Biso   1.000  H
  C21      1.0000 0.84420  0.80920  0.97068  Biso   1.000  C
  C22      1.0000 0.15580  0.30920  0.52932  Biso   1.000  C
  C23      1.0000 0.15580  0.19080  0.02932  Biso   1.000  C
  C24      1.0000 0.84420  0.69080  0.47068  Biso   1.000  C
  C25      1.0000 0.06760  0.74850  0.98420  Biso   1.000  C
  C26      1.0000 0.93240  0.24850  0.51580  Biso   1.000  C
  C27      1.0000 0.93240  0.25150  0.01580  Biso   1.000  C
  C28      1.0000 0.06760  0.75150  0.48420  Biso   1.000  C
  C29      1.0000 0.15940  0.75460  0.94006  Biso   1.000  C
  C30      1.0000 0.84060  0.25460  0.55994  Biso   1.000  C
  C31      1.0000 0.84060  0.24540  0.05994  Biso   1.000  C
  C32      1.0000 0.15940  0.74540  0.44006  Biso   1.000  C
  H21      1.0000 0.14250  0.79680  0.88840  Biso   1.000  H
  H22      1.0000 0.85750  0.29680  0.61160  Biso   1.000  H
  H23      1.0000 0.85750  0.20320  0.11160  Biso   1.000  H
  H24      1.0000 0.14250  0.70320  0.38840  Biso   1.000  H
  C33      1.0000 0.27320  0.69850  0.97301  Biso   1.000  C
  C34      1.0000 0.72680  0.19850  0.52699  Biso   1.000  C
  C35      1.0000 0.72680  0.30150  0.02699  Biso   1.000  C
  C36      1.0000 0.27320  0.80150  0.47301  Biso   1.000  C
  H25      1.0000 0.33480  0.70210  0.94420  Biso   1.000  H
  H26      1.0000 0.66520  0.20210  0.55580  Biso   1.000  H
  H27      1.0000 0.66520  0.29790  0.05580  Biso   1.000  H
  H28      1.0000 0.33480  0.79790  0.44420  Biso   1.000  H
  C37      1.0000 0.29680  0.63510  0.05100  Biso   1.000  C
  C38      1.0000 0.70320  0.13510  0.44900  Biso   1.000  C
  C39      1.0000 0.70320  0.36490  0.94900  Biso   1.000  C
  C40      1.0000 0.29680  0.86490  0.55100  Biso   1.000  C
  H29      1.0000 0.37410  0.59680  0.07500  Biso   1.000  H
  H30      1.0000 0.62590  0.09680  0.42500  Biso   1.000  H
  H31      1.0000 0.62590  0.40320  0.92500  Biso   1.000  H
  H32      1.0000 0.37410  0.90320  0.57500  Biso   1.000  H
  C41      1.0000 0.20390  0.63120  0.09040  Biso   1.000  C
  C42      1.0000 0.79610  0.13120  0.40960  Biso   1.000  C
  C43      1.0000 0.79610  0.36880  0.90960  Biso   1.000  C
  C44      1.0000 0.20390  0.86880  0.59040  Biso   1.000  C
  H33      1.0000 0.21960  0.58790  0.14190  Biso   1.000  H
  H34      1.0000 0.78040  0.08790  0.35810  Biso   1.000  H
  H35      1.0000 0.78040  0.41210  0.85810  Biso   1.000  H
  H36      1.0000 0.21960  0.91210  0.64190  Biso   1.000  H
  O13      1.0000 0.69171  0.04550  0.20438  Biso   1.000  O
  O14      1.0000 0.30829  0.54550  0.29562  Biso   1.000  O
  O15      1.0000 0.30829  0.95450  0.79562  Biso   1.000  O
  O16      1.0000 0.69171  0.45450  0.70438  Biso   1.000  O
  H37      1.0000 0.67060  0.15610  0.20680  Biso   1.000  H
  H38      1.0000 0.32940  0.65610  0.29320  Biso   1.000  H
  H39      1.0000 0.32940  0.84390  0.79320  Biso   1.000  H
  H40      1.0000 0.67060  0.34390  0.70680  Biso   1.000  H
  H41      1.0000 0.76500  0.03210  0.22280  Biso   1.000  H
  H42      1.0000 0.23500  0.53210  0.27720  Biso   1.000  H
  H43      1.0000 0.23500  0.96790  0.77720  Biso   1.000  H
  H44      1.0000 0.76500  0.46790  0.72280  Biso   1.000  H
  O17      1.0000 0.65236  0.43230  0.21899  Biso   1.000  O
  O18      1.0000 0.34764  0.93230  0.28101  Biso   1.000  O
  O19      1.0000 0.34764  0.56770  0.78101  Biso   1.000  O
  O20      1.0000 0.65236  0.06770  0.71899  Biso   1.000  O
  H45      1.0000 0.60660  0.52320  0.20730  Biso   1.000  H
  H46      1.0000 0.39340  0.02320  0.29270  Biso   1.000  H
  H47      1.0000 0.39340  0.47680  0.79270  Biso   1.000  H
  H48      1.0000 0.60660  0.97680  0.70730  Biso   1.000  H
  H49      1.0000 0.72370  0.46050  0.21830  Biso   1.000  H
  H50      1.0000 0.27630  0.96050  0.28170  Biso   1.000  H
  H51      1.0000 0.27630  0.53950  0.78170  Biso   1.000  H
  H52      1.0000 0.72370  0.03950  0.71830  Biso   1.000  H
  O21      1.0000 0.52628  0.76320  0.19878  Biso   1.000  O
  O22      1.0000 0.47372  0.26320  0.30122  Biso   1.000  O
  O23      1.0000 0.47372  0.23680  0.80122  Biso   1.000  O
  O24      1.0000 0.52628  0.73680  0.69878  Biso   1.000  O
  H53      1.0000 0.57890  0.84590  0.20340  Biso   1.000  H
  H54      1.0000 0.42110  0.34590  0.29660  Biso   1.000  H
  H55      1.0000 0.42110  0.15410  0.79660  Biso   1.000  H
  H56      1.0000 0.57890  0.65410  0.70340  Biso   1.000  H
  H57      1.0000 0.46750  0.79680  0.21790  Biso   1.000  H
  H58      1.0000 0.53250  0.29680  0.28210  Biso   1.000  H
  H59      1.0000 0.53250  0.20320  0.78210  Biso   1.000  H
  H60      1.0000 0.46750  0.70320  0.71790  Biso   1.000  H
