data_image0
_cell_length_a       11.243
_cell_length_b       7.155
_cell_length_c       17.343
_cell_angle_alpha    90
_cell_angle_beta     101.15
_cell_angle_gamma    90

_symmetry_space_group_name_H-M    "P 1"
_symmetry_int_tables_number       1

loop_
  _symmetry_equiv_pos_as_xyz
  'x, y, z'

loop_
  _atom_site_label
  _atom_site_occupancy
  _atom_site_fract_x
  _atom_site_fract_y
  _atom_site_fract_z
  _atom_site_thermal_displace_type
  _atom_site_B_iso_or_equiv
  _atom_site_type_symbol
  Cu1      1.0000 0.53130  0.18092  0.37154  Biso   1.000  Cu
  Cu2      1.0000 0.46870  0.68092  0.12846  Biso   1.000  Cu
  Cu3      1.0000 0.46870  0.81908  0.62846  Biso   1.000  Cu
  Cu4      1.0000 0.53130  0.31908  0.87154  Biso   1.000  Cu
  O1       1.0000 0.62710  0.09720  0.29336  Biso   1.000  O
  O2       1.0000 0.37290  0.59720  0.20664  Biso   1.000  O
  O3       1.0000 0.37290  0.90280  0.70664  Biso   1.000  O
  O4       1.0000 0.62710  0.40280  0.79336  Biso   1.000  O
  O5       1.0000 0.43540  0.04520  0.28042  Biso   1.000  O
  O6       1.0000 0.56460  0.54520  0.21958  Biso   1.000  O
  O7       1.0000 0.56460  0.95480  0.71958  Biso   1.000  O
  O8       1.0000 0.43540  0.45480  0.78042  Biso   1.000  O
  O9       1.0000 0.52860  0.96780  0.18127  Biso   1.000  O
  O10      1.0000 0.47140  0.46780  0.31873  Biso   1.000  O
  O11      1.0000 0.47140  0.03220  0.81873  Biso   1.000  O
  O12      1.0000 0.52860  0.53220  0.68127  Biso   1.000  O
  N1       1.0000 0.66570  0.26080  0.45555  Biso   1.000  N
  N2       1.0000 0.33430  0.76080  0.04445  Biso   1.000  N
  N3       1.0000 0.33430  0.73920  0.54445  Biso   1.000  N
  N4       1.0000 0.66570  0.23920  0.95555  Biso   1.000  N
  N5       1.0000 0.41130  0.18690  0.44100  Biso   1.000  N
  N6       1.0000 0.58870  0.68690  0.05900  Biso   1.000  N
  N7       1.0000 0.58870  0.81310  0.55900  Biso   1.000  N
  N8       1.0000 0.41130  0.31310  0.94100  Biso   1.000  N
  N9       1.0000 0.54560  0.30800  0.55168  Biso   1.000  N
  N10      1.0000 0.45440  0.80800  0.94832  Biso   1.000  N
  N11      1.0000 0.45440  0.69200  0.44832  Biso   1.000  N
  N12      1.0000 0.54560  0.19200  0.05168  Biso   1.000  N
  C1       1.0000 0.52990  0.03300  0.24890  Biso   1.000  C
  C2       1.0000 0.47010  0.53300  0.25110  Biso   1.000  C
  C3       1.0000 0.47010  0.96700  0.75110  Biso   1.000  C
  C4       1.0000 0.52990  0.46700  0.74890  Biso   1.000  C
  C5       1.0000 0.65590  0.30850  0.52920  Biso   1.000  C
  C6       1.0000 0.34410  0.80850  0.97080  Biso   1.000  C
  C7       1.0000 0.34410  0.69150  0.47080  Biso   1.000  C
  C8       1.0000 0.65590  0.19150  0.02920  Biso   1.000  C
  C9       1.0000 0.75690  0.36080  0.58550  Biso   1.000  C
  C10      1.0000 0.24310  0.86080  0.91450  Biso   1.000  C
  C11      1.0000 0.24310  0.63920  0.41450  Biso   1.000  C
  C12      1.0000 0.75690  0.13920  0.08550  Biso   1.000  C
  C13      1.0000 0.86850  0.36420  0.56580  Biso   1.000  C
  C14      1.0000 0.13150  0.86420  0.93420  Biso   1.000  C
  C15      1.0000 0.13150  0.63580  0.43420  Biso   1.000  C
  C16      1.0000 0.86850  0.13580  0.06580  Biso   1.000  C
  C17      1.0000 0.88000  0.31630  0.49010  Biso   1.000  C
  C18      1.0000 0.12000  0.81630  0.00990  Biso   1.000  C
  C19      1.0000 0.12000  0.68370  0.50990  Biso   1.000  C
  C20      1.0000 0.88000  0.18370  0.99010  Biso   1.000  C
  C21      1.0000 0.77820  0.26580  0.43790  Biso   1.000  C
  C22      1.0000 0.22180  0.76580  0.06210  Biso   1.000  C
  C23      1.0000 0.22180  0.73420  0.56210  Biso   1.000  C
  C24      1.0000 0.77820  0.23420  0.93790  Biso   1.000  C
  C25      1.0000 0.43240  0.24840  0.51600  Biso   1.000  C
  C26      1.0000 0.56760  0.74840  0.98400  Biso   1.000  C
  C27      1.0000 0.56760  0.75160  0.48400  Biso   1.000  C
  C28      1.0000 0.43240  0.25160  0.01600  Biso   1.000  C
  C29      1.0000 0.34050  0.25450  0.55970  Biso   1.000  C
  C30      1.0000 0.65950  0.75450  0.94030  Biso   1.000  C
  C31      1.0000 0.65950  0.74550  0.44030  Biso   1.000  C
  C32      1.0000 0.34050  0.24550  0.05970  Biso   1.000  C
  C33      1.0000 0.22630  0.19890  0.52670  Biso   1.000  C
  C34      1.0000 0.77370  0.69890  0.97330  Biso   1.000  C
  C35      1.0000 0.77370  0.80110  0.47330  Biso   1.000  C
  C36      1.0000 0.22630  0.30110  0.02670  Biso   1.000  C
  C37      1.0000 0.20340  0.13660  0.44910  Biso   1.000  C
  C38      1.0000 0.79660  0.63660  0.05090  Biso   1.000  C
  C39      1.0000 0.79660  0.86340  0.55090  Biso   1.000  C
  C40      1.0000 0.20340  0.36340  0.94910  Biso   1.000  C
  C41      1.0000 0.29630  0.13220  0.40960  Biso   1.000  C
  C42      1.0000 0.70370  0.63220  0.09040  Biso   1.000  C
  C43      1.0000 0.70370  0.86780  0.59040  Biso   1.000  C
  C44      1.0000 0.29630  0.36780  0.90960  Biso   1.000  C
  H1       1.0000 0.54900  0.35300  0.58900  Biso   1.000  H
  H2       1.0000 0.45100  0.85300  0.91100  Biso   1.000  H
  H3       1.0000 0.45100  0.64700  0.41100  Biso   1.000  H
  H4       1.0000 0.54900  0.14700  0.08900  Biso   1.000  H
  H5       1.0000 0.74500  0.38700  0.63400  Biso   1.000  H
  H6       1.0000 0.25500  0.88700  0.86600  Biso   1.000  H
  H7       1.0000 0.25500  0.61300  0.36600  Biso   1.000  H
  H8       1.0000 0.74500  0.11300  0.13400  Biso   1.000  H
  H9       1.0000 0.93100  0.39700  0.60100  Biso   1.000  H
  H10      1.0000 0.06900  0.89700  0.89900  Biso   1.000  H
  H11      1.0000 0.06900  0.60300  0.39900  Biso   1.000  H
  H12      1.0000 0.93100  0.10300  0.10100  Biso   1.000  H
  H13      1.0000 0.95600  0.31900  0.47200  Biso   1.000  H
  H14      1.0000 0.04400  0.81900  0.02800  Biso   1.000  H
  H15      1.0000 0.04400  0.68100  0.52800  Biso   1.000  H
  H16      1.0000 0.95600  0.18100  0.97200  Biso   1.000  H
  H17      1.0000 0.78200  0.23400  0.38700  Biso   1.000  H
  H18      1.0000 0.21800  0.73400  0.11300  Biso   1.000  H
  H19      1.0000 0.21800  0.76600  0.61300  Biso   1.000  H
  H20      1.0000 0.78200  0.26600  0.88700  Biso   1.000  H
  H21      1.0000 0.35500  0.29000  0.60800  Biso   1.000  H
  H22      1.0000 0.64500  0.79000  0.89200  Biso   1.000  H
  H23      1.0000 0.64500  0.71000  0.39200  Biso   1.000  H
  H24      1.0000 0.35500  0.21000  0.10800  Biso   1.000  H
  H25      1.0000 0.16300  0.20700  0.55300  Biso   1.000  H
  H26      1.0000 0.83700  0.70700  0.94700  Biso   1.000  H
  H27      1.0000 0.83700  0.79300  0.44700  Biso   1.000  H
  H28      1.0000 0.16300  0.29300  0.05300  Biso   1.000  H
  H29      1.0000 0.13100  0.10300  0.42700  Biso   1.000  H
  H30      1.0000 0.86900  0.60300  0.07300  Biso   1.000  H
  H31      1.0000 0.86900  0.89700  0.57300  Biso   1.000  H
  H32      1.0000 0.13100  0.39700  0.92700  Biso   1.000  H
  H33      1.0000 0.28600  0.08900  0.35900  Biso   1.000  H
  H34      1.0000 0.71400  0.58900  0.14100  Biso   1.000  H
  H35      1.0000 0.71400  0.91100  0.64100  Biso   1.000  H
  H36      1.0000 0.28600  0.41100  0.85900  Biso   1.000  H
  O13      1.0000 0.80830  0.54520  0.29580  Biso   1.000  O
  O14      1.0000 0.19170  0.04520  0.20420  Biso   1.000  O
  O15      1.0000 0.19170  0.45480  0.70420  Biso   1.000  O
  O16      1.0000 0.80830  0.95480  0.79580  Biso   1.000  O
  H37      1.0000 0.73400  0.53300  0.27700  Biso   1.000  H
  H38      1.0000 0.26600  0.03300  0.22300  Biso   1.000  H
  H39      1.0000 0.26600  0.46700  0.72300  Biso   1.000  H
  H40      1.0000 0.73400  0.96700  0.77700  Biso   1.000  H
  H41      1.0000 0.82700  0.64700  0.28800  Biso   1.000  H
  H42      1.0000 0.17300  0.14700  0.21200  Biso   1.000  H
  H43      1.0000 0.17300  0.35300  0.71200  Biso   1.000  H
  H44      1.0000 0.82700  0.85300  0.78800  Biso   1.000  H
  O17      1.0000 0.15280  0.43180  0.21950  Biso   1.000  O
  O18      1.0000 0.84720  0.93180  0.28050  Biso   1.000  O
  O19      1.0000 0.84720  0.56820  0.78050  Biso   1.000  O
  O20      1.0000 0.15280  0.06820  0.71950  Biso   1.000  O
  H45      1.0000 0.10800  0.51100  0.21000  Biso   1.000  H
  H46      1.0000 0.89200  0.01100  0.29000  Biso   1.000  H
  H47      1.0000 0.89200  0.48900  0.79000  Biso   1.000  H
  H48      1.0000 0.10800  0.98900  0.71000  Biso   1.000  H
  H49      1.0000 0.22500  0.48600  0.21800  Biso   1.000  H
  H50      1.0000 0.77500  0.98600  0.28200  Biso   1.000  H
  H51      1.0000 0.77500  0.51400  0.78200  Biso   1.000  H
  H52      1.0000 0.22500  0.01400  0.71800  Biso   1.000  H
  O21      1.0000 0.97360  0.26300  0.30170  Biso   1.000  O
  O22      1.0000 0.02640  0.76300  0.19830  Biso   1.000  O
  O23      1.0000 0.02640  0.73700  0.69830  Biso   1.000  O
  O24      1.0000 0.97360  0.23700  0.80170  Biso   1.000  O
  H53      1.0000 0.92200  0.35100  0.28900  Biso   1.000  H
  H54      1.0000 0.07800  0.85100  0.21100  Biso   1.000  H
  H55      1.0000 0.07800  0.64900  0.71100  Biso   1.000  H
  H56      1.0000 0.92200  0.14900  0.78900  Biso   1.000  H
  H57      1.0000 0.02000  0.27900  0.27900  Biso   1.000  H
  H58      1.0000 0.98000  0.77900  0.22100  Biso   1.000  H
  H59      1.0000 0.98000  0.72100  0.72100  Biso   1.000  H
  H60      1.0000 0.02000  0.22100  0.77900  Biso   1.000  H
