data_image0
_cell_length_a       11.2088
_cell_length_b       7.1069
_cell_length_c       17.3393
_cell_angle_alpha    90
_cell_angle_beta     100.891
_cell_angle_gamma    90

_symmetry_space_group_name_H-M    "P 1"
_symmetry_int_tables_number       1

loop_
  _symmetry_equiv_pos_as_xyz
  'x, y, z'

loop_
  _atom_site_label
  _atom_site_occupancy
  _atom_site_fract_x
  _atom_site_fract_y
  _atom_site_fract_z
  _atom_site_thermal_displace_type
  _atom_site_B_iso_or_equiv
  _atom_site_type_symbol
  Cu1      1.0000 0.53141  0.17889  0.37192  Biso   1.000  Cu
  Cu2      1.0000 0.46859  0.67889  0.12808  Biso   1.000  Cu
  Cu3      1.0000 0.46859  0.82111  0.62808  Biso   1.000  Cu
  Cu4      1.0000 0.53141  0.32111  0.87192  Biso   1.000  Cu
  O1       1.0000 0.62758  0.09510  0.29329  Biso   1.000  O
  O2       1.0000 0.37242  0.59510  0.20671  Biso   1.000  O
  O3       1.0000 0.37242  0.90490  0.70671  Biso   1.000  O
  O4       1.0000 0.62758  0.40490  0.79329  Biso   1.000  O
  O5       1.0000 0.43497  0.04210  0.28097  Biso   1.000  O
  O6       1.0000 0.56503  0.54210  0.21903  Biso   1.000  O
  O7       1.0000 0.56503  0.95790  0.71903  Biso   1.000  O
  O8       1.0000 0.43497  0.45790  0.78097  Biso   1.000  O
  O9       1.0000 0.52848  0.96616  0.18113  Biso   1.000  O
  O10      1.0000 0.47152  0.46616  0.31887  Biso   1.000  O
  O11      1.0000 0.47152  0.03384  0.81887  Biso   1.000  O
  O12      1.0000 0.52848  0.53384  0.68113  Biso   1.000  O
  N1       1.0000 0.66623  0.26000  0.45546  Biso   1.000  N
  N2       1.0000 0.33377  0.76000  0.04454  Biso   1.000  N
  N3       1.0000 0.33377  0.74000  0.54454  Biso   1.000  N
  N4       1.0000 0.66623  0.24000  0.95546  Biso   1.000  N
  N5       1.0000 0.41052  0.18560  0.44165  Biso   1.000  N
  N6       1.0000 0.58948  0.68560  0.05835  Biso   1.000  N
  N7       1.0000 0.58948  0.81440  0.55835  Biso   1.000  N
  N8       1.0000 0.41052  0.31440  0.94165  Biso   1.000  N
  N9       1.0000 0.54528  0.30880  0.55215  Biso   1.000  N
  N10      1.0000 0.45472  0.80880  0.94785  Biso   1.000  N
  N11      1.0000 0.45472  0.69120  0.44785  Biso   1.000  N
  N12      1.0000 0.54528  0.19120  0.05215  Biso   1.000  N
  H1       1.0000 0.54600  0.35800  0.59010  Biso   1.000  H
  H2       1.0000 0.45400  0.85800  0.90990  Biso   1.000  H
  H3       1.0000 0.45400  0.64200  0.40990  Biso   1.000  H
  H4       1.0000 0.54600  0.14200  0.09010  Biso   1.000  H
  C1       1.0000 0.77874  0.26490  0.43734  Biso   1.000  C
  C2       1.0000 0.22126  0.76490  0.06266  Biso   1.000  C
  C3       1.0000 0.22126  0.73510  0.56266  Biso   1.000  C
  C4       1.0000 0.77874  0.23510  0.93734  Biso   1.000  C
  H5       1.0000 0.78670  0.23110  0.38620  Biso   1.000  H
  H6       1.0000 0.21330  0.73110  0.11380  Biso   1.000  H
  H7       1.0000 0.21330  0.76890  0.61380  Biso   1.000  H
  H8       1.0000 0.78670  0.26890  0.88620  Biso   1.000  H
  C5       1.0000 0.88100  0.31620  0.48907  Biso   1.000  C
  C6       1.0000 0.11900  0.81620  0.01093  Biso   1.000  C
  C7       1.0000 0.11900  0.68380  0.51093  Biso   1.000  C
  C8       1.0000 0.88100  0.18380  0.98907  Biso   1.000  C
  H9       1.0000 0.95710  0.31830  0.47380  Biso   1.000  H
  H10      1.0000 0.04290  0.81830  0.02620  Biso   1.000  H
  H11      1.0000 0.04290  0.68170  0.52620  Biso   1.000  H
  H12      1.0000 0.95710  0.18170  0.97380  Biso   1.000  H
  C9       1.0000 0.86962  0.36540  0.56541  Biso   1.000  C
  C10      1.0000 0.13038  0.86540  0.93459  Biso   1.000  C
  C11      1.0000 0.13038  0.63460  0.43459  Biso   1.000  C
  C12      1.0000 0.86962  0.13460  0.06541  Biso   1.000  C
  H13      1.0000 0.93840  0.40040  0.60260  Biso   1.000  H
  H14      1.0000 0.06160  0.90040  0.89740  Biso   1.000  H
  H15      1.0000 0.06160  0.59960  0.39740  Biso   1.000  H
  H16      1.0000 0.93840  0.09960  0.10260  Biso   1.000  H
  C13      1.0000 0.75760  0.36220  0.58547  Biso   1.000  C
  C14      1.0000 0.24240  0.86220  0.91453  Biso   1.000  C
  C15      1.0000 0.24240  0.63780  0.41453  Biso   1.000  C
  C16      1.0000 0.75760  0.13780  0.08547  Biso   1.000  C
  H17      1.0000 0.74860  0.39540  0.63650  Biso   1.000  H
  H18      1.0000 0.25140  0.89540  0.86350  Biso   1.000  H
  H19      1.0000 0.25140  0.60460  0.36350  Biso   1.000  H
  H20      1.0000 0.74860  0.10460  0.13650  Biso   1.000  H
  C17      1.0000 0.65605  0.30890  0.52933  Biso   1.000  C
  C18      1.0000 0.34395  0.80890  0.97067  Biso   1.000  C
  C19      1.0000 0.34395  0.69110  0.47067  Biso   1.000  C
  C20      1.0000 0.65605  0.19110  0.02933  Biso   1.000  C
  C21      1.0000 0.43194  0.24840  0.51630  Biso   1.000  C
  C22      1.0000 0.56806  0.74840  0.98370  Biso   1.000  C
  C23      1.0000 0.56806  0.75160  0.48370  Biso   1.000  C
  C24      1.0000 0.43194  0.25160  0.01630  Biso   1.000  C
  C25      1.0000 0.33951  0.25550  0.56057  Biso   1.000  C
  C26      1.0000 0.66049  0.75550  0.93943  Biso   1.000  C
  C27      1.0000 0.66049  0.74450  0.43943  Biso   1.000  C
  C28      1.0000 0.33951  0.24450  0.06057  Biso   1.000  C
  H21      1.0000 0.35660  0.29880  0.61270  Biso   1.000  H
  H22      1.0000 0.64340  0.79880  0.88730  Biso   1.000  H
  H23      1.0000 0.64340  0.70120  0.38730  Biso   1.000  H
  H24      1.0000 0.35660  0.20120  0.11270  Biso   1.000  H
  C29      1.0000 0.22465  0.19940  0.52782  Biso   1.000  C
  C30      1.0000 0.77535  0.69940  0.97218  Biso   1.000  C
  C31      1.0000 0.77535  0.80060  0.47218  Biso   1.000  C
  C32      1.0000 0.22465  0.30060  0.02782  Biso   1.000  C
  H25      1.0000 0.16210  0.20370  0.55700  Biso   1.000  H
  H26      1.0000 0.83790  0.70370  0.94300  Biso   1.000  H
  H27      1.0000 0.83790  0.79630  0.44300  Biso   1.000  H
  H28      1.0000 0.16210  0.29630  0.05700  Biso   1.000  H
  C33      1.0000 0.20138  0.13540  0.45019  Biso   1.000  C
  C34      1.0000 0.79862  0.63540  0.04981  Biso   1.000  C
  C35      1.0000 0.79862  0.86460  0.54981  Biso   1.000  C
  C36      1.0000 0.20138  0.36460  0.95019  Biso   1.000  C
  H29      1.0000 0.12300  0.09680  0.42610  Biso   1.000  H
  H30      1.0000 0.87700  0.59680  0.07390  Biso   1.000  H
  H31      1.0000 0.87700  0.90320  0.57390  Biso   1.000  H
  H32      1.0000 0.12300  0.40320  0.92610  Biso   1.000  H
  C37      1.0000 0.29522  0.13050  0.41029  Biso   1.000  C
  C38      1.0000 0.70478  0.63050  0.08971  Biso   1.000  C
  C39      1.0000 0.70478  0.86950  0.58971  Biso   1.000  C
  C40      1.0000 0.29522  0.36950  0.91029  Biso   1.000  C
  H33      1.0000 0.27940  0.08660  0.35820  Biso   1.000  H
  H34      1.0000 0.72060  0.58660  0.14180  Biso   1.000  H
  H35      1.0000 0.72060  0.91340  0.64180  Biso   1.000  H
  H36      1.0000 0.27940  0.41340  0.85820  Biso   1.000  H
  C41      1.0000 0.52992  0.03060  0.24888  Biso   1.000  C
  C42      1.0000 0.47008  0.53060  0.25112  Biso   1.000  C
  C43      1.0000 0.47008  0.96940  0.75112  Biso   1.000  C
  C44      1.0000 0.52992  0.46940  0.74888  Biso   1.000  C
  O13      1.0000 0.19233  0.04670  0.20442  Biso   1.000  O
  O14      1.0000 0.80767  0.54670  0.29558  Biso   1.000  O
  O15      1.0000 0.80767  0.95330  0.79558  Biso   1.000  O
  O16      1.0000 0.19233  0.45330  0.70442  Biso   1.000  O
  H37      1.0000 0.17000  0.17500  0.20780  Biso   1.000  H
  H38      1.0000 0.83000  0.67500  0.29220  Biso   1.000  H
  H39      1.0000 0.83000  0.82500  0.79220  Biso   1.000  H
  H40      1.0000 0.17000  0.32500  0.70780  Biso   1.000  H
  H41      1.0000 0.27510  0.02280  0.22660  Biso   1.000  H
  H42      1.0000 0.72490  0.52280  0.27340  Biso   1.000  H
  H43      1.0000 0.72490  0.97720  0.77340  Biso   1.000  H
  H44      1.0000 0.27510  0.47720  0.72660  Biso   1.000  H
  O17      1.0000 0.84843  0.93370  0.27893  Biso   1.000  O
  O18      1.0000 0.15157  0.43370  0.22107  Biso   1.000  O
  O19      1.0000 0.15157  0.06630  0.72107  Biso   1.000  O
  O20      1.0000 0.84843  0.56630  0.77893  Biso   1.000  O
  H45      1.0000 0.90750  0.03080  0.28970  Biso   1.000  H
  H46      1.0000 0.09250  0.53080  0.21030  Biso   1.000  H
  H47      1.0000 0.09250  0.96920  0.71030  Biso   1.000  H
  H48      1.0000 0.90750  0.46920  0.78970  Biso   1.000  H
  H49      1.0000 0.76830  0.97570  0.28000  Biso   1.000  H
  H50      1.0000 0.23170  0.47570  0.22000  Biso   1.000  H
  H51      1.0000 0.23170  0.02430  0.72000  Biso   1.000  H
  H52      1.0000 0.76830  0.52430  0.78000  Biso   1.000  H
  O21      1.0000 0.97555  0.26540  0.30445  Biso   1.000  O
  O22      1.0000 0.02445  0.76540  0.19555  Biso   1.000  O
  O23      1.0000 0.02445  0.73460  0.69555  Biso   1.000  O
  O24      1.0000 0.97555  0.23460  0.80445  Biso   1.000  O
  H53      1.0000 0.04270  0.28980  0.27970  Biso   1.000  H
  H54      1.0000 0.95730  0.78980  0.22030  Biso   1.000  H
  H55      1.0000 0.95730  0.71020  0.72030  Biso   1.000  H
  H56      1.0000 0.04270  0.21020  0.77970  Biso   1.000  H
  H57      1.0000 0.91660  0.36300  0.29670  Biso   1.000  H
  H58      1.0000 0.08340  0.86300  0.20330  Biso   1.000  H
  H59      1.0000 0.08340  0.63700  0.70330  Biso   1.000  H
  H60      1.0000 0.91660  0.13700  0.79670  Biso   1.000  H
