data_image0
_cell_length_a       11.1675
_cell_length_b       7.0642
_cell_length_c       17.2977
_cell_angle_alpha    90
_cell_angle_beta     100.719
_cell_angle_gamma    90

_symmetry_space_group_name_H-M    "P 1"
_symmetry_int_tables_number       1

loop_
  _symmetry_equiv_pos_as_xyz
  'x, y, z'

loop_
  _atom_site_label
  _atom_site_occupancy
  _atom_site_fract_x
  _atom_site_fract_y
  _atom_site_fract_z
  _atom_site_thermal_displace_type
  _atom_site_B_iso_or_equiv
  _atom_site_type_symbol
  Cu1      1.0000 0.46847  0.82238  0.12778  Biso   1.000  Cu
  Cu2      1.0000 0.53153  0.32238  0.37222  Biso   1.000  Cu
  Cu3      1.0000 0.53153  0.17762  0.87222  Biso   1.000  Cu
  Cu4      1.0000 0.46847  0.67762  0.62778  Biso   1.000  Cu
  N1       1.0000 0.33330  0.74055  0.04425  Biso   1.000  N
  N2       1.0000 0.66670  0.24055  0.45575  Biso   1.000  N
  N3       1.0000 0.66670  0.25945  0.95575  Biso   1.000  N
  N4       1.0000 0.33330  0.75945  0.54425  Biso   1.000  N
  N5       1.0000 0.45458  0.69040  0.94735  Biso   1.000  N
  N6       1.0000 0.54542  0.19040  0.55265  Biso   1.000  N
  N7       1.0000 0.54542  0.30960  0.05265  Biso   1.000  N
  N8       1.0000 0.45458  0.80960  0.44735  Biso   1.000  N
  N9       1.0000 0.58955  0.81508  0.05770  Biso   1.000  N
  N10      1.0000 0.41045  0.31508  0.44230  Biso   1.000  N
  N11      1.0000 0.41045  0.18492  0.94230  Biso   1.000  N
  N12      1.0000 0.58955  0.68492  0.55770  Biso   1.000  N
  O1       1.0000 0.37177  0.90608  0.20669  Biso   1.000  O
  O2       1.0000 0.62823  0.40608  0.29331  Biso   1.000  O
  O3       1.0000 0.62823  0.09392  0.79331  Biso   1.000  O
  O4       1.0000 0.37177  0.59392  0.70669  Biso   1.000  O
  O5       1.0000 0.56548  0.96033  0.21847  Biso   1.000  O
  O6       1.0000 0.43452  0.46033  0.28153  Biso   1.000  O
  O7       1.0000 0.43452  0.03967  0.78153  Biso   1.000  O
  O8       1.0000 0.56548  0.53967  0.71847  Biso   1.000  O
  O9       1.0000 0.47160  0.03549  0.31883  Biso   1.000  O
  O10      1.0000 0.52840  0.53549  0.18117  Biso   1.000  O
  O11      1.0000 0.52840  0.96451  0.68117  Biso   1.000  O
  O12      1.0000 0.47160  0.46451  0.81883  Biso   1.000  O
  C1       1.0000 0.22093  0.73600  0.06312  Biso   1.000  C
  C2       1.0000 0.77907  0.23600  0.43688  Biso   1.000  C
  C3       1.0000 0.77907  0.26400  0.93688  Biso   1.000  C
  C4       1.0000 0.22093  0.76400  0.56312  Biso   1.000  C
  C5       1.0000 0.11798  0.68390  0.01116  Biso   1.000  C
  C6       1.0000 0.88202  0.18390  0.48884  Biso   1.000  C
  C7       1.0000 0.88202  0.31610  0.98884  Biso   1.000  C
  C8       1.0000 0.11798  0.81610  0.51116  Biso   1.000  C
  C9       1.0000 0.12937  0.63410  0.93490  Biso   1.000  C
  C10      1.0000 0.87063  0.13410  0.56510  Biso   1.000  C
  C11      1.0000 0.87063  0.36590  0.06510  Biso   1.000  C
  C12      1.0000 0.12937  0.86590  0.43490  Biso   1.000  C
  C13      1.0000 0.24176  0.63690  0.91446  Biso   1.000  C
  C14      1.0000 0.75824  0.13690  0.58554  Biso   1.000  C
  C15      1.0000 0.75824  0.36310  0.08554  Biso   1.000  C
  C16      1.0000 0.24176  0.86310  0.41446  Biso   1.000  C
  C17      1.0000 0.34383  0.69130  0.97105  Biso   1.000  C
  C18      1.0000 0.65617  0.19130  0.52895  Biso   1.000  C
  C19      1.0000 0.65617  0.30870  0.02895  Biso   1.000  C
  C20      1.0000 0.34383  0.80870  0.47105  Biso   1.000  C
  C21      1.0000 0.56824  0.75160  0.98352  Biso   1.000  C
  C22      1.0000 0.43176  0.25160  0.51648  Biso   1.000  C
  C23      1.0000 0.43176  0.24840  0.01648  Biso   1.000  C
  C24      1.0000 0.56824  0.74840  0.48352  Biso   1.000  C
  C25      1.0000 0.66091  0.74340  0.93849  Biso   1.000  C
  C26      1.0000 0.33909  0.24340  0.56151  Biso   1.000  C
  C27      1.0000 0.33909  0.25660  0.06151  Biso   1.000  C
  C28      1.0000 0.66091  0.75660  0.43849  Biso   1.000  C
  C29      1.0000 0.77637  0.80000  0.97153  Biso   1.000  C
  C30      1.0000 0.22363  0.30000  0.52847  Biso   1.000  C
  C31      1.0000 0.22363  0.20000  0.02847  Biso   1.000  C
  C32      1.0000 0.77637  0.70000  0.47153  Biso   1.000  C
  C33      1.0000 0.79947  0.86450  0.04895  Biso   1.000  C
  C34      1.0000 0.20053  0.36450  0.45105  Biso   1.000  C
  C35      1.0000 0.20053  0.13550  0.95105  Biso   1.000  C
  C36      1.0000 0.79947  0.63550  0.54895  Biso   1.000  C
  C37      1.0000 0.70507  0.87080  0.08929  Biso   1.000  C
  C38      1.0000 0.29493  0.37080  0.41071  Biso   1.000  C
  C39      1.0000 0.29493  0.12920  0.91071  Biso   1.000  C
  C40      1.0000 0.70507  0.62920  0.58929  Biso   1.000  C
  C41      1.0000 0.46996  0.97160  0.25113  Biso   1.000  C
  C42      1.0000 0.53004  0.47160  0.24887  Biso   1.000  C
  C43      1.0000 0.53004  0.02840  0.74887  Biso   1.000  C
  C44      1.0000 0.46996  0.52840  0.75113  Biso   1.000  C
  H1       1.0000 0.21890  0.76900  0.11420  Biso   1.000  H
  H2       1.0000 0.78110  0.26900  0.38580  Biso   1.000  H
  H3       1.0000 0.78110  0.23100  0.88580  Biso   1.000  H
  H4       1.0000 0.21890  0.73100  0.61420  Biso   1.000  H
  H5       1.0000 0.04300  0.68000  0.02710  Biso   1.000  H
  H6       1.0000 0.95700  0.18000  0.47290  Biso   1.000  H
  H7       1.0000 0.95700  0.32000  0.97290  Biso   1.000  H
  H8       1.0000 0.04300  0.82000  0.52710  Biso   1.000  H
  H9       1.0000 0.06180  0.60000  0.89830  Biso   1.000  H
  H10      1.0000 0.93820  0.10000  0.60170  Biso   1.000  H
  H11      1.0000 0.93820  0.40000  0.10170  Biso   1.000  H
  H12      1.0000 0.06180  0.90000  0.39830  Biso   1.000  H
  H13      1.0000 0.25200  0.60700  0.86730  Biso   1.000  H
  H14      1.0000 0.74800  0.10700  0.63270  Biso   1.000  H
  H15      1.0000 0.74800  0.39300  0.13270  Biso   1.000  H
  H16      1.0000 0.25200  0.89300  0.36730  Biso   1.000  H
  H17      1.0000 0.64270  0.70200  0.88920  Biso   1.000  H
  H18      1.0000 0.35730  0.20200  0.61080  Biso   1.000  H
  H19      1.0000 0.35730  0.29800  0.11080  Biso   1.000  H
  H20      1.0000 0.64270  0.79800  0.38920  Biso   1.000  H
  H21      1.0000 0.83550  0.79700  0.94190  Biso   1.000  H
  H22      1.0000 0.16450  0.29700  0.55810  Biso   1.000  H
  H23      1.0000 0.16450  0.20300  0.05810  Biso   1.000  H
  H24      1.0000 0.83550  0.70300  0.44190  Biso   1.000  H
  H25      1.0000 0.87220  0.90200  0.07170  Biso   1.000  H
  H26      1.0000 0.12780  0.40200  0.42830  Biso   1.000  H
  H27      1.0000 0.12780  0.09800  0.92830  Biso   1.000  H
  H28      1.0000 0.87220  0.59800  0.57170  Biso   1.000  H
  H29      1.0000 0.71550  0.91300  0.14170  Biso   1.000  H
  H30      1.0000 0.28450  0.41300  0.35830  Biso   1.000  H
  H31      1.0000 0.28450  0.08700  0.85830  Biso   1.000  H
  H32      1.0000 0.71550  0.58700  0.64170  Biso   1.000  H
  H33      1.0000 0.45300  0.63500  0.90470  Biso   1.000  H
  H34      1.0000 0.54700  0.13500  0.59530  Biso   1.000  H
  H35      1.0000 0.54700  0.36500  0.09530  Biso   1.000  H
  H36      1.0000 0.45300  0.86500  0.40470  Biso   1.000  H
  O13      1.0000 0.97659  0.23520  0.30642  Biso   1.000  O
  O14      1.0000 0.02341  0.73520  0.19358  Biso   1.000  O
  O15      1.0000 0.02341  0.76480  0.69358  Biso   1.000  O
  O16      1.0000 0.97659  0.26480  0.80642  Biso   1.000  O
  O17      1.0000 0.84869  0.56660  0.27767  Biso   1.000  O
  O18      1.0000 0.15131  0.06660  0.22233  Biso   1.000  O
  O19      1.0000 0.15131  0.43340  0.72233  Biso   1.000  O
  O20      1.0000 0.84869  0.93340  0.77767  Biso   1.000  O
  O21      1.0000 0.80754  0.95460  0.29562  Biso   1.000  O
  O22      1.0000 0.19246  0.45460  0.20438  Biso   1.000  O
  O23      1.0000 0.19246  0.04540  0.70438  Biso   1.000  O
  O24      1.0000 0.80754  0.54540  0.79562  Biso   1.000  O
  H37      1.0000 0.02600  0.20600  0.28720  Biso   1.000  H
  H38      1.0000 0.97400  0.70600  0.21280  Biso   1.000  H
  H39      1.0000 0.97400  0.79400  0.71280  Biso   1.000  H
  H40      1.0000 0.02600  0.29400  0.78720  Biso   1.000  H
  H41      1.0000 0.92400  0.14400  0.29780  Biso   1.000  H
  H42      1.0000 0.07600  0.64400  0.20220  Biso   1.000  H
  H43      1.0000 0.07600  0.85600  0.70220  Biso   1.000  H
  H44      1.0000 0.92400  0.35600  0.79780  Biso   1.000  H
  H45      1.0000 0.89400  0.48700  0.28880  Biso   1.000  H
  H46      1.0000 0.10600  0.98700  0.21120  Biso   1.000  H
  H47      1.0000 0.10600  0.51300  0.71120  Biso   1.000  H
  H48      1.0000 0.89400  0.01300  0.78880  Biso   1.000  H
  H49      1.0000 0.77800  0.53200  0.27700  Biso   1.000  H
  H50      1.0000 0.22200  0.03200  0.22300  Biso   1.000  H
  H51      1.0000 0.22200  0.46800  0.72300  Biso   1.000  H
  H52      1.0000 0.77800  0.96800  0.77700  Biso   1.000  H
  H53      1.0000 0.73900  0.96700  0.27930  Biso   1.000  H
  H54      1.0000 0.26100  0.46700  0.22070  Biso   1.000  H
  H55      1.0000 0.26100  0.03300  0.72070  Biso   1.000  H
  H56      1.0000 0.73900  0.53300  0.77930  Biso   1.000  H
  H57      1.0000 0.81800  0.84400  0.28970  Biso   1.000  H
  H58      1.0000 0.18200  0.34400  0.21030  Biso   1.000  H
  H59      1.0000 0.18200  0.15600  0.71030  Biso   1.000  H
  H60      1.0000 0.81800  0.65600  0.78970  Biso   1.000  H
