data_image0
_cell_length_a       11.2034
_cell_length_b       12.026
_cell_length_c       18.078
_cell_angle_alpha    90
_cell_angle_beta     101.872
_cell_angle_gamma    90

_symmetry_space_group_name_H-M    "P 1"
_symmetry_int_tables_number       1

loop_
  _symmetry_equiv_pos_as_xyz
  'x, y, z'

loop_
  _atom_site_label
  _atom_site_occupancy
  _atom_site_fract_x
  _atom_site_fract_y
  _atom_site_fract_z
  _atom_site_thermal_displace_type
  _atom_site_B_iso_or_equiv
  _atom_site_type_symbol
  Cu1      1.0000 0.57527  0.33383  0.54555  Biso   1.000  Cu
  Cu2      1.0000 0.42473  0.83383  0.95445  Biso   1.000  Cu
  Cu3      1.0000 0.42473  0.66617  0.45445  Biso   1.000  Cu
  Cu4      1.0000 0.57527  0.16617  0.04555  Biso   1.000  Cu
  S1       1.0000 0.61681  0.44849  0.43231  Biso   1.000  S
  S2       1.0000 0.38319  0.94849  0.06769  Biso   1.000  S
  S3       1.0000 0.38319  0.55151  0.56769  Biso   1.000  S
  S4       1.0000 0.61681  0.05151  0.93231  Biso   1.000  S
  O1       1.0000 0.99613  0.38904  0.87861  Biso   1.000  O
  O2       1.0000 0.00387  0.88904  0.62139  Biso   1.000  O
  O3       1.0000 0.00387  0.61096  0.12139  Biso   1.000  O
  O4       1.0000 0.99613  0.11096  0.37861  Biso   1.000  O
  O5       1.0000 0.71091  0.32725  0.99508  Biso   1.000  O
  O6       1.0000 0.28909  0.82725  0.50492  Biso   1.000  O
  O7       1.0000 0.28909  0.67275  0.00492  Biso   1.000  O
  O8       1.0000 0.71091  0.17275  0.49508  Biso   1.000  O
  O9       1.0000 0.68361  0.44910  0.51352  Biso   1.000  O
  O10      1.0000 0.31639  0.94910  0.98648  Biso   1.000  O
  O11      1.0000 0.31639  0.55090  0.48648  Biso   1.000  O
  O12      1.0000 0.68361  0.05090  0.01352  Biso   1.000  O
  O13      1.0000 0.51937  0.36292  0.43422  Biso   1.000  O
  O14      1.0000 0.48063  0.86292  0.06578  Biso   1.000  O
  O15      1.0000 0.48063  0.63708  0.56578  Biso   1.000  O
  O16      1.0000 0.51937  0.13708  0.93422  Biso   1.000  O
  O17      1.0000 0.56353  0.55660  0.40952  Biso   1.000  O
  O18      1.0000 0.43647  0.05660  0.09048  Biso   1.000  O
  O19      1.0000 0.43647  0.44340  0.59048  Biso   1.000  O
  O20      1.0000 0.56353  0.94340  0.90952  Biso   1.000  O
  O21      1.0000 0.69703  0.41409  0.38253  Biso   1.000  O
  O22      1.0000 0.30297  0.91409  0.11747  Biso   1.000  O
  O23      1.0000 0.30297  0.58591  0.61747  Biso   1.000  O
  O24      1.0000 0.69703  0.08591  0.88253  Biso   1.000  O
  O25      1.0000 0.66470  0.52050  0.23340  Biso   1.000  O
  O26      1.0000 0.33530  0.02050  0.26660  Biso   1.000  O
  O27      1.0000 0.33530  0.47950  0.76660  Biso   1.000  O
  O28      1.0000 0.66470  0.97950  0.73340  Biso   1.000  O
  H1       1.0000 0.63840  0.57620  0.20930  Biso   1.000  H
  H2       1.0000 0.36160  0.07620  0.29070  Biso   1.000  H
  H3       1.0000 0.36160  0.42380  0.79070  Biso   1.000  H
  H4       1.0000 0.63840  0.92380  0.70930  Biso   1.000  H
  O29      1.0000 0.38370  0.26500  0.29910  Biso   1.000  O
  O30      1.0000 0.61630  0.76500  0.20090  Biso   1.000  O
  O31      1.0000 0.61630  0.73500  0.70090  Biso   1.000  O
  O32      1.0000 0.38370  0.23500  0.79910  Biso   1.000  O
  H5       1.0000 0.32790  0.24040  0.31740  Biso   1.000  H
  H6       1.0000 0.67210  0.74040  0.18260  Biso   1.000  H
  H7       1.0000 0.67210  0.75960  0.68260  Biso   1.000  H
  H8       1.0000 0.32790  0.25960  0.81740  Biso   1.000  H
  O33      1.0000 0.15400  0.38100  0.33920  Biso   1.000  O
  O34      1.0000 0.84600  0.88100  0.16080  Biso   1.000  O
  O35      1.0000 0.84600  0.61900  0.66080  Biso   1.000  O
  O36      1.0000 0.15400  0.11900  0.83920  Biso   1.000  O
  N1       1.0000 0.67700  0.31932  0.64910  Biso   1.000  N
  N2       1.0000 0.32300  0.81932  0.85090  Biso   1.000  N
  N3       1.0000 0.32300  0.68068  0.35090  Biso   1.000  N
  N4       1.0000 0.67700  0.18068  0.14910  Biso   1.000  N
  N5       1.0000 0.88886  0.25067  0.92042  Biso   1.000  N
  N6       1.0000 0.11114  0.75067  0.57958  Biso   1.000  N
  N7       1.0000 0.11114  0.74933  0.07958  Biso   1.000  N
  N8       1.0000 0.88886  0.24933  0.42042  Biso   1.000  N
  H9       1.0000 0.82800  0.20580  0.90930  Biso   1.000  H
  H10      1.0000 0.17200  0.70580  0.59070  Biso   1.000  H
  H11      1.0000 0.17200  0.79420  0.09070  Biso   1.000  H
  H12      1.0000 0.82800  0.29420  0.40930  Biso   1.000  H
  N9       1.0000 0.88563  0.42834  0.02659  Biso   1.000  N
  N10      1.0000 0.11437  0.92834  0.47341  Biso   1.000  N
  N11      1.0000 0.11437  0.57166  0.97341  Biso   1.000  N
  N12      1.0000 0.88563  0.07166  0.52659  Biso   1.000  N
  H13      1.0000 0.91640  0.49410  0.03060  Biso   1.000  H
  H14      1.0000 0.08360  0.99410  0.46940  Biso   1.000  H
  H15      1.0000 0.08360  0.50590  0.96940  Biso   1.000  H
  H16      1.0000 0.91640  0.00590  0.53060  Biso   1.000  H
  N13      1.0000 0.53931  0.70730  0.95372  Biso   1.000  N
  N14      1.0000 0.46069  0.20730  0.54628  Biso   1.000  N
  N15      1.0000 0.46069  0.29270  0.04628  Biso   1.000  N
  N16      1.0000 0.53931  0.79270  0.45372  Biso   1.000  N
  C1       1.0000 0.62960  0.30750  0.71063  Biso   1.000  C
  C2       1.0000 0.37040  0.80750  0.78937  Biso   1.000  C
  C3       1.0000 0.37040  0.69250  0.28937  Biso   1.000  C
  C4       1.0000 0.62960  0.19250  0.21063  Biso   1.000  C
  H17      1.0000 0.54550  0.30080  0.70460  Biso   1.000  H
  H18      1.0000 0.45450  0.80080  0.79540  Biso   1.000  H
  H19      1.0000 0.45450  0.69920  0.29540  Biso   1.000  H
  H20      1.0000 0.54550  0.19920  0.20460  Biso   1.000  H
  C5       1.0000 0.70060  0.30500  0.78298  Biso   1.000  C
  C6       1.0000 0.29940  0.80500  0.71702  Biso   1.000  C
  C7       1.0000 0.29940  0.69500  0.21702  Biso   1.000  C
  C8       1.0000 0.70060  0.19500  0.28298  Biso   1.000  C
  H21      1.0000 0.66480  0.29490  0.82460  Biso   1.000  H
  H22      1.0000 0.33520  0.79490  0.67540  Biso   1.000  H
  H23      1.0000 0.33520  0.70510  0.17540  Biso   1.000  H
  H24      1.0000 0.66480  0.20510  0.32460  Biso   1.000  H
  C9       1.0000 0.82550  0.31770  0.79245  Biso   1.000  C
  C10      1.0000 0.17450  0.81770  0.70755  Biso   1.000  C
  C11      1.0000 0.17450  0.68230  0.20755  Biso   1.000  C
  C12      1.0000 0.82550  0.18230  0.29245  Biso   1.000  C
  C13      1.0000 0.87470  0.33100  0.72835  Biso   1.000  C
  C14      1.0000 0.12530  0.83100  0.77165  Biso   1.000  C
  C15      1.0000 0.12530  0.66900  0.27165  Biso   1.000  C
  C16      1.0000 0.87470  0.16900  0.22835  Biso   1.000  C
  H25      1.0000 0.95830  0.34030  0.73280  Biso   1.000  H
  H26      1.0000 0.04170  0.84030  0.76720  Biso   1.000  H
  H27      1.0000 0.04170  0.65970  0.26720  Biso   1.000  H
  H28      1.0000 0.95830  0.15970  0.23280  Biso   1.000  H
  C17      1.0000 0.79820  0.33020  0.65822  Biso   1.000  C
  C18      1.0000 0.20180  0.83020  0.84178  Biso   1.000  C
  C19      1.0000 0.20180  0.66980  0.34178  Biso   1.000  C
  C20      1.0000 0.79820  0.16980  0.15822  Biso   1.000  C
  H29      1.0000 0.83190  0.33760  0.61560  Biso   1.000  H
  H30      1.0000 0.16810  0.83760  0.88440  Biso   1.000  H
  H31      1.0000 0.16810  0.66240  0.38440  Biso   1.000  H
  H32      1.0000 0.83190  0.16240  0.11560  Biso   1.000  H
  C21      1.0000 0.91100  0.32200  0.86826  Biso   1.000  C
  C22      1.0000 0.08900  0.82200  0.63174  Biso   1.000  C
  C23      1.0000 0.08900  0.67800  0.13174  Biso   1.000  C
  C24      1.0000 0.91100  0.17800  0.36826  Biso   1.000  C
  C25      1.0000 0.96440  0.24760  0.99439  Biso   1.000  C
  C26      1.0000 0.03560  0.74760  0.50561  Biso   1.000  C
  C27      1.0000 0.03560  0.75240  0.00561  Biso   1.000  C
  C28      1.0000 0.96440  0.25240  0.49439  Biso   1.000  C
  C29      1.0000 0.04020  0.15640  0.01548  Biso   1.000  C
  C30      1.0000 0.95980  0.65640  0.48452  Biso   1.000  C
  C31      1.0000 0.95980  0.84360  0.98452  Biso   1.000  C
  C32      1.0000 0.04020  0.34360  0.51548  Biso   1.000  C
  H33      1.0000 0.03720  0.09650  0.98260  Biso   1.000  H
  H34      1.0000 0.96280  0.59650  0.51740  Biso   1.000  H
  H35      1.0000 0.96280  0.90350  0.01740  Biso   1.000  H
  H36      1.0000 0.03720  0.40350  0.48260  Biso   1.000  H
  C33      1.0000 0.11980  0.15420  0.08480  Biso   1.000  C
  C34      1.0000 0.88020  0.65420  0.41520  Biso   1.000  C
  C35      1.0000 0.88020  0.84580  0.91520  Biso   1.000  C
  C36      1.0000 0.11980  0.34580  0.58480  Biso   1.000  C
  H37      1.0000 0.16980  0.09270  0.09870  Biso   1.000  H
  H38      1.0000 0.83020  0.59270  0.40130  Biso   1.000  H
  H39      1.0000 0.83020  0.90730  0.90130  Biso   1.000  H
  H40      1.0000 0.16980  0.40730  0.59870  Biso   1.000  H
  C37      1.0000 0.12500  0.24350  0.13330  Biso   1.000  C
  C38      1.0000 0.87500  0.74350  0.36670  Biso   1.000  C
  C39      1.0000 0.87500  0.75650  0.86670  Biso   1.000  C
  C40      1.0000 0.12500  0.25650  0.63330  Biso   1.000  C
  H41      1.0000 0.18060  0.24300  0.17920  Biso   1.000  H
  H42      1.0000 0.81940  0.74300  0.32080  Biso   1.000  H
  H43      1.0000 0.81940  0.75700  0.82080  Biso   1.000  H
  H44      1.0000 0.18060  0.25700  0.67920  Biso   1.000  H
  C41      1.0000 0.04830  0.33370  0.11420  Biso   1.000  C
  C42      1.0000 0.95170  0.83370  0.38580  Biso   1.000  C
  C43      1.0000 0.95170  0.66630  0.88580  Biso   1.000  C
  C44      1.0000 0.04830  0.16630  0.61420  Biso   1.000  C
  H45      1.0000 0.05200  0.39320  0.14740  Biso   1.000  H
  H46      1.0000 0.94800  0.89320  0.35260  Biso   1.000  H
  H47      1.0000 0.94800  0.60680  0.85260  Biso   1.000  H
  H48      1.0000 0.05200  0.10680  0.64740  Biso   1.000  H
  C45      1.0000 0.96540  0.33540  0.04506  Biso   1.000  C
  C46      1.0000 0.03460  0.83540  0.45494  Biso   1.000  C
  C47      1.0000 0.03460  0.66460  0.95494  Biso   1.000  C
  C48      1.0000 0.96540  0.16460  0.54506  Biso   1.000  C
  C49      1.0000 0.76370  0.41720  0.00300  Biso   1.000  C
  C50      1.0000 0.23630  0.91720  0.49700  Biso   1.000  C
  C51      1.0000 0.23630  0.58280  0.99700  Biso   1.000  C
  C52      1.0000 0.76370  0.08280  0.50300  Biso   1.000  C
  C53      1.0000 0.69210  0.52330  0.98388  Biso   1.000  C
  C54      1.0000 0.30790  0.02330  0.51612  Biso   1.000  C
  C55      1.0000 0.30790  0.47670  0.01612  Biso   1.000  C
  C56      1.0000 0.69210  0.97670  0.48388  Biso   1.000  C
  C57      1.0000 0.72740  0.62580  0.01673  Biso   1.000  C
  C58      1.0000 0.27260  0.12580  0.48327  Biso   1.000  C
  C59      1.0000 0.27260  0.37420  0.98327  Biso   1.000  C
  C60      1.0000 0.72740  0.87420  0.51673  Biso   1.000  C
  H49      1.0000 0.80260  0.63410  0.04940  Biso   1.000  H
  H50      1.0000 0.19740  0.13410  0.45060  Biso   1.000  H
  H51      1.0000 0.19740  0.36590  0.95060  Biso   1.000  H
  H52      1.0000 0.80260  0.86590  0.54940  Biso   1.000  H
  C61      1.0000 0.64920  0.71490  0.00015  Biso   1.000  C
  C62      1.0000 0.35080  0.21490  0.49985  Biso   1.000  C
  C63      1.0000 0.35080  0.28510  0.99985  Biso   1.000  C
  C64      1.0000 0.64920  0.78510  0.50015  Biso   1.000  C
  H53      1.0000 0.67350  0.78340  0.02210  Biso   1.000  H
  H54      1.0000 0.32650  0.28340  0.47790  Biso   1.000  H
  H55      1.0000 0.32650  0.21660  0.97790  Biso   1.000  H
  H56      1.0000 0.67350  0.71660  0.52210  Biso   1.000  H
  C65      1.0000 0.50820  0.60990  0.91957  Biso   1.000  C
  C66      1.0000 0.49180  0.10990  0.58043  Biso   1.000  C
  C67      1.0000 0.49180  0.39010  0.08043  Biso   1.000  C
  C68      1.0000 0.50820  0.89010  0.41957  Biso   1.000  C
  H57      1.0000 0.43430  0.60480  0.88510  Biso   1.000  H
  H58      1.0000 0.56570  0.10480  0.61490  Biso   1.000  H
  H59      1.0000 0.56570  0.39520  0.11490  Biso   1.000  H
  H60      1.0000 0.43430  0.89520  0.38510  Biso   1.000  H
  C69      1.0000 0.58090  0.51670  0.93329  Biso   1.000  C
  C70      1.0000 0.41910  0.01670  0.56671  Biso   1.000  C
  C71      1.0000 0.41910  0.48330  0.06671  Biso   1.000  C
  C72      1.0000 0.58090  0.98330  0.43329  Biso   1.000  C
  H61      1.0000 0.55570  0.45000  0.90890  Biso   1.000  H
  H62      1.0000 0.44430  0.95000  0.59110  Biso   1.000  H
  H63      1.0000 0.44430  0.55000  0.09110  Biso   1.000  H
  H64      1.0000 0.55570  0.05000  0.40890  Biso   1.000  H
  C73      1.0000 0.79900  0.49260  0.21980  Biso   1.000  C
  C74      1.0000 0.20100  0.99260  0.28020  Biso   1.000  C
  C75      1.0000 0.20100  0.50740  0.78020  Biso   1.000  C
  C76      1.0000 0.79900  0.00740  0.71980  Biso   1.000  C
  H65      1.0000 0.83070  0.55610  0.19800  Biso   1.000  H
  H66      1.0000 0.16930  0.05610  0.30200  Biso   1.000  H
  H67      1.0000 0.16930  0.44390  0.80200  Biso   1.000  H
  H68      1.0000 0.83070  0.94390  0.69800  Biso   1.000  H
  H69      1.0000 0.79460  0.43050  0.18600  Biso   1.000  H
  H70      1.0000 0.20540  0.93050  0.31400  Biso   1.000  H
  H71      1.0000 0.20540  0.56950  0.81400  Biso   1.000  H
  H72      1.0000 0.79460  0.06950  0.68600  Biso   1.000  H
  H73      1.0000 0.85170  0.47460  0.26710  Biso   1.000  H
  H74      1.0000 0.14830  0.97460  0.23290  Biso   1.000  H
  H75      1.0000 0.14830  0.52540  0.73290  Biso   1.000  H
  H76      1.0000 0.85170  0.02540  0.76710  Biso   1.000  H
  C77      1.0000 0.35050  0.38620  0.26810  Biso   1.000  C
  C78      1.0000 0.64950  0.88620  0.23190  Biso   1.000  C
  C79      1.0000 0.64950  0.61380  0.73190  Biso   1.000  C
  C80      1.0000 0.35050  0.11380  0.76810  Biso   1.000  C
  H77      1.0000 0.28660  0.41570  0.29050  Biso   1.000  H
  H78      1.0000 0.71340  0.91570  0.20950  Biso   1.000  H
  H79      1.0000 0.71340  0.58430  0.70950  Biso   1.000  H
  H80      1.0000 0.28660  0.08430  0.79050  Biso   1.000  H
  H81      1.0000 0.32360  0.38370  0.21420  Biso   1.000  H
  H82      1.0000 0.67640  0.88370  0.28580  Biso   1.000  H
  H83      1.0000 0.67640  0.61630  0.78580  Biso   1.000  H
  H84      1.0000 0.32360  0.11630  0.71420  Biso   1.000  H
  H85      1.0000 0.42130  0.43290  0.28080  Biso   1.000  H
  H86      1.0000 0.57870  0.93290  0.21920  Biso   1.000  H
  H87      1.0000 0.57870  0.56710  0.71920  Biso   1.000  H
  H88      1.0000 0.42130  0.06710  0.78080  Biso   1.000  H
  H89      1.0000 0.13400  0.31300  0.33000  Biso   1.000  H
  H90      1.0000 0.86600  0.81300  0.17000  Biso   1.000  H
  H91      1.0000 0.86600  0.68700  0.67000  Biso   1.000  H
  H92      1.0000 0.13400  0.18700  0.83000  Biso   1.000  H
  H93      1.0000 0.22800  0.39500  0.33500  Biso   1.000  H
  H94      1.0000 0.77200  0.89500  0.16500  Biso   1.000  H
  H95      1.0000 0.77200  0.60500  0.66500  Biso   1.000  H
  H96      1.0000 0.22800  0.10500  0.83500  Biso   1.000  H
