data_image0
_cell_length_a       7.5489
_cell_length_b       9.4986
_cell_length_c       10.1997
_cell_angle_alpha    86.824
_cell_angle_beta     76.482
_cell_angle_gamma    85.064

_symmetry_space_group_name_H-M    "P 1"
_symmetry_int_tables_number       1

loop_
  _symmetry_equiv_pos_as_xyz
  'x, y, z'

loop_
  _atom_site_label
  _atom_site_occupancy
  _atom_site_fract_x
  _atom_site_fract_y
  _atom_site_fract_z
  _atom_site_thermal_displace_type
  _atom_site_B_iso_or_equiv
  _atom_site_type_symbol
  Cu1      1.0000 0.60399  0.69988  0.53802  Biso   1.000  Cu
  Cu2      1.0000 0.39601  0.30012  0.46198  Biso   1.000  Cu
  O1       1.0000 0.61890  0.57755  0.69862  Biso   1.000  O
  O2       1.0000 0.38110  0.42245  0.30138  Biso   1.000  O
  C1       1.0000 0.72460  0.46510  0.66470  Biso   1.000  C
  C2       1.0000 0.27540  0.53490  0.33530  Biso   1.000  C
  C3       1.0000 0.75990  0.36530  0.77620  Biso   1.000  C
  C4       1.0000 0.24010  0.63470  0.22380  Biso   1.000  C
  C5       1.0000 0.85040  0.23160  0.75000  Biso   1.000  C
  C6       1.0000 0.14960  0.76840  0.25000  Biso   1.000  C
  H1       1.0000 0.89180  0.20280  0.66170  Biso   1.000  H
  H2       1.0000 0.10820  0.79720  0.33830  Biso   1.000  H
  C7       1.0000 0.87780  0.14230  0.85670  Biso   1.000  C
  C8       1.0000 0.12220  0.85770  0.14330  Biso   1.000  C
  H3       1.0000 0.93820  0.05340  0.83960  Biso   1.000  H
  H4       1.0000 0.06180  0.94660  0.16040  Biso   1.000  H
  C9       1.0000 0.81650  0.18390  0.98840  Biso   1.000  C
  C10      1.0000 0.18350  0.81610  0.01160  Biso   1.000  C
  H5       1.0000 0.83560  0.12310  0.05920  Biso   1.000  H
  H6       1.0000 0.16440  0.87690  0.94080  Biso   1.000  H
  C11      1.0000 0.72650  0.31650  0.01460  Biso   1.000  C
  C12      1.0000 0.27350  0.68350  0.98540  Biso   1.000  C
  H7       1.0000 0.68410  0.34490  0.10290  Biso   1.000  H
  H8       1.0000 0.31590  0.65510  0.89710  Biso   1.000  H
  C13      1.0000 0.70050  0.40640  0.90730  Biso   1.000  C
  C14      1.0000 0.29950  0.59360  0.09270  Biso   1.000  C
  H9       1.0000 0.64190  0.49590  0.92460  Biso   1.000  H
  H10      1.0000 0.35810  0.50410  0.07540  Biso   1.000  H
  N1       1.0000 0.80270  0.43072  0.53943  Biso   1.000  N
  N2       1.0000 0.19730  0.56928  0.46057  Biso   1.000  N
  N3       1.0000 0.75330  0.53713  0.45549  Biso   1.000  N
  N4       1.0000 0.24670  0.46287  0.54451  Biso   1.000  N
  C15      1.0000 0.80050  0.53630  0.32690  Biso   1.000  C
  C16      1.0000 0.19950  0.46370  0.67310  Biso   1.000  C
  H11      1.0000 0.87530  0.46320  0.28090  Biso   1.000  H
  H12      1.0000 0.12470  0.53680  0.71910  Biso   1.000  H
  C17      1.0000 0.72830  0.65850  0.25770  Biso   1.000  C
  C18      1.0000 0.27170  0.34150  0.74230  Biso   1.000  C
  N5       1.0000 0.62230  0.75482  0.34190  Biso   1.000  N
  N6       1.0000 0.37770  0.24518  0.65810  Biso   1.000  N
  C19      1.0000 0.55090  0.87210  0.28860  Biso   1.000  C
  C20      1.0000 0.44910  0.12790  0.71140  Biso   1.000  C
  H13      1.0000 0.47850  0.93800  0.34600  Biso   1.000  H
  H14      1.0000 0.52150  0.06200  0.65400  Biso   1.000  H
  C21      1.0000 0.58180  0.89800  0.15020  Biso   1.000  C
  C22      1.0000 0.41820  0.10200  0.84980  Biso   1.000  C
  H15      1.0000 0.53130  0.98040  0.11540  Biso   1.000  H
  H16      1.0000 0.46870  0.01960  0.88460  Biso   1.000  H
  C23      1.0000 0.68790  0.80060  0.06500  Biso   1.000  C
  C24      1.0000 0.31210  0.19940  0.93500  Biso   1.000  C
  H17      1.0000 0.70930  0.81610  0.97200  Biso   1.000  H
  H18      1.0000 0.29070  0.18390  0.02800  Biso   1.000  H
  C25      1.0000 0.76240  0.67930  0.11930  Biso   1.000  C
  C26      1.0000 0.23760  0.32070  0.88070  Biso   1.000  C
  H19      1.0000 0.83480  0.61250  0.06300  Biso   1.000  H
  H20      1.0000 0.16520  0.38750  0.93700  Biso   1.000  H
  N7       1.0000 0.37200  0.80822  0.61340  Biso   1.000  N
  N8       1.0000 0.62800  0.19178  0.38660  Biso   1.000  N
  C27      1.0000 0.21480  0.82070  0.64390  Biso   1.000  C
  C28      1.0000 0.78520  0.17930  0.35610  Biso   1.000  C
  N9       1.0000 0.04030  0.83610  0.69770  Biso   1.000  N
  N10      1.0000 0.95970  0.16390  0.30230  Biso   1.000  N
  C29      1.0000 0.91710  0.84180  0.62520  Biso   1.000  C
  C30      1.0000 0.08290  0.15820  0.37480  Biso   1.000  C
  N11      1.0000 0.79530  0.84770  0.57440  Biso   1.000  N
  N12      1.0000 0.20470  0.15230  0.42560  Biso   1.000  N
