data_image0
_cell_length_a       9.633
_cell_length_b       10.665
_cell_length_c       9.03
_cell_angle_alpha    112.28
_cell_angle_beta     110.19
_cell_angle_gamma    83.72

_symmetry_space_group_name_H-M    "P 1"
_symmetry_int_tables_number       1

loop_
  _symmetry_equiv_pos_as_xyz
  'x, y, z'

loop_
  _atom_site_label
  _atom_site_occupancy
  _atom_site_fract_x
  _atom_site_fract_y
  _atom_site_fract_z
  _atom_site_thermal_displace_type
  _atom_site_B_iso_or_equiv
  _atom_site_type_symbol
  Cu1      1.0000 0.97163  0.49209  0.12465  Biso   1.000  Cu
  Cu2      1.0000 0.02837  0.50791  0.87535  Biso   1.000  Cu
  O1       1.0000 0.16250  0.40330  0.17030  Biso   1.000  O
  O2       1.0000 0.83750  0.59670  0.82970  Biso   1.000  O
  O3       1.0000 0.79060  0.58410  0.04780  Biso   1.000  O
  O4       1.0000 0.20940  0.41590  0.95220  Biso   1.000  O
  O5       1.0000 0.87830  0.31850  0.96170  Biso   1.000  O
  O6       1.0000 0.12170  0.68150  0.03830  Biso   1.000  O
  O7       1.0000 0.07520  0.66830  0.25610  Biso   1.000  O
  O8       1.0000 0.92480  0.33170  0.74390  Biso   1.000  O
  O9       1.0000 0.91050  0.47520  0.33030  Biso   1.000  O
  O10      1.0000 0.08950  0.52480  0.66970  Biso   1.000  O
  C1       1.0000 0.24130  0.38100  0.07860  Biso   1.000  C
  C2       1.0000 0.75870  0.61900  0.92140  Biso   1.000  C
  C3       1.0000 0.38460  0.30700  0.11910  Biso   1.000  C
  C4       1.0000 0.61540  0.69300  0.88090  Biso   1.000  C
  C5       1.0000 0.40700  0.27000  0.26700  Biso   1.000  C
  C6       1.0000 0.59300  0.73000  0.73300  Biso   1.000  C
  C7       1.0000 0.51080  0.38600  0.13900  Biso   1.000  C
  C8       1.0000 0.48920  0.61400  0.86100  Biso   1.000  C
  C9       1.0000 0.37200  0.17400  0.97200  Biso   1.000  C
  C10      1.0000 0.62800  0.82600  0.02800  Biso   1.000  C
  C11      1.0000 0.87390  0.27160  0.81020  Biso   1.000  C
  C12      1.0000 0.12610  0.72840  0.18980  Biso   1.000  C
  C13      1.0000 0.80080  0.13050  0.70060  Biso   1.000  C
  C14      1.0000 0.19920  0.86950  0.29940  Biso   1.000  C
  C15      1.0000 0.89800  0.03140  0.76500  Biso   1.000  C
  C16      1.0000 0.10200  0.96860  0.23500  Biso   1.000  C
  C17      1.0000 0.78900  0.09170  0.51650  Biso   1.000  C
  C18      1.0000 0.21100  0.90830  0.48350  Biso   1.000  C
  C19      1.0000 0.65500  0.13100  0.71800  Biso   1.000  C
  C20      1.0000 0.34500  0.86900  0.28200  Biso   1.000  C
  C21      1.0000 0.96210  0.36840  0.39170  Biso   1.000  C
  C22      1.0000 0.03790  0.63160  0.60830  Biso   1.000  C
  C23      1.0000 0.89540  0.59390  0.46770  Biso   1.000  C
  C24      1.0000 0.10460  0.40610  0.53230  Biso   1.000  C
  H1       1.0000 0.32340  0.21630  0.24640  Biso   1.000  H
  H2       1.0000 0.67660  0.78370  0.75360  Biso   1.000  H
  H3       1.0000 0.49510  0.21860  0.28590  Biso   1.000  H
  H4       1.0000 0.50490  0.78140  0.71410  Biso   1.000  H
  H5       1.0000 0.41610  0.35080  0.36560  Biso   1.000  H
  H6       1.0000 0.58390  0.64920  0.63440  Biso   1.000  H
  H7       1.0000 0.59980  0.33600  0.16180  Biso   1.000  H
  H8       1.0000 0.40020  0.66400  0.83820  Biso   1.000  H
  H9       1.0000 0.49420  0.40210  0.03680  Biso   1.000  H
  H10      1.0000 0.50580  0.59790  0.96320  Biso   1.000  H
  H11      1.0000 0.52050  0.47100  0.23190  Biso   1.000  H
  H12      1.0000 0.47950  0.52900  0.76810  Biso   1.000  H
  H13      1.0000 0.28840  0.12250  0.95550  Biso   1.000  H
  H14      1.0000 0.71160  0.87750  0.04450  Biso   1.000  H
  H15      1.0000 0.35750  0.19200  0.87130  Biso   1.000  H
  H16      1.0000 0.64250  0.80800  0.12870  Biso   1.000  H
  H17      1.0000 0.46020  0.12440  0.99610  Biso   1.000  H
  H18      1.0000 0.53980  0.87560  0.00390  Biso   1.000  H
  H19      1.0000 0.85410  0.94220  0.70180  Biso   1.000  H
  H20      1.0000 0.14590  0.05780  0.29820  Biso   1.000  H
  H21      1.0000 0.99300  0.03300  0.75350  Biso   1.000  H
  H22      1.0000 0.00700  0.96700  0.24650  Biso   1.000  H
  H23      1.0000 0.91000  0.05530  0.88300  Biso   1.000  H
  H24      1.0000 0.09000  0.94470  0.11700  Biso   1.000  H
  H25      1.0000 0.74680  0.00180  0.45230  Biso   1.000  H
  H26      1.0000 0.25320  0.99820  0.54770  Biso   1.000  H
  H27      1.0000 0.72670  0.15440  0.47140  Biso   1.000  H
  H28      1.0000 0.27330  0.84560  0.52860  Biso   1.000  H
  H29      1.0000 0.88560  0.09450  0.50930  Biso   1.000  H
  H30      1.0000 0.11440  0.90550  0.49070  Biso   1.000  H
  H31      1.0000 0.66620  0.15620  0.83510  Biso   1.000  H
  H32      1.0000 0.33380  0.84380  0.16490  Biso   1.000  H
  H33      1.0000 0.59410  0.19490  0.67430  Biso   1.000  H
  H34      1.0000 0.40590  0.80510  0.32570  Biso   1.000  H
  H35      1.0000 0.61020  0.04210  0.65480  Biso   1.000  H
  H36      1.0000 0.38980  0.95790  0.34520  Biso   1.000  H
  H37      1.0000 0.89000  0.34840  0.43170  Biso   1.000  H
  H38      1.0000 0.11000  0.65160  0.56830  Biso   1.000  H
  H39      1.0000 0.97520  0.28950  0.30090  Biso   1.000  H
  H40      1.0000 0.02480  0.71050  0.69910  Biso   1.000  H
  H41      1.0000 0.82250  0.57600  0.50810  Biso   1.000  H
  H42      1.0000 0.17750  0.42400  0.49190  Biso   1.000  H
  H43      1.0000 0.86430  0.66750  0.42810  Biso   1.000  H
  H44      1.0000 0.13570  0.33250  0.57190  Biso   1.000  H
