data_image0
_cell_length_a       14.1572
_cell_length_b       9.6534
_cell_length_c       17.317
_cell_angle_alpha    90
_cell_angle_beta     91.729
_cell_angle_gamma    90

_symmetry_space_group_name_H-M    "P 1"
_symmetry_int_tables_number       1

loop_
  _symmetry_equiv_pos_as_xyz
  'x, y, z'

loop_
  _atom_site_label
  _atom_site_occupancy
  _atom_site_fract_x
  _atom_site_fract_y
  _atom_site_fract_z
  _atom_site_thermal_displace_type
  _atom_site_B_iso_or_equiv
  _atom_site_type_symbol
  C1       1.0000 0.91980  0.04620  0.65450  Biso   1.000  C
  C2       1.0000 0.08020  0.04620  0.84550  Biso   1.000  C
  C3       1.0000 0.08020  0.95380  0.34550  Biso   1.000  C
  C4       1.0000 0.91980  0.95380  0.15450  Biso   1.000  C
  H1       1.0000 0.91270  0.95140  0.66190  Biso   1.000  H
  H2       1.0000 0.08730  0.95140  0.83810  Biso   1.000  H
  H3       1.0000 0.08730  0.04860  0.33810  Biso   1.000  H
  H4       1.0000 0.91270  0.04860  0.16190  Biso   1.000  H
  C5       1.0000 0.95280  0.24370  0.60490  Biso   1.000  C
  C6       1.0000 0.04720  0.24370  0.89510  Biso   1.000  C
  C7       1.0000 0.04720  0.75630  0.39510  Biso   1.000  C
  C8       1.0000 0.95280  0.75630  0.10490  Biso   1.000  C
  H5       1.0000 0.97360  0.31080  0.57090  Biso   1.000  H
  H6       1.0000 0.02640  0.31080  0.92910  Biso   1.000  H
  H7       1.0000 0.02640  0.68920  0.42910  Biso   1.000  H
  H8       1.0000 0.97360  0.68920  0.07090  Biso   1.000  H
  C9       1.0000 0.91800  0.26960  0.67480  Biso   1.000  C
  C10      1.0000 0.08200  0.26960  0.82520  Biso   1.000  C
  C11      1.0000 0.08200  0.73040  0.32520  Biso   1.000  C
  C12      1.0000 0.91800  0.73040  0.17480  Biso   1.000  C
  H9       1.0000 0.90920  0.35600  0.69720  Biso   1.000  H
  H10      1.0000 0.09080  0.35600  0.80280  Biso   1.000  H
  H11      1.0000 0.09080  0.64400  0.30280  Biso   1.000  H
  H12      1.0000 0.90920  0.64400  0.19720  Biso   1.000  H
  C13      1.0000 0.85570  0.11500  0.78170  Biso   1.000  C
  C14      1.0000 0.14430  0.11500  0.71830  Biso   1.000  C
  C15      1.0000 0.14430  0.88500  0.21830  Biso   1.000  C
  C16      1.0000 0.85570  0.88500  0.28170  Biso   1.000  C
  H13      1.0000 0.87450  0.18700  0.81810  Biso   1.000  H
  H14      1.0000 0.12550  0.18700  0.68190  Biso   1.000  H
  H15      1.0000 0.12550  0.81300  0.18190  Biso   1.000  H
  H16      1.0000 0.87450  0.81300  0.31810  Biso   1.000  H
  H17      1.0000 0.87880  0.02710  0.80180  Biso   1.000  H
  H18      1.0000 0.12120  0.02710  0.69820  Biso   1.000  H
  H19      1.0000 0.12120  0.97290  0.19820  Biso   1.000  H
  H20      1.0000 0.87880  0.97290  0.30180  Biso   1.000  H
  C17      1.0000 0.74970  0.11080  0.77370  Biso   1.000  C
  C18      1.0000 0.25030  0.11080  0.72630  Biso   1.000  C
  C19      1.0000 0.25030  0.88920  0.22630  Biso   1.000  C
  C20      1.0000 0.74970  0.88920  0.27370  Biso   1.000  C
  C21      1.0000 0.70350  0.98990  0.75140  Biso   1.000  C
  C22      1.0000 0.29650  0.98990  0.74860  Biso   1.000  C
  C23      1.0000 0.29650  0.01010  0.24860  Biso   1.000  C
  C24      1.0000 0.70350  0.01010  0.25140  Biso   1.000  C
  H21      1.0000 0.73850  0.91010  0.74260  Biso   1.000  H
  H22      1.0000 0.26150  0.91010  0.75740  Biso   1.000  H
  H23      1.0000 0.26150  0.08990  0.25740  Biso   1.000  H
  H24      1.0000 0.73850  0.08990  0.24260  Biso   1.000  H
  C25      1.0000 0.69630  0.22830  0.78710  Biso   1.000  C
  C26      1.0000 0.30370  0.22830  0.71290  Biso   1.000  C
  C27      1.0000 0.30370  0.77170  0.21290  Biso   1.000  C
  C28      1.0000 0.69630  0.77170  0.28710  Biso   1.000  C
  H25      1.0000 0.72630  0.31000  0.80240  Biso   1.000  H
  H26      1.0000 0.27370  0.31000  0.69760  Biso   1.000  H
  H27      1.0000 0.27370  0.69000  0.19760  Biso   1.000  H
  H28      1.0000 0.72630  0.69000  0.30240  Biso   1.000  H
  C29      1.0000 0.60680  0.98630  0.74220  Biso   1.000  C
  C30      1.0000 0.39320  0.98630  0.75780  Biso   1.000  C
  C31      1.0000 0.39320  0.01370  0.25780  Biso   1.000  C
  C32      1.0000 0.60680  0.01370  0.24220  Biso   1.000  C
  H29      1.0000 0.57720  0.90410  0.72730  Biso   1.000  H
  H30      1.0000 0.42280  0.90410  0.77270  Biso   1.000  H
  H31      1.0000 0.42280  0.09590  0.27270  Biso   1.000  H
  H32      1.0000 0.57720  0.09590  0.22730  Biso   1.000  H
  C33      1.0000 0.59950  0.22500  0.77800  Biso   1.000  C
  C34      1.0000 0.40050  0.22500  0.72200  Biso   1.000  C
  C35      1.0000 0.40050  0.77500  0.22200  Biso   1.000  C
  C36      1.0000 0.59950  0.77500  0.27800  Biso   1.000  C
  H33      1.0000 0.56500  0.30490  0.78750  Biso   1.000  H
  H34      1.0000 0.43500  0.30490  0.71250  Biso   1.000  H
  H35      1.0000 0.43500  0.69510  0.21250  Biso   1.000  H
  H36      1.0000 0.56500  0.69510  0.28750  Biso   1.000  H
  C37      1.0000 0.55170  0.10500  0.75480  Biso   1.000  C
  C38      1.0000 0.44830  0.10500  0.74520  Biso   1.000  C
  C39      1.0000 0.44830  0.89500  0.24520  Biso   1.000  C
  C40      1.0000 0.55170  0.89500  0.25480  Biso   1.000  C
  C41      1.0000 0.88480  0.75330  0.54480  Biso   1.000  C
  C42      1.0000 0.11520  0.75330  0.95520  Biso   1.000  C
  C43      1.0000 0.11520  0.24670  0.45520  Biso   1.000  C
  C44      1.0000 0.88480  0.24670  0.04480  Biso   1.000  C
  H37      1.0000 0.93460  0.71580  0.57410  Biso   1.000  H
  H38      1.0000 0.06540  0.71580  0.92590  Biso   1.000  H
  H39      1.0000 0.06540  0.28420  0.42590  Biso   1.000  H
  H40      1.0000 0.93460  0.28420  0.07410  Biso   1.000  H
  C45      1.0000 0.74670  0.77920  0.48980  Biso   1.000  C
  C46      1.0000 0.25330  0.77920  0.01020  Biso   1.000  C
  C47      1.0000 0.25330  0.22080  0.51020  Biso   1.000  C
  C48      1.0000 0.74670  0.22080  0.98980  Biso   1.000  C
  H41      1.0000 0.68410  0.76530  0.47380  Biso   1.000  H
  H42      1.0000 0.31590  0.76530  0.02620  Biso   1.000  H
  H43      1.0000 0.31590  0.23470  0.52620  Biso   1.000  H
  H44      1.0000 0.68410  0.23470  0.97380  Biso   1.000  H
  C49      1.0000 0.80240  0.88730  0.47100  Biso   1.000  C
  C50      1.0000 0.19760  0.88730  0.02900  Biso   1.000  C
  C51      1.0000 0.19760  0.11270  0.52900  Biso   1.000  C
  C52      1.0000 0.80240  0.11270  0.97100  Biso   1.000  C
  H45      1.0000 0.78450  0.96120  0.43930  Biso   1.000  H
  H46      1.0000 0.21550  0.96120  0.06070  Biso   1.000  H
  H47      1.0000 0.21550  0.03880  0.56070  Biso   1.000  H
  H48      1.0000 0.78450  0.03880  0.93930  Biso   1.000  H
  C53      1.0000 0.77320  0.56040  0.56800  Biso   1.000  C
  C54      1.0000 0.22680  0.56040  0.93200  Biso   1.000  C
  C55      1.0000 0.22680  0.43960  0.43200  Biso   1.000  C
  C56      1.0000 0.77320  0.43960  0.06800  Biso   1.000  C
  H49      1.0000 0.82720  0.52080  0.59580  Biso   1.000  H
  H50      1.0000 0.17280  0.52080  0.90420  Biso   1.000  H
  H51      1.0000 0.17280  0.47920  0.40420  Biso   1.000  H
  H52      1.0000 0.82720  0.47920  0.09580  Biso   1.000  H
  H53      1.0000 0.75620  0.49860  0.52570  Biso   1.000  H
  H54      1.0000 0.24380  0.49860  0.97430  Biso   1.000  H
  H55      1.0000 0.24380  0.50140  0.47430  Biso   1.000  H
  H56      1.0000 0.75620  0.50140  0.02570  Biso   1.000  H
  C57      1.0000 0.69110  0.57050  0.62190  Biso   1.000  C
  C58      1.0000 0.30890  0.57050  0.87810  Biso   1.000  C
  C59      1.0000 0.30890  0.42950  0.37810  Biso   1.000  C
  C60      1.0000 0.69110  0.42950  0.12190  Biso   1.000  C
  C61      1.0000 0.59980  0.54120  0.59640  Biso   1.000  C
  C62      1.0000 0.40020  0.54120  0.90360  Biso   1.000  C
  C63      1.0000 0.40020  0.45880  0.40360  Biso   1.000  C
  C64      1.0000 0.59980  0.45880  0.09640  Biso   1.000  C
  H57      1.0000 0.58840  0.51590  0.54510  Biso   1.000  H
  H58      1.0000 0.41160  0.51590  0.95490  Biso   1.000  H
  H59      1.0000 0.41160  0.48410  0.45490  Biso   1.000  H
  H60      1.0000 0.58840  0.48410  0.04510  Biso   1.000  H
  C65      1.0000 0.70720  0.60840  0.69890  Biso   1.000  C
  C66      1.0000 0.29280  0.60840  0.80110  Biso   1.000  C
  C67      1.0000 0.29280  0.39160  0.30110  Biso   1.000  C
  C68      1.0000 0.70720  0.39160  0.19890  Biso   1.000  C
  H61      1.0000 0.76810  0.62920  0.71710  Biso   1.000  H
  H62      1.0000 0.23190  0.62920  0.78290  Biso   1.000  H
  H63      1.0000 0.23190  0.37080  0.28290  Biso   1.000  H
  H64      1.0000 0.76810  0.37080  0.21710  Biso   1.000  H
  C69      1.0000 0.52510  0.54890  0.64590  Biso   1.000  C
  C70      1.0000 0.47490  0.54890  0.85410  Biso   1.000  C
  C71      1.0000 0.47490  0.45110  0.35410  Biso   1.000  C
  C72      1.0000 0.52510  0.45110  0.14590  Biso   1.000  C
  H65      1.0000 0.46420  0.52990  0.62730  Biso   1.000  H
  H66      1.0000 0.53580  0.52990  0.87270  Biso   1.000  H
  H67      1.0000 0.53580  0.47010  0.37270  Biso   1.000  H
  H68      1.0000 0.46420  0.47010  0.12730  Biso   1.000  H
  C73      1.0000 0.63220  0.61510  0.74810  Biso   1.000  C
  C74      1.0000 0.36780  0.61510  0.75190  Biso   1.000  C
  C75      1.0000 0.36780  0.38490  0.25190  Biso   1.000  C
  C76      1.0000 0.63220  0.38490  0.24810  Biso   1.000  C
  H69      1.0000 0.64360  0.64070  0.79930  Biso   1.000  H
  H70      1.0000 0.35640  0.64070  0.70070  Biso   1.000  H
  H71      1.0000 0.35640  0.35930  0.20070  Biso   1.000  H
  H72      1.0000 0.64360  0.35930  0.29930  Biso   1.000  H
  C77      1.0000 0.53980  0.58460  0.72340  Biso   1.000  C
  C78      1.0000 0.46020  0.58460  0.77660  Biso   1.000  C
  C79      1.0000 0.46020  0.41540  0.27660  Biso   1.000  C
  C80      1.0000 0.53980  0.41540  0.22340  Biso   1.000  C
  N1       1.0000 0.95300  0.10280  0.59110  Biso   1.000  N
  N2       1.0000 0.04700  0.10280  0.90890  Biso   1.000  N
  N3       1.0000 0.04700  0.89720  0.40890  Biso   1.000  N
  N4       1.0000 0.95300  0.89720  0.09110  Biso   1.000  N
  N5       1.0000 0.89790  0.14260  0.70640  Biso   1.000  N
  N6       1.0000 0.10210  0.14260  0.79360  Biso   1.000  N
  N7       1.0000 0.10210  0.85740  0.29360  Biso   1.000  N
  N8       1.0000 0.89790  0.85740  0.20640  Biso   1.000  N
  N9       1.0000 0.88970  0.86980  0.50630  Biso   1.000  N
  N10      1.0000 0.11030  0.86980  0.99370  Biso   1.000  N
  N11      1.0000 0.11030  0.13020  0.49370  Biso   1.000  N
  N12      1.0000 0.88970  0.13020  0.00630  Biso   1.000  N
  N13      1.0000 0.79980  0.69500  0.53670  Biso   1.000  N
  N14      1.0000 0.20020  0.69500  0.96330  Biso   1.000  N
  N15      1.0000 0.20020  0.30500  0.46330  Biso   1.000  N
  N16      1.0000 0.79980  0.30500  0.03670  Biso   1.000  N
  O1       1.0000 0.09850  0.83650  0.58460  Biso   1.000  O
  O2       1.0000 0.90150  0.83650  0.91540  Biso   1.000  O
  O3       1.0000 0.90150  0.16350  0.41540  Biso   1.000  O
  O4       1.0000 0.09850  0.16350  0.08460  Biso   1.000  O
  Cu1      1.0000 0.00000  0.00000  0.50000  Biso   1.000  Cu
  Cu2      1.0000 0.00000  0.00000  0.00000  Biso   1.000  Cu
  C81      1.0000 0.42440  0.86170  0.54980  Biso   1.000  C
  C82      1.0000 0.57560  0.86170  0.95020  Biso   1.000  C
  C83      1.0000 0.57560  0.13830  0.45020  Biso   1.000  C
  C84      1.0000 0.42440  0.13830  0.04980  Biso   1.000  C
  H73      1.0000 0.43740  0.82370  0.60030  Biso   1.000  H
  H74      1.0000 0.56260  0.82370  0.89970  Biso   1.000  H
  H75      1.0000 0.56260  0.17630  0.39970  Biso   1.000  H
  H76      1.0000 0.43740  0.17630  0.10030  Biso   1.000  H
  H77      1.0000 0.41160  0.95900  0.55420  Biso   1.000  H
  H78      1.0000 0.58840  0.95900  0.94580  Biso   1.000  H
  H79      1.0000 0.58840  0.04100  0.44580  Biso   1.000  H
  H80      1.0000 0.41160  0.04100  0.05420  Biso   1.000  H
  H81      1.0000 0.47820  0.84810  0.51820  Biso   1.000  H
  H82      1.0000 0.52180  0.84810  0.98180  Biso   1.000  H
  H83      1.0000 0.52180  0.15190  0.48180  Biso   1.000  H
  H84      1.0000 0.47820  0.15190  0.01820  Biso   1.000  H
  C85      1.0000 0.34350  0.79310  0.51510  Biso   1.000  C
  C86      1.0000 0.65650  0.79310  0.98490  Biso   1.000  C
  C87      1.0000 0.65650  0.20690  0.48490  Biso   1.000  C
  C88      1.0000 0.34350  0.20690  0.01510  Biso   1.000  C
  C89      1.0000 0.31390  0.82190  0.43430  Biso   1.000  C
  C90      1.0000 0.68610  0.82190  0.06570  Biso   1.000  C
  C91      1.0000 0.68610  0.17810  0.56570  Biso   1.000  C
  C92      1.0000 0.31390  0.17810  0.93430  Biso   1.000  C
  H85      1.0000 0.25580  0.77420  0.42230  Biso   1.000  H
  H86      1.0000 0.74420  0.77420  0.07770  Biso   1.000  H
  H87      1.0000 0.74420  0.22580  0.57770  Biso   1.000  H
  H88      1.0000 0.25580  0.22580  0.92230  Biso   1.000  H
  H89      1.0000 0.36190  0.79040  0.40050  Biso   1.000  H
  H90      1.0000 0.63810  0.79040  0.09950  Biso   1.000  H
  H91      1.0000 0.63810  0.20960  0.59950  Biso   1.000  H
  H92      1.0000 0.36190  0.20960  0.90050  Biso   1.000  H
  H93      1.0000 0.30470  0.91970  0.42760  Biso   1.000  H
  H94      1.0000 0.69530  0.91970  0.07240  Biso   1.000  H
  H95      1.0000 0.69530  0.08030  0.57240  Biso   1.000  H
  H96      1.0000 0.30470  0.08030  0.92760  Biso   1.000  H
  O5       1.0000 0.29860  0.71500  0.55520  Biso   1.000  O
  O6       1.0000 0.70140  0.71500  0.94480  Biso   1.000  O
  O7       1.0000 0.70140  0.28500  0.44480  Biso   1.000  O
  O8       1.0000 0.29860  0.28500  0.05520  Biso   1.000  O
  O9       1.0000 0.97840  0.58590  0.68240  Biso   1.000  O
  O10      1.0000 0.02160  0.58590  0.81760  Biso   1.000  O
  O11      1.0000 0.02160  0.41410  0.31760  Biso   1.000  O
  O12      1.0000 0.97840  0.41410  0.18240  Biso   1.000  O
  O13      1.0000 0.08200  0.76090  0.73440  Biso   1.000  O
  O14      1.0000 0.91800  0.76090  0.76560  Biso   1.000  O
  O15      1.0000 0.91800  0.23910  0.26560  Biso   1.000  O
  O16      1.0000 0.08200  0.23910  0.23440  Biso   1.000  O
  S1       1.0000 0.00000  0.67305  0.75000  Biso   1.000  S
  S2       1.0000 0.00000  0.32695  0.25000  Biso   1.000  S
  O17      1.0000 0.13270  0.49550  0.60620  Biso   1.000  O
  O18      1.0000 0.86730  0.49550  0.89380  Biso   1.000  O
  O19      1.0000 0.86730  0.50450  0.39380  Biso   1.000  O
  O20      1.0000 0.13270  0.50450  0.10620  Biso   1.000  O
