data_image0
_cell_length_a       10.08
_cell_length_b       11.308
_cell_length_c       8.952
_cell_angle_alpha    113.3
_cell_angle_beta     108.92
_cell_angle_gamma    84.64

_symmetry_space_group_name_H-M    "P 1"
_symmetry_int_tables_number       1

loop_
  _symmetry_equiv_pos_as_xyz
  'x, y, z'

loop_
  _atom_site_label
  _atom_site_occupancy
  _atom_site_fract_x
  _atom_site_fract_y
  _atom_site_fract_z
  _atom_site_thermal_displace_type
  _atom_site_B_iso_or_equiv
  _atom_site_type_symbol
  Cu1      1.0000 0.47683  0.99001  0.12658  Biso   1.000  Cu
  Cu2      1.0000 0.52317  0.00999  0.87342  Biso   1.000  Cu
  O1       1.0000 0.50230  0.17850  0.23700  Biso   1.000  O
  O2       1.0000 0.49770  0.82150  0.76300  Biso   1.000  O
  O3       1.0000 0.46070  0.80470  0.98730  Biso   1.000  O
  O4       1.0000 0.53930  0.19530  0.01270  Biso   1.000  O
  O5       1.0000 0.28040  0.00870  0.00960  Biso   1.000  O
  O6       1.0000 0.71960  0.99130  0.99040  Biso   1.000  O
  O7       1.0000 0.68050  0.97610  0.21380  Biso   1.000  O
  O8       1.0000 0.31950  0.02390  0.78620  Biso   1.000  O
  O9       1.0000 0.41970  0.96060  0.32680  Biso   1.000  O
  O10      1.0000 0.58030  0.03940  0.67320  Biso   1.000  O
  C1       1.0000 0.52970  0.24280  0.16260  Biso   1.000  C
  C2       1.0000 0.47030  0.75720  0.83740  Biso   1.000  C
  C3       1.0000 0.55440  0.38690  0.25780  Biso   1.000  C
  C4       1.0000 0.44560  0.61310  0.74220  Biso   1.000  C
  C5       1.0000 0.70720  0.43260  0.34260  Biso   1.000  C
  C6       1.0000 0.29280  0.56740  0.65740  Biso   1.000  C
  C7       1.0000 0.76520  0.37440  0.48200  Biso   1.000  C
  C8       1.0000 0.23480  0.62560  0.51800  Biso   1.000  C
  C9       1.0000 0.71720  0.57730  0.43750  Biso   1.000  C
  C10      1.0000 0.28280  0.42270  0.56250  Biso   1.000  C
  C11      1.0000 0.79440  0.39000  0.23200  Biso   1.000  C
  C12      1.0000 0.20560  0.61000  0.76800  Biso   1.000  C
  C13      1.0000 0.24050  0.02560  0.87140  Biso   1.000  C
  C14      1.0000 0.75950  0.97440  0.12860  Biso   1.000  C
  C15      1.0000 0.08780  0.05150  0.80530  Biso   1.000  C
  C16      1.0000 0.91220  0.94850  0.19470  Biso   1.000  C
  C17      1.0000 0.05530  0.19530  0.86540  Biso   1.000  C
  C18      1.0000 0.94470  0.80470  0.13460  Biso   1.000  C
  C19      1.0000 0.12900  0.26270  0.79700  Biso   1.000  C
  C20      1.0000 0.87100  0.73730  0.20300  Biso   1.000  C
  C21      1.0000 0.10080  0.25670  0.05920  Biso   1.000  C
  C22      1.0000 0.89920  0.74330  0.94080  Biso   1.000  C
  C23      1.0000 0.89660  0.20510  0.79580  Biso   1.000  C
  C24      1.0000 0.10340  0.79490  0.20420  Biso   1.000  C
  C25      1.0000 0.38090  0.06790  0.45510  Biso   1.000  C
  C26      1.0000 0.61910  0.93210  0.54490  Biso   1.000  C
  C27      1.0000 0.49230  0.86880  0.39540  Biso   1.000  C
  C28      1.0000 0.50770  0.13120  0.60460  Biso   1.000  C
  H1       1.0000 0.51190  0.42680  0.17770  Biso   1.000  H
  H2       1.0000 0.48810  0.57320  0.82230  Biso   1.000  H
  H3       1.0000 0.50960  0.41420  0.34510  Biso   1.000  H
  H4       1.0000 0.49040  0.58580  0.65490  Biso   1.000  H
  H5       1.0000 0.70930  0.40090  0.55810  Biso   1.000  H
  H6       1.0000 0.29070  0.59910  0.44190  Biso   1.000  H
  H7       1.0000 0.76130  0.28210  0.42830  Biso   1.000  H
  H8       1.0000 0.23870  0.71790  0.57170  Biso   1.000  H
  H9       1.0000 0.86070  0.40460  0.54690  Biso   1.000  H
  H10      1.0000 0.13930  0.59540  0.45310  Biso   1.000  H
  H11      1.0000 0.81250  0.60430  0.50720  Biso   1.000  H
  H12      1.0000 0.18750  0.39570  0.49280  Biso   1.000  H
  H13      1.0000 0.68750  0.61790  0.35650  Biso   1.000  H
  H14      1.0000 0.31250  0.38210  0.64350  Biso   1.000  H
  H15      1.0000 0.65780  0.60180  0.50900  Biso   1.000  H
  H16      1.0000 0.34220  0.39820  0.49100  Biso   1.000  H
  H17      1.0000 0.79050  0.29750  0.18010  Biso   1.000  H
  H18      1.0000 0.20950  0.70250  0.81990  Biso   1.000  H
  H19      1.0000 0.76100  0.42370  0.14370  Biso   1.000  H
  H20      1.0000 0.23900  0.57630  0.85630  Biso   1.000  H
  H21      1.0000 0.88960  0.42040  0.29780  Biso   1.000  H
  H22      1.0000 0.11040  0.57960  0.70220  Biso   1.000  H
  H23      1.0000 0.05920  0.01550  0.68240  Biso   1.000  H
  H24      1.0000 0.94080  0.98450  0.31760  Biso   1.000  H
  H25      1.0000 0.03470  0.00990  0.84370  Biso   1.000  H
  H26      1.0000 0.96530  0.99010  0.15630  Biso   1.000  H
  H27      1.0000 0.22870  0.25640  0.84090  Biso   1.000  H
  H28      1.0000 0.77130  0.74360  0.15910  Biso   1.000  H
  H29      1.0000 0.09930  0.22300  0.67400  Biso   1.000  H
  H30      1.0000 0.90070  0.77700  0.32600  Biso   1.000  H
  H31      1.0000 0.10590  0.35190  0.83200  Biso   1.000  H
  H32      1.0000 0.89410  0.64810  0.16800  Biso   1.000  H
  H33      1.0000 0.20050  0.25150  0.10410  Biso   1.000  H
  H34      1.0000 0.79950  0.74850  0.89590  Biso   1.000  H
  H35      1.0000 0.07630  0.34560  0.09510  Biso   1.000  H
  H36      1.0000 0.92370  0.65440  0.90490  Biso   1.000  H
  H37      1.0000 0.05420  0.21230  0.10110  Biso   1.000  H
  H38      1.0000 0.94580  0.78770  0.89890  Biso   1.000  H
  H39      1.0000 0.87320  0.29410  0.83180  Biso   1.000  H
  H40      1.0000 0.12680  0.70590  0.16820  Biso   1.000  H
  H41      1.0000 0.86670  0.16580  0.67300  Biso   1.000  H
  H42      1.0000 0.13330  0.83420  0.32700  Biso   1.000  H
  H43      1.0000 0.85030  0.16150  0.83900  Biso   1.000  H
  H44      1.0000 0.14970  0.83850  0.16100  Biso   1.000  H
  H45      1.0000 0.33640  0.12930  0.40710  Biso   1.000  H
  H46      1.0000 0.66360  0.87070  0.59290  Biso   1.000  H
  H47      1.0000 0.31670  0.03840  0.49330  Biso   1.000  H
  H48      1.0000 0.68330  0.96160  0.50670  Biso   1.000  H
  H49      1.0000 0.52100  0.80000  0.30820  Biso   1.000  H
  H50      1.0000 0.47900  0.20000  0.69180  Biso   1.000  H
  H51      1.0000 0.43050  0.83470  0.43210  Biso   1.000  H
  H52      1.0000 0.56950  0.16530  0.56790  Biso   1.000  H
