data_image0
_cell_length_a       6.8414
_cell_length_b       30.77
_cell_length_c       13.349
_cell_angle_alpha    90
_cell_angle_beta     103.68
_cell_angle_gamma    90

_symmetry_space_group_name_H-M    "P 1"
_symmetry_int_tables_number       1

loop_
  _symmetry_equiv_pos_as_xyz
  'x, y, z'

loop_
  _atom_site_label
  _atom_site_occupancy
  _atom_site_fract_x
  _atom_site_fract_y
  _atom_site_fract_z
  _atom_site_thermal_displace_type
  _atom_site_B_iso_or_equiv
  _atom_site_type_symbol
  C1       1.0000 0.41680  0.13300  0.73630  Biso   1.000  C
  C2       1.0000 0.08320  0.63300  0.76370  Biso   1.000  C
  C3       1.0000 0.58320  0.86700  0.26370  Biso   1.000  C
  C4       1.0000 0.91680  0.36700  0.23630  Biso   1.000  C
  C5       1.0000 0.08380  0.13261  0.78180  Biso   1.000  C
  C6       1.0000 0.41620  0.63261  0.71820  Biso   1.000  C
  C7       1.0000 0.91620  0.86739  0.21820  Biso   1.000  C
  C8       1.0000 0.58380  0.36739  0.28180  Biso   1.000  C
  C9       1.0000 0.07240  0.08779  0.62160  Biso   1.000  C
  C10      1.0000 0.42760  0.58779  0.87840  Biso   1.000  C
  C11      1.0000 0.92760  0.91221  0.37840  Biso   1.000  C
  C12      1.0000 0.57240  0.41221  0.12160  Biso   1.000  C
  C13      1.0000 0.43220  0.08451  0.88740  Biso   1.000  C
  C14      1.0000 0.06780  0.58451  0.61260  Biso   1.000  C
  C15      1.0000 0.56780  0.91549  0.11260  Biso   1.000  C
  C16      1.0000 0.93220  0.41549  0.38740  Biso   1.000  C
  C17      1.0000 0.54490  0.04289  0.65360  Biso   1.000  C
  C18      1.0000 0.95510  0.54289  0.84640  Biso   1.000  C
  C19      1.0000 0.45510  0.95711  0.34640  Biso   1.000  C
  C20      1.0000 0.04490  0.45711  0.15360  Biso   1.000  C
  H1       1.0000 0.59180  0.07030  0.64120  Biso   1.000  H
  H2       1.0000 0.90820  0.57030  0.85880  Biso   1.000  H
  H3       1.0000 0.40820  0.92970  0.35880  Biso   1.000  H
  H4       1.0000 0.09180  0.42970  0.14120  Biso   1.000  H
  C21      1.0000 0.62740  0.00586  0.62090  Biso   1.000  C
  C22      1.0000 0.87260  0.50586  0.87910  Biso   1.000  C
  C23      1.0000 0.37260  0.99414  0.37910  Biso   1.000  C
  C24      1.0000 0.12740  0.49414  0.12090  Biso   1.000  C
  H5       1.0000 0.73030  0.00840  0.58650  Biso   1.000  H
  H6       1.0000 0.76970  0.50840  0.91350  Biso   1.000  H
  H7       1.0000 0.26970  0.99160  0.41350  Biso   1.000  H
  H8       1.0000 0.23030  0.49160  0.08650  Biso   1.000  H
  C25      1.0000 0.55650  0.96485  0.63940  Biso   1.000  C
  C26      1.0000 0.94350  0.46485  0.86060  Biso   1.000  C
  C27      1.0000 0.44350  0.03515  0.36060  Biso   1.000  C
  C28      1.0000 0.05650  0.53515  0.13940  Biso   1.000  C
  C29      1.0000 0.40460  0.96108  0.69080  Biso   1.000  C
  C30      1.0000 0.09540  0.46108  0.80920  Biso   1.000  C
  C31      1.0000 0.59540  0.03892  0.30920  Biso   1.000  C
  C32      1.0000 0.90460  0.53892  0.19080  Biso   1.000  C
  H9       1.0000 0.35780  0.93370  0.70310  Biso   1.000  H
  H10      1.0000 0.14220  0.43370  0.79690  Biso   1.000  H
  H11      1.0000 0.64220  0.06630  0.29690  Biso   1.000  H
  H12      1.0000 0.85780  0.56630  0.20310  Biso   1.000  H
  C33      1.0000 0.32120  0.99767  0.72410  Biso   1.000  C
  C34      1.0000 0.17880  0.49767  0.77590  Biso   1.000  C
  C35      1.0000 0.67880  0.00233  0.27590  Biso   1.000  C
  C36      1.0000 0.82120  0.50233  0.22410  Biso   1.000  C
  C37      1.0000 0.16920  0.99747  0.77880  Biso   1.000  C
  C38      1.0000 0.33080  0.49747  0.72120  Biso   1.000  C
  C39      1.0000 0.83080  0.00253  0.22120  Biso   1.000  C
  C40      1.0000 0.66920  0.50253  0.27880  Biso   1.000  C
  C41      1.0000 0.08600  0.95996  0.80820  Biso   1.000  C
  C42      1.0000 0.41400  0.45996  0.69180  Biso   1.000  C
  C43      1.0000 0.91400  0.04004  0.19180  Biso   1.000  C
  C44      1.0000 0.58600  0.54004  0.30820  Biso   1.000  C
  H13      1.0000 0.13270  0.93300  0.79280  Biso   1.000  H
  H14      1.0000 0.36730  0.43300  0.70720  Biso   1.000  H
  H15      1.0000 0.86730  0.06700  0.20720  Biso   1.000  H
  H16      1.0000 0.63270  0.56700  0.29280  Biso   1.000  H
  C45      1.0000 0.93410  0.96239  0.86020  Biso   1.000  C
  C46      1.0000 0.56590  0.46239  0.63980  Biso   1.000  C
  C47      1.0000 0.06590  0.03761  0.13980  Biso   1.000  C
  C48      1.0000 0.43410  0.53761  0.36020  Biso   1.000  C
  C49      1.0000 0.86610  0.00289  0.88480  Biso   1.000  C
  C50      1.0000 0.63390  0.50289  0.61520  Biso   1.000  C
  C51      1.0000 0.13390  0.99711  0.11520  Biso   1.000  C
  C52      1.0000 0.36610  0.49711  0.38480  Biso   1.000  C
  H17      1.0000 0.76480  0.00460  0.92030  Biso   1.000  H
  H18      1.0000 0.73520  0.50460  0.57970  Biso   1.000  H
  H19      1.0000 0.23520  0.99540  0.07970  Biso   1.000  H
  H20      1.0000 0.26480  0.49540  0.42030  Biso   1.000  H
  C53      1.0000 0.95010  0.04067  0.85600  Biso   1.000  C
  C54      1.0000 0.54990  0.54067  0.64400  Biso   1.000  C
  C55      1.0000 0.04990  0.95933  0.14400  Biso   1.000  C
  C56      1.0000 0.45010  0.45933  0.35600  Biso   1.000  C
  H21      1.0000 0.90480  0.06770  0.87210  Biso   1.000  H
  H22      1.0000 0.59520  0.56770  0.62790  Biso   1.000  H
  H23      1.0000 0.09520  0.93230  0.12790  Biso   1.000  H
  H24      1.0000 0.40480  0.43230  0.37210  Biso   1.000  H
  C57      1.0000 0.64190  0.92900  0.58770  Biso   1.000  C
  C58      1.0000 0.85810  0.42900  0.91230  Biso   1.000  C
  C59      1.0000 0.35810  0.07100  0.41230  Biso   1.000  C
  C60      1.0000 0.14190  0.57100  0.08770  Biso   1.000  C
  H25      1.0000 0.65850  0.90350  0.63030  Biso   1.000  H
  H26      1.0000 0.84150  0.40350  0.86970  Biso   1.000  H
  H27      1.0000 0.34150  0.09650  0.36970  Biso   1.000  H
  H28      1.0000 0.15850  0.59650  0.13030  Biso   1.000  H
  H29      1.0000 0.77020  0.93770  0.57700  Biso   1.000  H
  H30      1.0000 0.72980  0.43770  0.92300  Biso   1.000  H
  H31      1.0000 0.22980  0.06230  0.42300  Biso   1.000  H
  H32      1.0000 0.27020  0.56230  0.07700  Biso   1.000  H
  H33      1.0000 0.55210  0.92270  0.52240  Biso   1.000  H
  H34      1.0000 0.94790  0.42270  0.97760  Biso   1.000  H
  H35      1.0000 0.44790  0.07730  0.47760  Biso   1.000  H
  H36      1.0000 0.05210  0.57730  0.02240  Biso   1.000  H
  C61      1.0000 0.84480  0.92539  0.90730  Biso   1.000  C
  C62      1.0000 0.65520  0.42539  0.59270  Biso   1.000  C
  C63      1.0000 0.15520  0.07461  0.09270  Biso   1.000  C
  C64      1.0000 0.34480  0.57461  0.40730  Biso   1.000  C
  H37      1.0000 0.74660  0.93640  0.94160  Biso   1.000  H
  H38      1.0000 0.75340  0.43640  0.55840  Biso   1.000  H
  H39      1.0000 0.25340  0.06360  0.05840  Biso   1.000  H
  H40      1.0000 0.24660  0.56360  0.44160  Biso   1.000  H
  H41      1.0000 0.94910  0.91070  0.95630  Biso   1.000  H
  H42      1.0000 0.55090  0.41070  0.54370  Biso   1.000  H
  H43      1.0000 0.05090  0.08930  0.04370  Biso   1.000  H
  H44      1.0000 0.44910  0.58930  0.45630  Biso   1.000  H
  H45      1.0000 0.78150  0.90540  0.85420  Biso   1.000  H
  H46      1.0000 0.71850  0.40540  0.64580  Biso   1.000  H
  H47      1.0000 0.21850  0.09460  0.14580  Biso   1.000  H
  H48      1.0000 0.28150  0.59460  0.35420  Biso   1.000  H
  C65      1.0000 0.74370  0.17164  0.00320  Biso   1.000  C
  C66      1.0000 0.75630  0.67164  0.49680  Biso   1.000  C
  C67      1.0000 0.25630  0.82836  0.99680  Biso   1.000  C
  C68      1.0000 0.24370  0.32836  0.50320  Biso   1.000  C
  H49      1.0000 0.73970  0.14350  0.97710  Biso   1.000  H
  H50      1.0000 0.76030  0.64350  0.52290  Biso   1.000  H
  H51      1.0000 0.26030  0.85650  0.02290  Biso   1.000  H
  H52      1.0000 0.23970  0.35650  0.47710  Biso   1.000  H
  C69      1.0000 0.74750  0.17839  0.10670  Biso   1.000  C
  C70      1.0000 0.75250  0.67839  0.39330  Biso   1.000  C
  C71      1.0000 0.25250  0.82161  0.89330  Biso   1.000  C
  C72      1.0000 0.24750  0.32161  0.60670  Biso   1.000  C
  H53      1.0000 0.74400  0.15480  0.14970  Biso   1.000  H
  H54      1.0000 0.75600  0.65480  0.35030  Biso   1.000  H
  H55      1.0000 0.25600  0.84520  0.85030  Biso   1.000  H
  H56      1.0000 0.24400  0.34520  0.64970  Biso   1.000  H
  C73      1.0000 0.75650  0.22059  0.14590  Biso   1.000  C
  C74      1.0000 0.74350  0.72059  0.35410  Biso   1.000  C
  C75      1.0000 0.24350  0.77941  0.85410  Biso   1.000  C
  C76      1.0000 0.25650  0.27941  0.64590  Biso   1.000  C
  H57      1.0000 0.76040  0.22520  0.21520  Biso   1.000  H
  H58      1.0000 0.73960  0.72520  0.28480  Biso   1.000  H
  H59      1.0000 0.23960  0.77480  0.78480  Biso   1.000  H
  H60      1.0000 0.26040  0.27480  0.71520  Biso   1.000  H
  C77      1.0000 0.75960  0.25576  0.08070  Biso   1.000  C
  C78      1.0000 0.74040  0.75576  0.41930  Biso   1.000  C
  C79      1.0000 0.24040  0.74424  0.91930  Biso   1.000  C
  C80      1.0000 0.25960  0.24424  0.58070  Biso   1.000  C
  H61      1.0000 0.76510  0.28390  0.10650  Biso   1.000  H
  H62      1.0000 0.73490  0.78390  0.39350  Biso   1.000  H
  H63      1.0000 0.23490  0.71610  0.89350  Biso   1.000  H
  H64      1.0000 0.26510  0.21610  0.60650  Biso   1.000  H
  C81      1.0000 0.75460  0.24908  0.97730  Biso   1.000  C
  C82      1.0000 0.74540  0.74908  0.52270  Biso   1.000  C
  C83      1.0000 0.24540  0.75092  0.02270  Biso   1.000  C
  C84      1.0000 0.25460  0.25092  0.47730  Biso   1.000  C
  C85      1.0000 0.75410  0.28279  0.90820  Biso   1.000  C
  C86      1.0000 0.74590  0.78279  0.59180  Biso   1.000  C
  C87      1.0000 0.24590  0.71721  0.09180  Biso   1.000  C
  C88      1.0000 0.25410  0.21721  0.40820  Biso   1.000  C
  C89      1.0000 0.74470  0.29664  0.71080  Biso   1.000  C
  C90      1.0000 0.75530  0.79664  0.78920  Biso   1.000  C
  C91      1.0000 0.25530  0.70336  0.28920  Biso   1.000  C
  C92      1.0000 0.24470  0.20336  0.21080  Biso   1.000  C
  C93      1.0000 0.74760  0.27697  0.60980  Biso   1.000  C
  C94      1.0000 0.75240  0.77697  0.89020  Biso   1.000  C
  C95      1.0000 0.25240  0.72303  0.39020  Biso   1.000  C
  C96      1.0000 0.24760  0.22303  0.10980  Biso   1.000  C
  C97      1.0000 0.74120  0.29670  0.51600  Biso   1.000  C
  C98      1.0000 0.75880  0.79670  0.98400  Biso   1.000  C
  C99      1.0000 0.25880  0.70330  0.48400  Biso   1.000  C
  C100     1.0000 0.24120  0.20330  0.01600  Biso   1.000  C
  H65      1.0000 0.73980  0.32690  0.51100  Biso   1.000  H
  H66      1.0000 0.76020  0.82690  0.98900  Biso   1.000  H
  H67      1.0000 0.26020  0.67310  0.48900  Biso   1.000  H
  H68      1.0000 0.23980  0.17310  0.01100  Biso   1.000  H
  C101     1.0000 0.73700  0.27152  0.42950  Biso   1.000  C
  C102     1.0000 0.76300  0.77152  0.07050  Biso   1.000  C
  C103     1.0000 0.26300  0.72848  0.57050  Biso   1.000  C
  C104     1.0000 0.23700  0.22848  0.92950  Biso   1.000  C
  H69      1.0000 0.73180  0.28480  0.36630  Biso   1.000  H
  H70      1.0000 0.76820  0.78480  0.13370  Biso   1.000  H
  H71      1.0000 0.26820  0.71520  0.63370  Biso   1.000  H
  H72      1.0000 0.23180  0.21520  0.86630  Biso   1.000  H
  C105     1.0000 0.74040  0.22673  0.43680  Biso   1.000  C
  C106     1.0000 0.75960  0.72673  0.06320  Biso   1.000  C
  C107     1.0000 0.25960  0.77327  0.56320  Biso   1.000  C
  C108     1.0000 0.24040  0.27327  0.93680  Biso   1.000  C
  H73      1.0000 0.73740  0.20990  0.37860  Biso   1.000  H
  H74      1.0000 0.76260  0.70990  0.12140  Biso   1.000  H
  H75      1.0000 0.26260  0.79010  0.62140  Biso   1.000  H
  H76      1.0000 0.23740  0.29010  0.87860  Biso   1.000  H
  C109     1.0000 0.74830  0.20676  0.53100  Biso   1.000  C
  C110     1.0000 0.75170  0.70676  0.96900  Biso   1.000  C
  C111     1.0000 0.25170  0.79324  0.46900  Biso   1.000  C
  C112     1.0000 0.24830  0.29324  0.03100  Biso   1.000  C
  H77      1.0000 0.75210  0.17660  0.53590  Biso   1.000  H
  H78      1.0000 0.74790  0.67660  0.96410  Biso   1.000  H
  H79      1.0000 0.24790  0.82340  0.46410  Biso   1.000  H
  H80      1.0000 0.25210  0.32340  0.03590  Biso   1.000  H
  Cu1      1.0000 0.75603  0.20604  0.77473  Biso   1.000  Cu
  Cu2      1.0000 0.74397  0.70604  0.72527  Biso   1.000  Cu
  Cu3      1.0000 0.24397  0.79396  0.22527  Biso   1.000  Cu
  Cu4      1.0000 0.25603  0.29396  0.27473  Biso   1.000  Cu
  Fe1      1.0000 0.24984  0.08678  0.75522  Biso   1.000  Fe
  Fe2      1.0000 0.25016  0.58678  0.74478  Biso   1.000  Fe
  Fe3      1.0000 0.75016  0.91322  0.24478  Biso   1.000  Fe
  Fe4      1.0000 0.74984  0.41322  0.25522  Biso   1.000  Fe
  N1       1.0000 0.52380  0.16161  0.72650  Biso   1.000  N
  N2       1.0000 0.97620  0.66161  0.77350  Biso   1.000  N
  N3       1.0000 0.47620  0.83839  0.27350  Biso   1.000  N
  N4       1.0000 0.02380  0.33839  0.22650  Biso   1.000  N
  N5       1.0000 0.98200  0.16140  0.79830  Biso   1.000  N
  N6       1.0000 0.51800  0.66140  0.70170  Biso   1.000  N
  N7       1.0000 0.01800  0.83860  0.20170  Biso   1.000  N
  N8       1.0000 0.48200  0.33860  0.29830  Biso   1.000  N
  N9       1.0000 0.96250  0.08872  0.53910  Biso   1.000  N
  N10      1.0000 0.53750  0.58872  0.96090  Biso   1.000  N
  N11      1.0000 0.03750  0.91128  0.46090  Biso   1.000  N
  N12      1.0000 0.46250  0.41128  0.03910  Biso   1.000  N
  N13      1.0000 0.54750  0.08299  0.96810  Biso   1.000  N
  N14      1.0000 0.95250  0.58299  0.53190  Biso   1.000  N
  N15      1.0000 0.45250  0.91701  0.03190  Biso   1.000  N
  N16      1.0000 0.04750  0.41701  0.46810  Biso   1.000  N
  N17      1.0000 0.39120  0.03872  0.70530  Biso   1.000  N
  N18      1.0000 0.10880  0.53872  0.79470  Biso   1.000  N
  N19      1.0000 0.60880  0.96128  0.29470  Biso   1.000  N
  N20      1.0000 0.89120  0.46128  0.20530  Biso   1.000  N
  N21      1.0000 0.10200  0.03788  0.80330  Biso   1.000  N
  N22      1.0000 0.39800  0.53788  0.69670  Biso   1.000  N
  N23      1.0000 0.89800  0.96212  0.19670  Biso   1.000  N
  N24      1.0000 0.60200  0.46212  0.30330  Biso   1.000  N
  N25      1.0000 0.74600  0.20717  0.93860  Biso   1.000  N
  N26      1.0000 0.75400  0.70717  0.56140  Biso   1.000  N
  N27      1.0000 0.25400  0.79283  0.06140  Biso   1.000  N
  N28      1.0000 0.24600  0.29283  0.43860  Biso   1.000  N
  N29      1.0000 0.75060  0.23185  0.61770  Biso   1.000  N
  N30      1.0000 0.74940  0.73185  0.88230  Biso   1.000  N
  N31      1.0000 0.24940  0.76815  0.38230  Biso   1.000  N
  N32      1.0000 0.25060  0.26815  0.11770  Biso   1.000  N
  N33      1.0000 0.75460  0.27333  0.80090  Biso   1.000  N
  N34      1.0000 0.74540  0.77333  0.69910  Biso   1.000  N
  N35      1.0000 0.24540  0.72667  0.19910  Biso   1.000  N
  N36      1.0000 0.25460  0.22667  0.30090  Biso   1.000  N
  O1       1.0000 0.74130  0.32087  0.93344  Biso   1.000  O
  O2       1.0000 0.75870  0.82087  0.56656  Biso   1.000  O
  O3       1.0000 0.25870  0.67913  0.06656  Biso   1.000  O
  O4       1.0000 0.24130  0.17913  0.43344  Biso   1.000  O
  O5       1.0000 0.74950  0.33633  0.72348  Biso   1.000  O
  O6       1.0000 0.75050  0.83633  0.77652  Biso   1.000  O
  O7       1.0000 0.25050  0.66367  0.27652  Biso   1.000  O
  O8       1.0000 0.24950  0.16367  0.22348  Biso   1.000  O
