data_image0
_cell_length_a       23.12
_cell_length_b       13.751
_cell_length_c       6.663
_cell_angle_alpha    90
_cell_angle_beta     100.43
_cell_angle_gamma    90

_symmetry_space_group_name_H-M    "P 1"
_symmetry_int_tables_number       1

loop_
  _symmetry_equiv_pos_as_xyz
  'x, y, z'

loop_
  _atom_site_label
  _atom_site_occupancy
  _atom_site_fract_x
  _atom_site_fract_y
  _atom_site_fract_z
  _atom_site_thermal_displace_type
  _atom_site_B_iso_or_equiv
  _atom_site_type_symbol
  Cu1      1.0000 0.06619  0.06371  0.35205  Biso   1.000  Cu
  Cu2      1.0000 0.56619  0.56371  0.35205  Biso   1.000  Cu
  Cu3      1.0000 0.93381  0.06371  0.14795  Biso   1.000  Cu
  Cu4      1.0000 0.43381  0.56371  0.14795  Biso   1.000  Cu
  Cu5      1.0000 0.93381  0.93629  0.64795  Biso   1.000  Cu
  Cu6      1.0000 0.43381  0.43629  0.64795  Biso   1.000  Cu
  Cu7      1.0000 0.06619  0.93629  0.85205  Biso   1.000  Cu
  Cu8      1.0000 0.56619  0.43629  0.85205  Biso   1.000  Cu
  N1       1.0000 0.00000  0.97020  0.25000  Biso   1.000  N
  N2       1.0000 0.50000  0.47020  0.25000  Biso   1.000  N
  N3       1.0000 0.00000  0.02980  0.75000  Biso   1.000  N
  N4       1.0000 0.50000  0.52980  0.75000  Biso   1.000  N
  N5       1.0000 0.00000  0.88330  0.25000  Biso   1.000  N
  N6       1.0000 0.50000  0.38330  0.25000  Biso   1.000  N
  N7       1.0000 0.00000  0.11670  0.75000  Biso   1.000  N
  N8       1.0000 0.50000  0.61670  0.75000  Biso   1.000  N
  N9       1.0000 0.00000  0.80140  0.25000  Biso   1.000  N
  N10      1.0000 0.50000  0.30140  0.25000  Biso   1.000  N
  N11      1.0000 0.00000  0.19860  0.75000  Biso   1.000  N
  N12      1.0000 0.50000  0.69860  0.75000  Biso   1.000  N
  N13      1.0000 0.00000  0.15020  0.25000  Biso   1.000  N
  N14      1.0000 0.50000  0.65020  0.25000  Biso   1.000  N
  N15      1.0000 0.00000  0.84980  0.75000  Biso   1.000  N
  N16      1.0000 0.50000  0.34980  0.75000  Biso   1.000  N
  N17      1.0000 0.00000  0.23980  0.25000  Biso   1.000  N
  N18      1.0000 0.50000  0.73980  0.25000  Biso   1.000  N
  N19      1.0000 0.00000  0.76020  0.75000  Biso   1.000  N
  N20      1.0000 0.50000  0.26020  0.75000  Biso   1.000  N
  N21      1.0000 0.00000  0.33190  0.25000  Biso   1.000  N
  N22      1.0000 0.50000  0.83190  0.25000  Biso   1.000  N
  N23      1.0000 0.00000  0.66810  0.75000  Biso   1.000  N
  N24      1.0000 0.50000  0.16810  0.75000  Biso   1.000  N
  N25      1.0000 0.11000  0.97070  0.55350  Biso   1.000  N
  N26      1.0000 0.61000  0.47070  0.55350  Biso   1.000  N
  N27      1.0000 0.89000  0.97070  0.94650  Biso   1.000  N
  N28      1.0000 0.39000  0.47070  0.94650  Biso   1.000  N
  N29      1.0000 0.89000  0.02930  0.44650  Biso   1.000  N
  N30      1.0000 0.39000  0.52930  0.44650  Biso   1.000  N
  N31      1.0000 0.11000  0.02930  0.05350  Biso   1.000  N
  N32      1.0000 0.61000  0.52930  0.05350  Biso   1.000  N
  N33      1.0000 0.16080  0.95500  0.56420  Biso   1.000  N
  N34      1.0000 0.66080  0.45500  0.56420  Biso   1.000  N
  N35      1.0000 0.83920  0.95500  0.93580  Biso   1.000  N
  N36      1.0000 0.33920  0.45500  0.93580  Biso   1.000  N
  N37      1.0000 0.83920  0.04500  0.43580  Biso   1.000  N
  N38      1.0000 0.33920  0.54500  0.43580  Biso   1.000  N
  N39      1.0000 0.16080  0.04500  0.06420  Biso   1.000  N
  N40      1.0000 0.66080  0.54500  0.06420  Biso   1.000  N
  N41      1.0000 0.20890  0.93660  0.57830  Biso   1.000  N
  N42      1.0000 0.70890  0.43660  0.57830  Biso   1.000  N
  N43      1.0000 0.79110  0.93660  0.92170  Biso   1.000  N
  N44      1.0000 0.29110  0.43660  0.92170  Biso   1.000  N
  N45      1.0000 0.79110  0.06340  0.42170  Biso   1.000  N
  N46      1.0000 0.29110  0.56340  0.42170  Biso   1.000  N
  N47      1.0000 0.20890  0.06340  0.07830  Biso   1.000  N
  N48      1.0000 0.70890  0.56340  0.07830  Biso   1.000  N
  N49      1.0000 0.12300  0.17290  0.42810  Biso   1.000  N
  N50      1.0000 0.62300  0.67290  0.42810  Biso   1.000  N
  N51      1.0000 0.87700  0.17290  0.07190  Biso   1.000  N
  N52      1.0000 0.37700  0.67290  0.07190  Biso   1.000  N
  N53      1.0000 0.87700  0.82710  0.57190  Biso   1.000  N
  N54      1.0000 0.37700  0.32710  0.57190  Biso   1.000  N
  N55      1.0000 0.12300  0.82710  0.92810  Biso   1.000  N
  N56      1.0000 0.62300  0.32710  0.92810  Biso   1.000  N
  C1       1.0000 0.12920  0.24000  0.28990  Biso   1.000  C
  C2       1.0000 0.62920  0.74000  0.28990  Biso   1.000  C
  C3       1.0000 0.87080  0.24000  0.21010  Biso   1.000  C
  C4       1.0000 0.37080  0.74000  0.21010  Biso   1.000  C
  C5       1.0000 0.87080  0.76000  0.71010  Biso   1.000  C
  C6       1.0000 0.37080  0.26000  0.71010  Biso   1.000  C
  C7       1.0000 0.12920  0.76000  0.78990  Biso   1.000  C
  C8       1.0000 0.62920  0.26000  0.78990  Biso   1.000  C
  C9       1.0000 0.16310  0.32440  0.33260  Biso   1.000  C
  C10      1.0000 0.66310  0.82440  0.33260  Biso   1.000  C
  C11      1.0000 0.83690  0.32440  0.16740  Biso   1.000  C
  C12      1.0000 0.33690  0.82440  0.16740  Biso   1.000  C
  C13      1.0000 0.83690  0.67560  0.66740  Biso   1.000  C
  C14      1.0000 0.33690  0.17560  0.66740  Biso   1.000  C
  C15      1.0000 0.16310  0.67560  0.83260  Biso   1.000  C
  C16      1.0000 0.66310  0.17560  0.83260  Biso   1.000  C
  C17      1.0000 0.19410  0.33210  0.53530  Biso   1.000  C
  C18      1.0000 0.69410  0.83210  0.53530  Biso   1.000  C
  C19      1.0000 0.80590  0.33210  0.96470  Biso   1.000  C
  C20      1.0000 0.30590  0.83210  0.96470  Biso   1.000  C
  C21      1.0000 0.80590  0.66790  0.46470  Biso   1.000  C
  C22      1.0000 0.30590  0.16790  0.46470  Biso   1.000  C
  C23      1.0000 0.19410  0.66790  0.03530  Biso   1.000  C
  C24      1.0000 0.69410  0.16790  0.03530  Biso   1.000  C
  C25      1.0000 0.18850  0.26520  0.67390  Biso   1.000  C
  C26      1.0000 0.68850  0.76520  0.67390  Biso   1.000  C
  C27      1.0000 0.81150  0.26520  0.82610  Biso   1.000  C
  C28      1.0000 0.31150  0.76520  0.82610  Biso   1.000  C
  C29      1.0000 0.81150  0.73480  0.32610  Biso   1.000  C
  C30      1.0000 0.31150  0.23480  0.32610  Biso   1.000  C
  C31      1.0000 0.18850  0.73480  0.17390  Biso   1.000  C
  C32      1.0000 0.68850  0.23480  0.17390  Biso   1.000  C
  C33      1.0000 0.15290  0.18540  0.61830  Biso   1.000  C
  C34      1.0000 0.65290  0.68540  0.61830  Biso   1.000  C
  C35      1.0000 0.84710  0.18540  0.88170  Biso   1.000  C
  C36      1.0000 0.34710  0.68540  0.88170  Biso   1.000  C
  C37      1.0000 0.84710  0.81460  0.38170  Biso   1.000  C
  C38      1.0000 0.34710  0.31460  0.38170  Biso   1.000  C
  C39      1.0000 0.15290  0.81460  0.11830  Biso   1.000  C
  C40      1.0000 0.65290  0.31460  0.11830  Biso   1.000  C
  C41      1.0000 0.16500  0.39960  0.16960  Biso   1.000  C
  C42      1.0000 0.66500  0.89960  0.16960  Biso   1.000  C
  C43      1.0000 0.83500  0.39960  0.33040  Biso   1.000  C
  C44      1.0000 0.33500  0.89960  0.33040  Biso   1.000  C
  C45      1.0000 0.83500  0.60040  0.83040  Biso   1.000  C
  C46      1.0000 0.33500  0.10040  0.83040  Biso   1.000  C
  C47      1.0000 0.16500  0.60040  0.66960  Biso   1.000  C
  C48      1.0000 0.66500  0.10040  0.66960  Biso   1.000  C
  H1       1.0000 0.10910  0.23010  0.15230  Biso   1.000  H
  H2       1.0000 0.60910  0.73010  0.15230  Biso   1.000  H
  H3       1.0000 0.89090  0.23010  0.34770  Biso   1.000  H
  H4       1.0000 0.39090  0.73010  0.34770  Biso   1.000  H
  H5       1.0000 0.89090  0.76990  0.84770  Biso   1.000  H
  H6       1.0000 0.39090  0.26990  0.84770  Biso   1.000  H
  H7       1.0000 0.10910  0.76990  0.65230  Biso   1.000  H
  H8       1.0000 0.60910  0.26990  0.65230  Biso   1.000  H
  H9       1.0000 0.21970  0.38670  0.57300  Biso   1.000  H
  H10      1.0000 0.71970  0.88670  0.57300  Biso   1.000  H
  H11      1.0000 0.78030  0.38670  0.92700  Biso   1.000  H
  H12      1.0000 0.28030  0.88670  0.92700  Biso   1.000  H
  H13      1.0000 0.78030  0.61330  0.42700  Biso   1.000  H
  H14      1.0000 0.28030  0.11330  0.42700  Biso   1.000  H
  H15      1.0000 0.21970  0.61330  0.07300  Biso   1.000  H
  H16      1.0000 0.71970  0.11330  0.07300  Biso   1.000  H
  H17      1.0000 0.20900  0.27230  0.81190  Biso   1.000  H
  H18      1.0000 0.70900  0.77230  0.81190  Biso   1.000  H
  H19      1.0000 0.79100  0.27230  0.68810  Biso   1.000  H
  H20      1.0000 0.29100  0.77230  0.68810  Biso   1.000  H
  H21      1.0000 0.79100  0.72770  0.18810  Biso   1.000  H
  H22      1.0000 0.29100  0.22770  0.18810  Biso   1.000  H
  H23      1.0000 0.20900  0.72770  0.31190  Biso   1.000  H
  H24      1.0000 0.70900  0.22770  0.31190  Biso   1.000  H
  H25      1.0000 0.14950  0.13720  0.71970  Biso   1.000  H
  H26      1.0000 0.64950  0.63720  0.71970  Biso   1.000  H
  H27      1.0000 0.85050  0.13720  0.78030  Biso   1.000  H
  H28      1.0000 0.35050  0.63720  0.78030  Biso   1.000  H
  H29      1.0000 0.85050  0.86280  0.28030  Biso   1.000  H
  H30      1.0000 0.35050  0.36280  0.28030  Biso   1.000  H
  H31      1.0000 0.14950  0.86280  0.21970  Biso   1.000  H
  H32      1.0000 0.64950  0.36280  0.21970  Biso   1.000  H
  H33      1.0000 0.17110  0.44700  0.28120  Biso   1.000  H
  H34      1.0000 0.67110  0.94700  0.28120  Biso   1.000  H
  H35      1.0000 0.82890  0.44700  0.21880  Biso   1.000  H
  H36      1.0000 0.32890  0.94700  0.21880  Biso   1.000  H
  H37      1.0000 0.82890  0.55300  0.71880  Biso   1.000  H
  H38      1.0000 0.32890  0.05300  0.71880  Biso   1.000  H
  H39      1.0000 0.17110  0.55300  0.78120  Biso   1.000  H
  H40      1.0000 0.67110  0.05300  0.78120  Biso   1.000  H
  H41      1.0000 0.12830  0.41470  0.07580  Biso   1.000  H
  H42      1.0000 0.62830  0.91470  0.07580  Biso   1.000  H
  H43      1.0000 0.87170  0.41470  0.42420  Biso   1.000  H
  H44      1.0000 0.37170  0.91470  0.42420  Biso   1.000  H
  H45      1.0000 0.87170  0.58530  0.92420  Biso   1.000  H
  H46      1.0000 0.37170  0.08530  0.92420  Biso   1.000  H
  H47      1.0000 0.12830  0.58530  0.57580  Biso   1.000  H
  H48      1.0000 0.62830  0.08530  0.57580  Biso   1.000  H
  H49      1.0000 0.19800  0.40260  0.09580  Biso   1.000  H
  H50      1.0000 0.69800  0.90260  0.09580  Biso   1.000  H
  H51      1.0000 0.80200  0.40260  0.40420  Biso   1.000  H
  H52      1.0000 0.30200  0.90260  0.40420  Biso   1.000  H
  H53      1.0000 0.80200  0.59740  0.90420  Biso   1.000  H
  H54      1.0000 0.30200  0.09740  0.90420  Biso   1.000  H
  H55      1.0000 0.19800  0.59740  0.59580  Biso   1.000  H
  H56      1.0000 0.69800  0.09740  0.59580  Biso   1.000  H
