data_image0
_cell_length_a       25.8868
_cell_length_b       25.8868
_cell_length_c       6.26433
_cell_angle_alpha    90
_cell_angle_beta     90
_cell_angle_gamma    120

_symmetry_space_group_name_H-M    "P 1"
_symmetry_int_tables_number       1

loop_
  _symmetry_equiv_pos_as_xyz
  'x, y, z'

loop_
  _atom_site_label
  _atom_site_occupancy
  _atom_site_fract_x
  _atom_site_fract_y
  _atom_site_fract_z
  _atom_site_thermal_displace_type
  _atom_site_B_iso_or_equiv
  _atom_site_type_symbol
  Cu1      1.0000 0.94631  0.62885  0.98850  Biso   1.000  Cu
  Cu2      1.0000 0.37115  0.31746  0.98850  Biso   1.000  Cu
  Cu3      1.0000 0.68254  0.05369  0.98850  Biso   1.000  Cu
  Cu4      1.0000 0.61298  0.96218  0.32183  Biso   1.000  Cu
  Cu5      1.0000 0.03782  0.65079  0.32183  Biso   1.000  Cu
  Cu6      1.0000 0.34921  0.38702  0.32183  Biso   1.000  Cu
  Cu7      1.0000 0.27964  0.29552  0.65517  Biso   1.000  Cu
  Cu8      1.0000 0.70448  0.98413  0.65517  Biso   1.000  Cu
  Cu9      1.0000 0.01587  0.72036  0.65517  Biso   1.000  Cu
  Cu10     1.0000 0.05369  0.37115  0.01150  Biso   1.000  Cu
  Cu11     1.0000 0.62885  0.68254  0.01150  Biso   1.000  Cu
  Cu12     1.0000 0.31746  0.94631  0.01150  Biso   1.000  Cu
  Cu13     1.0000 0.72036  0.70448  0.34483  Biso   1.000  Cu
  Cu14     1.0000 0.29552  0.01587  0.34483  Biso   1.000  Cu
  Cu15     1.0000 0.98413  0.27964  0.34483  Biso   1.000  Cu
  Cu16     1.0000 0.38702  0.03782  0.67817  Biso   1.000  Cu
  Cu17     1.0000 0.96218  0.34921  0.67817  Biso   1.000  Cu
  Cu18     1.0000 0.65079  0.61298  0.67817  Biso   1.000  Cu
  C1       1.0000 0.01040  0.59060  0.70710  Biso   1.000  C
  C2       1.0000 0.40940  0.41980  0.70710  Biso   1.000  C
  C3       1.0000 0.58020  0.98960  0.70710  Biso   1.000  C
  C4       1.0000 0.67707  0.92393  0.04043  Biso   1.000  C
  C5       1.0000 0.07607  0.75313  0.04043  Biso   1.000  C
  C6       1.0000 0.24687  0.32293  0.04043  Biso   1.000  C
  C7       1.0000 0.34373  0.25727  0.37377  Biso   1.000  C
  C8       1.0000 0.74273  0.08647  0.37377  Biso   1.000  C
  C9       1.0000 0.91353  0.65627  0.37377  Biso   1.000  C
  C10      1.0000 0.98960  0.40940  0.29290  Biso   1.000  C
  C11      1.0000 0.59060  0.58020  0.29290  Biso   1.000  C
  C12      1.0000 0.41980  0.01040  0.29290  Biso   1.000  C
  C13      1.0000 0.65627  0.74273  0.62623  Biso   1.000  C
  C14      1.0000 0.25727  0.91353  0.62623  Biso   1.000  C
  C15      1.0000 0.08647  0.34373  0.62623  Biso   1.000  C
  C16      1.0000 0.32293  0.07607  0.95957  Biso   1.000  C
  C17      1.0000 0.92393  0.24687  0.95957  Biso   1.000  C
  C18      1.0000 0.75313  0.67707  0.95957  Biso   1.000  C
  C19      1.0000 0.00590  0.54490  0.86260  Biso   1.000  C
  C20      1.0000 0.45510  0.46100  0.86260  Biso   1.000  C
  C21      1.0000 0.53900  0.99410  0.86260  Biso   1.000  C
  C22      1.0000 0.67257  0.87823  0.19593  Biso   1.000  C
  C23      1.0000 0.12177  0.79433  0.19593  Biso   1.000  C
  C24      1.0000 0.20567  0.32743  0.19593  Biso   1.000  C
  C25      1.0000 0.33923  0.21157  0.52927  Biso   1.000  C
  C26      1.0000 0.78843  0.12767  0.52927  Biso   1.000  C
  C27      1.0000 0.87233  0.66077  0.52927  Biso   1.000  C
  C28      1.0000 0.99410  0.45510  0.13740  Biso   1.000  C
  C29      1.0000 0.54490  0.53900  0.13740  Biso   1.000  C
  C30      1.0000 0.46100  0.00590  0.13740  Biso   1.000  C
  C31      1.0000 0.66077  0.78843  0.47073  Biso   1.000  C
  C32      1.0000 0.21157  0.87233  0.47073  Biso   1.000  C
  C33      1.0000 0.12767  0.33923  0.47073  Biso   1.000  C
  C34      1.0000 0.32743  0.12177  0.80407  Biso   1.000  C
  C35      1.0000 0.87823  0.20567  0.80407  Biso   1.000  C
  C36      1.0000 0.79433  0.67257  0.80407  Biso   1.000  C
  C37      1.0000 0.98690  0.54490  0.07410  Biso   1.000  C
  C38      1.0000 0.45510  0.44200  0.07410  Biso   1.000  C
  C39      1.0000 0.55800  0.01310  0.07410  Biso   1.000  C
  C40      1.0000 0.65357  0.87823  0.40743  Biso   1.000  C
  C41      1.0000 0.12177  0.77533  0.40743  Biso   1.000  C
  C42      1.0000 0.22467  0.34643  0.40743  Biso   1.000  C
  C43      1.0000 0.32023  0.21157  0.74077  Biso   1.000  C
  C44      1.0000 0.78843  0.10867  0.74077  Biso   1.000  C
  C45      1.0000 0.89133  0.67977  0.74077  Biso   1.000  C
  C46      1.0000 0.01310  0.45510  0.92590  Biso   1.000  C
  C47      1.0000 0.54490  0.55800  0.92590  Biso   1.000  C
  C48      1.0000 0.44200  0.98690  0.92590  Biso   1.000  C
  C49      1.0000 0.67977  0.78843  0.25923  Biso   1.000  C
  C50      1.0000 0.21157  0.89133  0.25923  Biso   1.000  C
  C51      1.0000 0.10867  0.32023  0.25923  Biso   1.000  C
  C52      1.0000 0.34643  0.12177  0.59257  Biso   1.000  C
  C53      1.0000 0.87823  0.22467  0.59257  Biso   1.000  C
  C54      1.0000 0.77533  0.65357  0.59257  Biso   1.000  C
  C55      1.0000 0.97960  0.49690  0.20210  Biso   1.000  C
  C56      1.0000 0.50310  0.48270  0.20210  Biso   1.000  C
  C57      1.0000 0.51730  0.02040  0.20210  Biso   1.000  C
  C58      1.0000 0.64627  0.83023  0.53543  Biso   1.000  C
  C59      1.0000 0.16977  0.81603  0.53543  Biso   1.000  C
  C60      1.0000 0.18397  0.35373  0.53543  Biso   1.000  C
  C61      1.0000 0.31293  0.16357  0.86877  Biso   1.000  C
  C62      1.0000 0.83643  0.14937  0.86877  Biso   1.000  C
  C63      1.0000 0.85063  0.68707  0.86877  Biso   1.000  C
  C64      1.0000 0.02040  0.50310  0.79790  Biso   1.000  C
  C65      1.0000 0.49690  0.51730  0.79790  Biso   1.000  C
  C66      1.0000 0.48270  0.97960  0.79790  Biso   1.000  C
  C67      1.0000 0.68707  0.83643  0.13123  Biso   1.000  C
  C68      1.0000 0.16357  0.85063  0.13123  Biso   1.000  C
  C69      1.0000 0.14937  0.31293  0.13123  Biso   1.000  C
  C70      1.0000 0.35373  0.16977  0.46457  Biso   1.000  C
  C71      1.0000 0.83023  0.18397  0.46457  Biso   1.000  C
  C72      1.0000 0.81603  0.64627  0.46457  Biso   1.000  C
  H1       1.0000 0.96400  0.49540  0.37660  Biso   1.000  H
  H2       1.0000 0.50460  0.46860  0.37660  Biso   1.000  H
  H3       1.0000 0.53140  0.03600  0.37660  Biso   1.000  H
  H4       1.0000 0.63067  0.82873  0.70993  Biso   1.000  H
  H5       1.0000 0.17127  0.80193  0.70993  Biso   1.000  H
  H6       1.0000 0.19807  0.36933  0.70993  Biso   1.000  H
  H7       1.0000 0.29733  0.16207  0.04327  Biso   1.000  H
  H8       1.0000 0.83793  0.13527  0.04327  Biso   1.000  H
  H9       1.0000 0.86473  0.70267  0.04327  Biso   1.000  H
  H10      1.0000 0.03600  0.50460  0.62340  Biso   1.000  H
  H11      1.0000 0.49540  0.53140  0.62340  Biso   1.000  H
  H12      1.0000 0.46860  0.96400  0.62340  Biso   1.000  H
  H13      1.0000 0.70267  0.83793  0.95673  Biso   1.000  H
  H14      1.0000 0.16207  0.86473  0.95673  Biso   1.000  H
  H15      1.0000 0.13527  0.29733  0.95673  Biso   1.000  H
  H16      1.0000 0.36933  0.17127  0.29007  Biso   1.000  H
  H17      1.0000 0.82873  0.19807  0.29007  Biso   1.000  H
  H18      1.0000 0.80193  0.63067  0.29007  Biso   1.000  H
  O1       1.0000 0.04300  0.59960  0.54390  Biso   1.000  O
  O2       1.0000 0.40040  0.44340  0.54390  Biso   1.000  O
  O3       1.0000 0.55660  0.95700  0.54390  Biso   1.000  O
  O4       1.0000 0.70967  0.93293  0.87723  Biso   1.000  O
  O5       1.0000 0.06707  0.77673  0.87723  Biso   1.000  O
  O6       1.0000 0.22327  0.29033  0.87723  Biso   1.000  O
  O7       1.0000 0.37633  0.26627  0.21057  Biso   1.000  O
  O8       1.0000 0.73373  0.11007  0.21057  Biso   1.000  O
  O9       1.0000 0.88993  0.62367  0.21057  Biso   1.000  O
  O10      1.0000 0.95700  0.40040  0.45610  Biso   1.000  O
  O11      1.0000 0.59960  0.55660  0.45610  Biso   1.000  O
  O12      1.0000 0.44340  0.04300  0.45610  Biso   1.000  O
  O13      1.0000 0.62367  0.73373  0.78943  Biso   1.000  O
  O14      1.0000 0.26627  0.88993  0.78943  Biso   1.000  O
  O15      1.0000 0.11007  0.37633  0.78943  Biso   1.000  O
  O16      1.0000 0.29033  0.06707  0.12277  Biso   1.000  O
  O17      1.0000 0.93293  0.22327  0.12277  Biso   1.000  O
  O18      1.0000 0.77673  0.70967  0.12277  Biso   1.000  O
  O19      1.0000 0.97810  0.61470  0.72880  Biso   1.000  O
  O20      1.0000 0.38530  0.36340  0.72880  Biso   1.000  O
  O21      1.0000 0.63660  0.02190  0.72880  Biso   1.000  O
  O22      1.0000 0.64477  0.94803  0.06213  Biso   1.000  O
  O23      1.0000 0.05197  0.69673  0.06213  Biso   1.000  O
  O24      1.0000 0.30327  0.35523  0.06213  Biso   1.000  O
  O25      1.0000 0.31143  0.28137  0.39547  Biso   1.000  O
  O26      1.0000 0.71863  0.03007  0.39547  Biso   1.000  O
  O27      1.0000 0.96993  0.68857  0.39547  Biso   1.000  O
  O28      1.0000 0.02190  0.38530  0.27120  Biso   1.000  O
  O29      1.0000 0.61470  0.63660  0.27120  Biso   1.000  O
  O30      1.0000 0.36340  0.97810  0.27120  Biso   1.000  O
  O31      1.0000 0.68857  0.71863  0.60453  Biso   1.000  O
  O32      1.0000 0.28137  0.96993  0.60453  Biso   1.000  O
  O33      1.0000 0.03007  0.31143  0.60453  Biso   1.000  O
  O34      1.0000 0.35523  0.05197  0.93787  Biso   1.000  O
  O35      1.0000 0.94803  0.30327  0.93787  Biso   1.000  O
  O36      1.0000 0.69673  0.64477  0.93787  Biso   1.000  O
  O37      1.0000 0.97340  0.58380  0.15880  Biso   1.000  O
  O38      1.0000 0.41620  0.38960  0.15880  Biso   1.000  O
  O39      1.0000 0.61040  0.02660  0.15880  Biso   1.000  O
  O40      1.0000 0.64007  0.91713  0.49213  Biso   1.000  O
  O41      1.0000 0.08287  0.72293  0.49213  Biso   1.000  O
  O42      1.0000 0.27707  0.35993  0.49213  Biso   1.000  O
  O43      1.0000 0.30673  0.25047  0.82547  Biso   1.000  O
  O44      1.0000 0.74953  0.05627  0.82547  Biso   1.000  O
  O45      1.0000 0.94373  0.69327  0.82547  Biso   1.000  O
  O46      1.0000 0.02660  0.41620  0.84120  Biso   1.000  O
  O47      1.0000 0.58380  0.61040  0.84120  Biso   1.000  O
  O48      1.0000 0.38960  0.97340  0.84120  Biso   1.000  O
  O49      1.0000 0.69327  0.74953  0.17453  Biso   1.000  O
  O50      1.0000 0.25047  0.94373  0.17453  Biso   1.000  O
  O51      1.0000 0.05627  0.30673  0.17453  Biso   1.000  O
  O52      1.0000 0.35993  0.08287  0.50787  Biso   1.000  O
  O53      1.0000 0.91713  0.27707  0.50787  Biso   1.000  O
  O54      1.0000 0.72293  0.64007  0.50787  Biso   1.000  O
