data_image0
_cell_length_a       25.881
_cell_length_b       25.881
_cell_length_c       6.2626
_cell_angle_alpha    90
_cell_angle_beta     90
_cell_angle_gamma    120

_symmetry_space_group_name_H-M    "P 1"
_symmetry_int_tables_number       1

loop_
  _symmetry_equiv_pos_as_xyz
  'x, y, z'

loop_
  _atom_site_label
  _atom_site_occupancy
  _atom_site_fract_x
  _atom_site_fract_y
  _atom_site_fract_z
  _atom_site_thermal_displace_type
  _atom_site_B_iso_or_equiv
  _atom_site_type_symbol
  Cu1      1.0000 0.94730  0.63150  0.97980  Biso   1.000  Cu
  Cu2      1.0000 0.36850  0.31580  0.97980  Biso   1.000  Cu
  Cu3      1.0000 0.68420  0.05270  0.97980  Biso   1.000  Cu
  Cu4      1.0000 0.61397  0.96483  0.31313  Biso   1.000  Cu
  Cu5      1.0000 0.03517  0.64913  0.31313  Biso   1.000  Cu
  Cu6      1.0000 0.35087  0.38603  0.31313  Biso   1.000  Cu
  Cu7      1.0000 0.28063  0.29817  0.64647  Biso   1.000  Cu
  Cu8      1.0000 0.70183  0.98247  0.64647  Biso   1.000  Cu
  Cu9      1.0000 0.01753  0.71937  0.64647  Biso   1.000  Cu
  Cu10     1.0000 0.05270  0.36850  0.02020  Biso   1.000  Cu
  Cu11     1.0000 0.63150  0.68420  0.02020  Biso   1.000  Cu
  Cu12     1.0000 0.31580  0.94730  0.02020  Biso   1.000  Cu
  Cu13     1.0000 0.71937  0.70183  0.35353  Biso   1.000  Cu
  Cu14     1.0000 0.29817  0.01753  0.35353  Biso   1.000  Cu
  Cu15     1.0000 0.98247  0.28063  0.35353  Biso   1.000  Cu
  Cu16     1.0000 0.38603  0.03517  0.68687  Biso   1.000  Cu
  Cu17     1.0000 0.96483  0.35087  0.68687  Biso   1.000  Cu
  Cu18     1.0000 0.64913  0.61397  0.68687  Biso   1.000  Cu
  C1       1.0000 0.00820  0.58700  0.71300  Biso   1.000  C
  C2       1.0000 0.41300  0.42120  0.71300  Biso   1.000  C
  C3       1.0000 0.57880  0.99180  0.71300  Biso   1.000  C
  C4       1.0000 0.67487  0.92033  0.04633  Biso   1.000  C
  C5       1.0000 0.07967  0.75453  0.04633  Biso   1.000  C
  C6       1.0000 0.24547  0.32513  0.04633  Biso   1.000  C
  C7       1.0000 0.34153  0.25367  0.37967  Biso   1.000  C
  C8       1.0000 0.74633  0.08787  0.37967  Biso   1.000  C
  C9       1.0000 0.91213  0.65847  0.37967  Biso   1.000  C
  C10      1.0000 0.99180  0.41300  0.28700  Biso   1.000  C
  C11      1.0000 0.58700  0.57880  0.28700  Biso   1.000  C
  C12      1.0000 0.42120  0.00820  0.28700  Biso   1.000  C
  C13      1.0000 0.65847  0.74633  0.62033  Biso   1.000  C
  C14      1.0000 0.25367  0.91213  0.62033  Biso   1.000  C
  C15      1.0000 0.08787  0.34153  0.62033  Biso   1.000  C
  C16      1.0000 0.32513  0.07967  0.95367  Biso   1.000  C
  C17      1.0000 0.92033  0.24547  0.95367  Biso   1.000  C
  C18      1.0000 0.75453  0.67487  0.95367  Biso   1.000  C
  C19      1.0000 0.02280  0.50540  0.79100  Biso   1.000  C
  C20      1.0000 0.49460  0.51740  0.79100  Biso   1.000  C
  C21      1.0000 0.48260  0.97720  0.79100  Biso   1.000  C
  C22      1.0000 0.68947  0.83873  0.12433  Biso   1.000  C
  C23      1.0000 0.16127  0.85073  0.12433  Biso   1.000  C
  C24      1.0000 0.14927  0.31053  0.12433  Biso   1.000  C
  C25      1.0000 0.35613  0.17207  0.45767  Biso   1.000  C
  C26      1.0000 0.82793  0.18407  0.45767  Biso   1.000  C
  C27      1.0000 0.81593  0.64387  0.45767  Biso   1.000  C
  C28      1.0000 0.97720  0.49460  0.20900  Biso   1.000  C
  C29      1.0000 0.50540  0.48260  0.20900  Biso   1.000  C
  C30      1.0000 0.51740  0.02280  0.20900  Biso   1.000  C
  C31      1.0000 0.64387  0.82793  0.54233  Biso   1.000  C
  C32      1.0000 0.17207  0.81593  0.54233  Biso   1.000  C
  C33      1.0000 0.18407  0.35613  0.54233  Biso   1.000  C
  C34      1.0000 0.31053  0.16127  0.87567  Biso   1.000  C
  C35      1.0000 0.83873  0.14927  0.87567  Biso   1.000  C
  C36      1.0000 0.85073  0.68947  0.87567  Biso   1.000  C
  C37      1.0000 0.00280  0.54230  0.87700  Biso   1.000  C
  C38      1.0000 0.45770  0.46050  0.87700  Biso   1.000  C
  C39      1.0000 0.53950  0.99720  0.87700  Biso   1.000  C
  C40      1.0000 0.66947  0.87563  0.21033  Biso   1.000  C
  C41      1.0000 0.12437  0.79383  0.21033  Biso   1.000  C
  C42      1.0000 0.20617  0.33053  0.21033  Biso   1.000  C
  C43      1.0000 0.33613  0.20897  0.54367  Biso   1.000  C
  C44      1.0000 0.79103  0.12717  0.54367  Biso   1.000  C
  C45      1.0000 0.87283  0.66387  0.54367  Biso   1.000  C
  C46      1.0000 0.99720  0.45770  0.12300  Biso   1.000  C
  C47      1.0000 0.54230  0.53950  0.12300  Biso   1.000  C
  C48      1.0000 0.46050  0.00280  0.12300  Biso   1.000  C
  C49      1.0000 0.66387  0.79103  0.45633  Biso   1.000  C
  C50      1.0000 0.20897  0.87283  0.45633  Biso   1.000  C
  C51      1.0000 0.12717  0.33613  0.45633  Biso   1.000  C
  C52      1.0000 0.33053  0.12437  0.78967  Biso   1.000  C
  C53      1.0000 0.87563  0.20617  0.78967  Biso   1.000  C
  C54      1.0000 0.79383  0.66947  0.78967  Biso   1.000  C
  C55      1.0000 0.98370  0.54360  0.08600  Biso   1.000  C
  C56      1.0000 0.45640  0.44010  0.08600  Biso   1.000  C
  C57      1.0000 0.55990  0.01630  0.08600  Biso   1.000  C
  C58      1.0000 0.65037  0.87693  0.41933  Biso   1.000  C
  C59      1.0000 0.12307  0.77343  0.41933  Biso   1.000  C
  C60      1.0000 0.22657  0.34963  0.41933  Biso   1.000  C
  C61      1.0000 0.31703  0.21027  0.75267  Biso   1.000  C
  C62      1.0000 0.78973  0.10677  0.75267  Biso   1.000  C
  C63      1.0000 0.89323  0.68297  0.75267  Biso   1.000  C
  C64      1.0000 0.01630  0.45640  0.91400  Biso   1.000  C
  C65      1.0000 0.54360  0.55990  0.91400  Biso   1.000  C
  C66      1.0000 0.44010  0.98370  0.91400  Biso   1.000  C
  C67      1.0000 0.68297  0.78973  0.24733  Biso   1.000  C
  C68      1.0000 0.21027  0.89323  0.24733  Biso   1.000  C
  C69      1.0000 0.10677  0.31703  0.24733  Biso   1.000  C
  C70      1.0000 0.34963  0.12307  0.58067  Biso   1.000  C
  C71      1.0000 0.87693  0.22657  0.58067  Biso   1.000  C
  C72      1.0000 0.77343  0.65037  0.58067  Biso   1.000  C
  H1       1.0000 0.03790  0.51000  0.63900  Biso   1.000  H
  H2       1.0000 0.49000  0.52790  0.63900  Biso   1.000  H
  H3       1.0000 0.47210  0.96210  0.63900  Biso   1.000  H
  H4       1.0000 0.70457  0.84333  0.97233  Biso   1.000  H
  H5       1.0000 0.15667  0.86123  0.97233  Biso   1.000  H
  H6       1.0000 0.13877  0.29543  0.97233  Biso   1.000  H
  H7       1.0000 0.37123  0.17667  0.30567  Biso   1.000  H
  H8       1.0000 0.82333  0.19457  0.30567  Biso   1.000  H
  H9       1.0000 0.80543  0.62877  0.30567  Biso   1.000  H
  H10      1.0000 0.96210  0.49000  0.36100  Biso   1.000  H
  H11      1.0000 0.51000  0.47210  0.36100  Biso   1.000  H
  H12      1.0000 0.52790  0.03790  0.36100  Biso   1.000  H
  H13      1.0000 0.62877  0.82333  0.69433  Biso   1.000  H
  H14      1.0000 0.17667  0.80543  0.69433  Biso   1.000  H
  H15      1.0000 0.19457  0.37123  0.69433  Biso   1.000  H
  H16      1.0000 0.29543  0.15667  0.02767  Biso   1.000  H
  H17      1.0000 0.84333  0.13877  0.02767  Biso   1.000  H
  H18      1.0000 0.86123  0.70457  0.02767  Biso   1.000  H
  O1       1.0000 0.04080  0.60070  0.54400  Biso   1.000  O
  O2       1.0000 0.39930  0.44010  0.54400  Biso   1.000  O
  O3       1.0000 0.55990  0.95920  0.54400  Biso   1.000  O
  O4       1.0000 0.70747  0.93403  0.87733  Biso   1.000  O
  O5       1.0000 0.06597  0.77343  0.87733  Biso   1.000  O
  O6       1.0000 0.22657  0.29253  0.87733  Biso   1.000  O
  O7       1.0000 0.37413  0.26737  0.21067  Biso   1.000  O
  O8       1.0000 0.73263  0.10677  0.21067  Biso   1.000  O
  O9       1.0000 0.89323  0.62587  0.21067  Biso   1.000  O
  O10      1.0000 0.95920  0.39930  0.45600  Biso   1.000  O
  O11      1.0000 0.60070  0.55990  0.45600  Biso   1.000  O
  O12      1.0000 0.44010  0.04080  0.45600  Biso   1.000  O
  O13      1.0000 0.62587  0.73263  0.78933  Biso   1.000  O
  O14      1.0000 0.26737  0.89323  0.78933  Biso   1.000  O
  O15      1.0000 0.10677  0.37413  0.78933  Biso   1.000  O
  O16      1.0000 0.29253  0.06597  0.12267  Biso   1.000  O
  O17      1.0000 0.93403  0.22657  0.12267  Biso   1.000  O
  O18      1.0000 0.77343  0.70747  0.12267  Biso   1.000  O
  O19      1.0000 0.97860  0.61390  0.72200  Biso   1.000  O
  O20      1.0000 0.38610  0.36470  0.72200  Biso   1.000  O
  O21      1.0000 0.63530  0.02140  0.72200  Biso   1.000  O
  O22      1.0000 0.64527  0.94723  0.05533  Biso   1.000  O
  O23      1.0000 0.05277  0.69803  0.05533  Biso   1.000  O
  O24      1.0000 0.30197  0.35473  0.05533  Biso   1.000  O
  O25      1.0000 0.31193  0.28057  0.38867  Biso   1.000  O
  O26      1.0000 0.71943  0.03137  0.38867  Biso   1.000  O
  O27      1.0000 0.96863  0.68807  0.38867  Biso   1.000  O
  O28      1.0000 0.02140  0.38610  0.27800  Biso   1.000  O
  O29      1.0000 0.61390  0.63530  0.27800  Biso   1.000  O
  O30      1.0000 0.36470  0.97860  0.27800  Biso   1.000  O
  O31      1.0000 0.68807  0.71943  0.61133  Biso   1.000  O
  O32      1.0000 0.28057  0.96863  0.61133  Biso   1.000  O
  O33      1.0000 0.03137  0.31193  0.61133  Biso   1.000  O
  O34      1.0000 0.35473  0.05277  0.94467  Biso   1.000  O
  O35      1.0000 0.94723  0.30197  0.94467  Biso   1.000  O
  O36      1.0000 0.69803  0.64527  0.94467  Biso   1.000  O
  O37      1.0000 0.97090  0.58610  0.14800  Biso   1.000  O
  O38      1.0000 0.41390  0.38480  0.14800  Biso   1.000  O
  O39      1.0000 0.61520  0.02910  0.14800  Biso   1.000  O
  O40      1.0000 0.63757  0.91943  0.48133  Biso   1.000  O
  O41      1.0000 0.08057  0.71813  0.48133  Biso   1.000  O
  O42      1.0000 0.28187  0.36243  0.48133  Biso   1.000  O
  O43      1.0000 0.30423  0.25277  0.81467  Biso   1.000  O
  O44      1.0000 0.74723  0.05147  0.81467  Biso   1.000  O
  O45      1.0000 0.94853  0.69577  0.81467  Biso   1.000  O
  O46      1.0000 0.02910  0.41390  0.85200  Biso   1.000  O
  O47      1.0000 0.58610  0.61520  0.85200  Biso   1.000  O
  O48      1.0000 0.38480  0.97090  0.85200  Biso   1.000  O
  O49      1.0000 0.69577  0.74723  0.18533  Biso   1.000  O
  O50      1.0000 0.25277  0.94853  0.18533  Biso   1.000  O
  O51      1.0000 0.05147  0.30423  0.18533  Biso   1.000  O
  O52      1.0000 0.36243  0.08057  0.51867  Biso   1.000  O
  O53      1.0000 0.91943  0.28187  0.51867  Biso   1.000  O
  O54      1.0000 0.71813  0.63757  0.51867  Biso   1.000  O
