data_image0
_cell_length_a       17.285
_cell_length_b       9.5248
_cell_length_c       14.552
_cell_angle_alpha    90
_cell_angle_beta     117.198
_cell_angle_gamma    90

_symmetry_space_group_name_H-M    "P 1"
_symmetry_int_tables_number       1

loop_
  _symmetry_equiv_pos_as_xyz
  'x, y, z'

loop_
  _atom_site_label
  _atom_site_occupancy
  _atom_site_fract_x
  _atom_site_fract_y
  _atom_site_fract_z
  _atom_site_thermal_displace_type
  _atom_site_B_iso_or_equiv
  _atom_site_type_symbol
  Cu1      1.0000 0.15383  0.24089  0.44746  Biso   1.000  Cu
  Cu2      1.0000 0.34617  0.74089  0.55254  Biso   1.000  Cu
  Cu3      1.0000 0.84617  0.75911  0.55254  Biso   1.000  Cu
  Cu4      1.0000 0.65383  0.25911  0.44746  Biso   1.000  Cu
  Cu5      1.0000 0.16374  0.25671  0.23266  Biso   1.000  Cu
  Cu6      1.0000 0.33626  0.75671  0.76734  Biso   1.000  Cu
  Cu7      1.0000 0.83626  0.74329  0.76734  Biso   1.000  Cu
  Cu8      1.0000 0.66374  0.24329  0.23266  Biso   1.000  Cu
  S1       1.0000 0.23850  0.51948  0.40058  Biso   1.000  S
  S2       1.0000 0.26150  0.01948  0.59942  Biso   1.000  S
  S3       1.0000 0.76150  0.48052  0.59942  Biso   1.000  S
  S4       1.0000 0.73850  0.98052  0.40058  Biso   1.000  S
  Cl1      1.0000 0.28373  0.19230  0.21324  Biso   1.000  Cl
  Cl2      1.0000 0.21627  0.69230  0.78676  Biso   1.000  Cl
  Cl3      1.0000 0.71627  0.80770  0.78676  Biso   1.000  Cl
  Cl4      1.0000 0.78373  0.30770  0.21324  Biso   1.000  Cl
  O1       1.0000 0.20880  0.18030  0.36730  Biso   1.000  O
  O2       1.0000 0.29120  0.68030  0.63270  Biso   1.000  O
  O3       1.0000 0.79120  0.81970  0.63270  Biso   1.000  O
  O4       1.0000 0.70880  0.31970  0.36730  Biso   1.000  O
  O5       1.0000 0.19860  0.45610  0.46080  Biso   1.000  O
  O6       1.0000 0.30140  0.95610  0.53920  Biso   1.000  O
  O7       1.0000 0.80140  0.54390  0.53920  Biso   1.000  O
  O8       1.0000 0.69860  0.04390  0.46080  Biso   1.000  O
  O9       1.0000 0.18580  0.49000  0.29080  Biso   1.000  O
  O10      1.0000 0.31420  0.99000  0.70920  Biso   1.000  O
  O11      1.0000 0.81420  0.51000  0.70920  Biso   1.000  O
  O12      1.0000 0.68580  0.01000  0.29080  Biso   1.000  O
  O13      1.0000 0.24230  0.67580  0.41750  Biso   1.000  O
  O14      1.0000 0.25770  0.17580  0.58250  Biso   1.000  O
  O15      1.0000 0.75770  0.32420  0.58250  Biso   1.000  O
  O16      1.0000 0.74230  0.82420  0.41750  Biso   1.000  O
  O17      1.0000 0.32750  0.47020  0.43850  Biso   1.000  O
  O18      1.0000 0.17250  0.97020  0.56150  Biso   1.000  O
  O19      1.0000 0.67250  0.52980  0.56150  Biso   1.000  O
  O20      1.0000 0.82750  0.02980  0.43850  Biso   1.000  O
  O21      1.0000 0.36750  0.39340  0.68820  Biso   1.000  O
  O22      1.0000 0.13250  0.89340  0.31180  Biso   1.000  O
  O23      1.0000 0.63250  0.60660  0.31180  Biso   1.000  O
  O24      1.0000 0.86750  0.10660  0.68820  Biso   1.000  O
  O25      1.0000 0.33840  0.41490  0.85240  Biso   1.000  O
  O26      1.0000 0.16160  0.91490  0.14760  Biso   1.000  O
  O27      1.0000 0.66160  0.58510  0.14760  Biso   1.000  O
  O28      1.0000 0.83840  0.08510  0.85240  Biso   1.000  O
  N1       1.0000 0.08180  0.29060  0.51490  Biso   1.000  N
  N2       1.0000 0.41820  0.79060  0.48510  Biso   1.000  N
  N3       1.0000 0.91820  0.70940  0.48510  Biso   1.000  N
  N4       1.0000 0.58180  0.20940  0.51490  Biso   1.000  N
  N5       1.0000 0.96980  0.13380  0.41120  Biso   1.000  N
  N6       1.0000 0.53020  0.63380  0.58880  Biso   1.000  N
  N7       1.0000 0.03020  0.86620  0.58880  Biso   1.000  N
  N8       1.0000 0.46980  0.36620  0.41120  Biso   1.000  N
  N9       1.0000 0.04170  0.19890  0.31700  Biso   1.000  N
  N10      1.0000 0.45830  0.69890  0.68300  Biso   1.000  N
  N11      1.0000 0.95830  0.80110  0.68300  Biso   1.000  N
  N12      1.0000 0.54170  0.30110  0.31700  Biso   1.000  N
  N13      1.0000 0.04490  0.20960  0.22360  Biso   1.000  N
  N14      1.0000 0.45510  0.70960  0.77640  Biso   1.000  N
  N15      1.0000 0.95510  0.79040  0.77640  Biso   1.000  N
  N16      1.0000 0.54490  0.29040  0.22360  Biso   1.000  N
  N17      1.0000 0.98010  0.17740  0.04560  Biso   1.000  N
  N18      1.0000 0.51990  0.67740  0.95440  Biso   1.000  N
  N19      1.0000 0.01990  0.82260  0.95440  Biso   1.000  N
  N20      1.0000 0.48010  0.32260  0.04560  Biso   1.000  N
  N21      1.0000 0.10200  0.32500  0.08900  Biso   1.000  N
  N22      1.0000 0.39800  0.82500  0.91100  Biso   1.000  N
  N23      1.0000 0.89800  0.67500  0.91100  Biso   1.000  N
  N24      1.0000 0.60200  0.17500  0.08900  Biso   1.000  N
  C1       1.0000 0.11180  0.38890  0.59170  Biso   1.000  C
  C2       1.0000 0.38820  0.88890  0.40830  Biso   1.000  C
  C3       1.0000 0.88820  0.61110  0.40830  Biso   1.000  C
  C4       1.0000 0.61180  0.11110  0.59170  Biso   1.000  C
  C5       1.0000 0.06720  0.42830  0.64370  Biso   1.000  C
  C6       1.0000 0.43280  0.92830  0.35630  Biso   1.000  C
  C7       1.0000 0.93280  0.57170  0.35630  Biso   1.000  C
  C8       1.0000 0.56720  0.07170  0.64370  Biso   1.000  C
  C9       1.0000 0.98760  0.36500  0.61910  Biso   1.000  C
  C10      1.0000 0.51240  0.86500  0.38090  Biso   1.000  C
  C11      1.0000 0.01240  0.63500  0.38090  Biso   1.000  C
  C12      1.0000 0.48760  0.13500  0.61910  Biso   1.000  C
  C13      1.0000 0.95650  0.26500  0.54280  Biso   1.000  C
  C14      1.0000 0.54350  0.76500  0.45720  Biso   1.000  C
  C15      1.0000 0.04350  0.73500  0.45720  Biso   1.000  C
  C16      1.0000 0.45650  0.23500  0.54280  Biso   1.000  C
  C17      1.0000 0.00490  0.23210  0.49040  Biso   1.000  C
  C18      1.0000 0.49510  0.73210  0.50960  Biso   1.000  C
  C19      1.0000 0.99510  0.76790  0.50960  Biso   1.000  C
  C20      1.0000 0.50490  0.26790  0.49040  Biso   1.000  C
  C21      1.0000 0.98050  0.12520  0.32420  Biso   1.000  C
  C22      1.0000 0.51950  0.62520  0.67580  Biso   1.000  C
  C23      1.0000 0.01950  0.87480  0.67580  Biso   1.000  C
  C24      1.0000 0.48050  0.37480  0.32420  Biso   1.000  C
  C25      1.0000 0.92390  0.03300  0.24200  Biso   1.000  C
  C26      1.0000 0.57610  0.53300  0.75800  Biso   1.000  C
  C27      1.0000 0.07610  0.96700  0.75800  Biso   1.000  C
  C28      1.0000 0.42390  0.46700  0.24200  Biso   1.000  C
  C29      1.0000 0.87040  0.93190  0.25390  Biso   1.000  C
  C30      1.0000 0.62960  0.43190  0.74610  Biso   1.000  C
  C31      1.0000 0.12960  0.06810  0.74610  Biso   1.000  C
  C32      1.0000 0.37040  0.56810  0.25390  Biso   1.000  C
  C33      1.0000 0.82050  0.84480  0.17280  Biso   1.000  C
  C34      1.0000 0.67950  0.34480  0.82720  Biso   1.000  C
  C35      1.0000 0.17950  0.15520  0.82720  Biso   1.000  C
  C36      1.0000 0.32050  0.65520  0.17280  Biso   1.000  C
  C37      1.0000 0.82190  0.85860  0.07900  Biso   1.000  C
  C38      1.0000 0.67810  0.35860  0.92100  Biso   1.000  C
  C39      1.0000 0.17810  0.14140  0.92100  Biso   1.000  C
  C40      1.0000 0.32190  0.64140  0.07900  Biso   1.000  C
  C41      1.0000 0.87400  0.95650  0.06570  Biso   1.000  C
  C42      1.0000 0.62600  0.45650  0.93430  Biso   1.000  C
  C43      1.0000 0.12600  0.04350  0.93430  Biso   1.000  C
  C44      1.0000 0.37400  0.54350  0.06570  Biso   1.000  C
  C45      1.0000 0.92550  0.04630  0.14670  Biso   1.000  C
  C46      1.0000 0.57450  0.54630  0.85330  Biso   1.000  C
  C47      1.0000 0.07450  0.95370  0.85330  Biso   1.000  C
  C48      1.0000 0.42550  0.45370  0.14670  Biso   1.000  C
  C49      1.0000 0.98530  0.14760  0.14100  Biso   1.000  C
  C50      1.0000 0.51470  0.64760  0.85900  Biso   1.000  C
  C51      1.0000 0.01470  0.85240  0.85900  Biso   1.000  C
  C52      1.0000 0.48530  0.35240  0.14100  Biso   1.000  C
  C53      1.0000 0.02380  0.27940  0.01940  Biso   1.000  C
  C54      1.0000 0.47620  0.77940  0.98060  Biso   1.000  C
  C55      1.0000 0.97620  0.72060  0.98060  Biso   1.000  C
  C56      1.0000 0.52380  0.22060  0.01940  Biso   1.000  C
  C57      1.0000 0.98460  0.33130  0.91780  Biso   1.000  C
  C58      1.0000 0.51540  0.83130  0.08220  Biso   1.000  C
  C59      1.0000 0.01540  0.66870  0.08220  Biso   1.000  C
  C60      1.0000 0.48460  0.16870  0.91780  Biso   1.000  C
  C61      1.0000 0.02790  0.43150  0.89100  Biso   1.000  C
  C62      1.0000 0.47210  0.93150  0.10900  Biso   1.000  C
  C63      1.0000 0.97210  0.56850  0.10900  Biso   1.000  C
  C64      1.0000 0.52790  0.06850  0.89100  Biso   1.000  C
  C65      1.0000 0.10910  0.47590  0.96150  Biso   1.000  C
  C66      1.0000 0.39090  0.97590  0.03850  Biso   1.000  C
  C67      1.0000 0.89090  0.52410  0.03850  Biso   1.000  C
  C68      1.0000 0.60910  0.02410  0.96150  Biso   1.000  C
  C69      1.0000 0.14360  0.42210  0.05920  Biso   1.000  C
  C70      1.0000 0.35640  0.92210  0.94080  Biso   1.000  C
  C71      1.0000 0.85640  0.57790  0.94080  Biso   1.000  C
  C72      1.0000 0.64360  0.07790  0.05920  Biso   1.000  C
  H1       1.0000 0.25000  0.18600  0.39800  Biso   1.000  H
  H2       1.0000 0.25000  0.68600  0.60200  Biso   1.000  H
  H3       1.0000 0.75000  0.81400  0.60200  Biso   1.000  H
  H4       1.0000 0.75000  0.31400  0.39800  Biso   1.000  H
  H5       1.0000 0.33900  0.33300  0.66400  Biso   1.000  H
  H6       1.0000 0.16100  0.83300  0.33600  Biso   1.000  H
  H7       1.0000 0.66100  0.66700  0.33600  Biso   1.000  H
  H8       1.0000 0.83900  0.16700  0.66400  Biso   1.000  H
  H9       1.0000 0.34100  0.46400  0.65200  Biso   1.000  H
  H10      1.0000 0.15900  0.96400  0.34800  Biso   1.000  H
  H11      1.0000 0.65900  0.53600  0.34800  Biso   1.000  H
  H12      1.0000 0.84100  0.03600  0.65200  Biso   1.000  H
  H13      1.0000 0.30500  0.47000  0.83900  Biso   1.000  H
  H14      1.0000 0.19500  0.97000  0.16100  Biso   1.000  H
  H15      1.0000 0.69500  0.53000  0.16100  Biso   1.000  H
  H16      1.0000 0.80500  0.03000  0.83900  Biso   1.000  H
  H17      1.0000 0.35700  0.40800  0.82300  Biso   1.000  H
  H18      1.0000 0.14300  0.90800  0.17700  Biso   1.000  H
  H19      1.0000 0.64300  0.59200  0.17700  Biso   1.000  H
  H20      1.0000 0.85700  0.09200  0.82300  Biso   1.000  H
  H21      1.0000 0.92500  0.10200  0.40400  Biso   1.000  H
  H22      1.0000 0.57500  0.60200  0.59600  Biso   1.000  H
  H23      1.0000 0.07500  0.89800  0.59600  Biso   1.000  H
  H24      1.0000 0.42500  0.39800  0.40400  Biso   1.000  H
  H25      1.0000 0.93500  0.15100  0.99400  Biso   1.000  H
  H26      1.0000 0.56500  0.65100  0.00600  Biso   1.000  H
  H27      1.0000 0.06500  0.84900  0.00600  Biso   1.000  H
  H28      1.0000 0.43500  0.34900  0.99400  Biso   1.000  H
  H29      1.0000 0.16600  0.43200  0.60300  Biso   1.000  H
  H30      1.0000 0.33400  0.93200  0.39700  Biso   1.000  H
  H31      1.0000 0.83400  0.56800  0.39700  Biso   1.000  H
  H32      1.0000 0.66600  0.06800  0.60300  Biso   1.000  H
  H33      1.0000 0.09600  0.50600  0.70100  Biso   1.000  H
  H34      1.0000 0.40400  0.00600  0.29900  Biso   1.000  H
  H35      1.0000 0.90400  0.49400  0.29900  Biso   1.000  H
  H36      1.0000 0.59600  0.99400  0.70100  Biso   1.000  H
  H37      1.0000 0.95200  0.38700  0.65300  Biso   1.000  H
  H38      1.0000 0.54800  0.88700  0.34700  Biso   1.000  H
  H39      1.0000 0.04800  0.61300  0.34700  Biso   1.000  H
  H40      1.0000 0.45200  0.11300  0.65300  Biso   1.000  H
  H41      1.0000 0.90400  0.22400  0.51800  Biso   1.000  H
  H42      1.0000 0.59600  0.72400  0.48200  Biso   1.000  H
  H43      1.0000 0.09600  0.77600  0.48200  Biso   1.000  H
  H44      1.0000 0.40400  0.27600  0.51800  Biso   1.000  H
  H45      1.0000 0.86900  0.91700  0.31700  Biso   1.000  H
  H46      1.0000 0.63100  0.41700  0.68300  Biso   1.000  H
  H47      1.0000 0.13100  0.08300  0.68300  Biso   1.000  H
  H48      1.0000 0.36900  0.58300  0.31700  Biso   1.000  H
  H49      1.0000 0.78500  0.78300  0.17900  Biso   1.000  H
  H50      1.0000 0.71500  0.28300  0.82100  Biso   1.000  H
  H51      1.0000 0.21500  0.21700  0.82100  Biso   1.000  H
  H52      1.0000 0.28500  0.71700  0.17900  Biso   1.000  H
  H53      1.0000 0.79300  0.80100  0.02400  Biso   1.000  H
  H54      1.0000 0.70700  0.30100  0.97600  Biso   1.000  H
  H55      1.0000 0.20700  0.19900  0.97600  Biso   1.000  H
  H56      1.0000 0.29300  0.69900  0.02400  Biso   1.000  H
  H57      1.0000 0.87000  0.96200  0.00300  Biso   1.000  H
  H58      1.0000 0.63000  0.46200  0.99700  Biso   1.000  H
  H59      1.0000 0.13000  0.03800  0.99700  Biso   1.000  H
  H60      1.0000 0.37000  0.53800  0.00300  Biso   1.000  H
  H61      1.0000 0.92800  0.29900  0.87300  Biso   1.000  H
  H62      1.0000 0.57200  0.79900  0.12700  Biso   1.000  H
  H63      1.0000 0.07200  0.70100  0.12700  Biso   1.000  H
  H64      1.0000 0.42800  0.20100  0.87300  Biso   1.000  H
  H65      1.0000 0.00100  0.45600  0.83000  Biso   1.000  H
  H66      1.0000 0.49900  0.95600  0.17000  Biso   1.000  H
  H67      1.0000 0.99900  0.54400  0.17000  Biso   1.000  H
  H68      1.0000 0.50100  0.04400  0.83000  Biso   1.000  H
  H69      1.0000 0.13700  0.54100  0.93500  Biso   1.000  H
  H70      1.0000 0.36300  0.04100  0.06500  Biso   1.000  H
  H71      1.0000 0.86300  0.45900  0.06500  Biso   1.000  H
  H72      1.0000 0.63700  0.95900  0.93500  Biso   1.000  H
  H73      1.0000 0.19000  0.44000  0.10000  Biso   1.000  H
  H74      1.0000 0.31000  0.94000  0.90000  Biso   1.000  H
  H75      1.0000 0.81000  0.56000  0.90000  Biso   1.000  H
  H76      1.0000 0.69000  0.06000  0.10000  Biso   1.000  H
