data_image0
_cell_length_a       8.905
_cell_length_b       20.875
_cell_length_c       11.564
_cell_angle_alpha    90
_cell_angle_beta     98.188
_cell_angle_gamma    90

_symmetry_space_group_name_H-M    "P 1"
_symmetry_int_tables_number       1

loop_
  _symmetry_equiv_pos_as_xyz
  'x, y, z'

loop_
  _atom_site_label
  _atom_site_occupancy
  _atom_site_fract_x
  _atom_site_fract_y
  _atom_site_fract_z
  _atom_site_thermal_displace_type
  _atom_site_B_iso_or_equiv
  _atom_site_type_symbol
  C1       1.0000 0.70120  0.71510  0.58010  Biso   1.000  C
  C2       1.0000 0.29880  0.21510  0.91990  Biso   1.000  C
  C3       1.0000 0.29880  0.28490  0.41990  Biso   1.000  C
  C4       1.0000 0.70120  0.78490  0.08010  Biso   1.000  C
  H1       1.0000 0.61920  0.71240  0.62550  Biso   1.000  H
  H2       1.0000 0.38080  0.21240  0.87450  Biso   1.000  H
  H3       1.0000 0.38080  0.28760  0.37450  Biso   1.000  H
  H4       1.0000 0.61920  0.78760  0.12550  Biso   1.000  H
  H5       1.0000 0.74200  0.75780  0.58510  Biso   1.000  H
  H6       1.0000 0.25800  0.25780  0.91490  Biso   1.000  H
  H7       1.0000 0.25800  0.24220  0.41490  Biso   1.000  H
  H8       1.0000 0.74200  0.74220  0.08510  Biso   1.000  H
  H9       1.0000 0.66450  0.70520  0.50000  Biso   1.000  H
  H10      1.0000 0.33550  0.20520  0.00000  Biso   1.000  H
  H11      1.0000 0.33550  0.29480  0.50000  Biso   1.000  H
  H12      1.0000 0.66450  0.79480  0.00000  Biso   1.000  H
  C5       1.0000 0.86180  0.67780  0.75810  Biso   1.000  C
  C6       1.0000 0.13820  0.17780  0.74190  Biso   1.000  C
  C7       1.0000 0.13820  0.32220  0.24190  Biso   1.000  C
  C8       1.0000 0.86180  0.82220  0.25810  Biso   1.000  C
  H13      1.0000 0.94230  0.64940  0.78930  Biso   1.000  H
  H14      1.0000 0.05770  0.14940  0.71070  Biso   1.000  H
  H15      1.0000 0.05770  0.35060  0.21070  Biso   1.000  H
  H16      1.0000 0.94230  0.85060  0.28930  Biso   1.000  H
  H17      1.0000 0.89300  0.72140  0.77360  Biso   1.000  H
  H18      1.0000 0.10700  0.22140  0.72640  Biso   1.000  H
  H19      1.0000 0.10700  0.27860  0.22640  Biso   1.000  H
  H20      1.0000 0.89300  0.77860  0.27360  Biso   1.000  H
  H21      1.0000 0.77340  0.66900  0.79430  Biso   1.000  H
  H22      1.0000 0.22660  0.16900  0.70570  Biso   1.000  H
  H23      1.0000 0.22660  0.33100  0.20570  Biso   1.000  H
  H24      1.0000 0.77340  0.83100  0.29430  Biso   1.000  H
  C9       1.0000 0.77320  0.59970  0.60630  Biso   1.000  C
  C10      1.0000 0.22680  0.09970  0.89370  Biso   1.000  C
  C11      1.0000 0.22680  0.40030  0.39370  Biso   1.000  C
  C12      1.0000 0.77320  0.90030  0.10630  Biso   1.000  C
  H25      1.0000 0.68870  0.59150  0.64730  Biso   1.000  H
  H26      1.0000 0.31130  0.09150  0.85270  Biso   1.000  H
  H27      1.0000 0.31130  0.40850  0.35270  Biso   1.000  H
  H28      1.0000 0.68870  0.90850  0.14730  Biso   1.000  H
  H29      1.0000 0.74300  0.59290  0.52420  Biso   1.000  H
  H30      1.0000 0.25700  0.09290  0.97580  Biso   1.000  H
  H31      1.0000 0.25700  0.40710  0.47580  Biso   1.000  H
  H32      1.0000 0.74300  0.90710  0.02420  Biso   1.000  H
  H33      1.0000 0.85500  0.57120  0.63410  Biso   1.000  H
  H34      1.0000 0.14500  0.07120  0.86590  Biso   1.000  H
  H35      1.0000 0.14500  0.42880  0.36590  Biso   1.000  H
  H36      1.0000 0.85500  0.92880  0.13410  Biso   1.000  H
  Cu1      1.0000 0.30126  0.92903  0.67572  Biso   1.000  Cu
  Cu2      1.0000 0.69874  0.42903  0.82428  Biso   1.000  Cu
  Cu3      1.0000 0.69874  0.07097  0.32428  Biso   1.000  Cu
  Cu4      1.0000 0.30126  0.57097  0.17572  Biso   1.000  Cu
  O1       1.0000 0.16060  0.86526  0.60380  Biso   1.000  O
  O2       1.0000 0.83940  0.36526  0.89620  Biso   1.000  O
  O3       1.0000 0.83940  0.13474  0.39620  Biso   1.000  O
  O4       1.0000 0.16060  0.63474  0.10380  Biso   1.000  O
  O5       1.0000 0.37240  0.82973  0.54900  Biso   1.000  O
  O6       1.0000 0.62760  0.32973  0.95100  Biso   1.000  O
  O7       1.0000 0.62760  0.17027  0.45100  Biso   1.000  O
  O8       1.0000 0.37240  0.67027  0.04900  Biso   1.000  O
  O9       1.0000 0.32590  0.62292  0.31790  Biso   1.000  O
  O10      1.0000 0.67410  0.12292  0.18210  Biso   1.000  O
  O11      1.0000 0.67410  0.37708  0.68210  Biso   1.000  O
  O12      1.0000 0.32590  0.87708  0.81790  Biso   1.000  O
  O13      1.0000 0.13470  0.55827  0.33650  Biso   1.000  O
  O14      1.0000 0.86530  0.05827  0.16350  Biso   1.000  O
  O15      1.0000 0.86530  0.44173  0.66350  Biso   1.000  O
  O16      1.0000 0.13470  0.94173  0.83650  Biso   1.000  O
  N1       1.0000 0.26460  0.99003  0.54300  Biso   1.000  N
  N2       1.0000 0.73540  0.49003  0.95700  Biso   1.000  N
  N3       1.0000 0.73540  0.00997  0.45700  Biso   1.000  N
  N4       1.0000 0.26460  0.50997  0.04300  Biso   1.000  N
  N5       1.0000 0.45560  0.99461  0.73220  Biso   1.000  N
  N6       1.0000 0.54440  0.49461  0.76780  Biso   1.000  N
  N7       1.0000 0.54440  0.00539  0.26780  Biso   1.000  N
  N8       1.0000 0.45560  0.50539  0.23220  Biso   1.000  N
  C13      1.0000 0.23940  0.82174  0.56410  Biso   1.000  C
  C14      1.0000 0.76060  0.32174  0.93590  Biso   1.000  C
  C15      1.0000 0.76060  0.17826  0.43590  Biso   1.000  C
  C16      1.0000 0.23940  0.67826  0.06410  Biso   1.000  C
  C17      1.0000 0.16310  0.75814  0.53670  Biso   1.000  C
  C18      1.0000 0.83690  0.25814  0.96330  Biso   1.000  C
  C19      1.0000 0.83690  0.24186  0.46330  Biso   1.000  C
  C20      1.0000 0.16310  0.74186  0.03670  Biso   1.000  C
  C21      1.0000 0.22140  0.71467  0.46490  Biso   1.000  C
  C22      1.0000 0.77860  0.21467  0.03510  Biso   1.000  C
  C23      1.0000 0.77860  0.28533  0.53510  Biso   1.000  C
  C24      1.0000 0.22140  0.78533  0.96490  Biso   1.000  C
  H37      1.0000 0.30840  0.72440  0.43240  Biso   1.000  H
  H38      1.0000 0.69160  0.22440  0.06760  Biso   1.000  H
  H39      1.0000 0.69160  0.27560  0.56760  Biso   1.000  H
  H40      1.0000 0.30840  0.77560  0.93240  Biso   1.000  H
  C25      1.0000 0.14870  0.65620  0.44160  Biso   1.000  C
  C26      1.0000 0.85130  0.15620  0.05840  Biso   1.000  C
  C27      1.0000 0.85130  0.34380  0.55840  Biso   1.000  C
  C28      1.0000 0.14870  0.84380  0.94160  Biso   1.000  C
  C29      1.0000 0.02130  0.64196  0.49350  Biso   1.000  C
  C30      1.0000 0.97870  0.14196  0.00650  Biso   1.000  C
  C31      1.0000 0.97870  0.35804  0.50650  Biso   1.000  C
  C32      1.0000 0.02130  0.85804  0.99350  Biso   1.000  C
  H41      1.0000 0.97390  0.60260  0.47800  Biso   1.000  H
  H42      1.0000 0.02610  0.10260  0.02200  Biso   1.000  H
  H43      1.0000 0.02610  0.39740  0.52200  Biso   1.000  H
  H44      1.0000 0.97390  0.89740  0.97800  Biso   1.000  H
  C33      1.0000 0.96230  0.68433  0.56780  Biso   1.000  C
  C34      1.0000 0.03770  0.18433  0.93220  Biso   1.000  C
  C35      1.0000 0.03770  0.31567  0.43220  Biso   1.000  C
  C36      1.0000 0.96230  0.81567  0.06780  Biso   1.000  C
  C37      1.0000 0.03430  0.74329  0.58600  Biso   1.000  C
  C38      1.0000 0.96570  0.24329  0.91400  Biso   1.000  C
  C39      1.0000 0.96570  0.25671  0.41400  Biso   1.000  C
  C40      1.0000 0.03430  0.75671  0.08600  Biso   1.000  C
  H45      1.0000 0.99500  0.77360  0.63250  Biso   1.000  H
  H46      1.0000 0.00500  0.27360  0.86750  Biso   1.000  H
  H47      1.0000 0.00500  0.22640  0.36750  Biso   1.000  H
  H48      1.0000 0.99500  0.72640  0.13250  Biso   1.000  H
  C41      1.0000 0.20570  0.60850  0.36090  Biso   1.000  C
  C42      1.0000 0.79430  0.10850  0.13910  Biso   1.000  C
  C43      1.0000 0.79430  0.39150  0.63910  Biso   1.000  C
  C44      1.0000 0.20570  0.89150  0.86090  Biso   1.000  C
  C45      1.0000 0.82470  0.66770  0.62710  Biso   1.000  C
  C46      1.0000 0.17530  0.16770  0.87290  Biso   1.000  C
  C47      1.0000 0.17530  0.33230  0.37290  Biso   1.000  C
  C48      1.0000 0.82470  0.83230  0.12710  Biso   1.000  C
  C49      1.0000 0.16050  0.98264  0.44740  Biso   1.000  C
  C50      1.0000 0.83950  0.48264  0.05260  Biso   1.000  C
  C51      1.0000 0.83950  0.01736  0.55260  Biso   1.000  C
  C52      1.0000 0.16050  0.51736  0.94740  Biso   1.000  C
  H49      1.0000 0.10310  0.94530  0.43920  Biso   1.000  H
  H50      1.0000 0.89690  0.44530  0.06080  Biso   1.000  H
  H51      1.0000 0.89690  0.05470  0.56080  Biso   1.000  H
  H52      1.0000 0.10310  0.55470  0.93920  Biso   1.000  H
  C53      1.0000 0.13650  0.02830  0.36180  Biso   1.000  C
  C54      1.0000 0.86350  0.52830  0.13820  Biso   1.000  C
  C55      1.0000 0.86350  0.97170  0.63820  Biso   1.000  C
  C56      1.0000 0.13650  0.47170  0.86180  Biso   1.000  C
  H53      1.0000 0.06250  0.02250  0.29740  Biso   1.000  H
  H54      1.0000 0.93750  0.52250  0.20260  Biso   1.000  H
  H55      1.0000 0.93750  0.97750  0.70260  Biso   1.000  H
  H56      1.0000 0.06250  0.47750  0.79740  Biso   1.000  H
  C57      1.0000 0.22330  0.08240  0.37290  Biso   1.000  C
  C58      1.0000 0.77670  0.58240  0.12710  Biso   1.000  C
  C59      1.0000 0.77670  0.91760  0.62710  Biso   1.000  C
  C60      1.0000 0.22330  0.41760  0.87290  Biso   1.000  C
  H57      1.0000 0.20870  0.11400  0.31580  Biso   1.000  H
  H58      1.0000 0.79130  0.61400  0.18420  Biso   1.000  H
  H59      1.0000 0.79130  0.88600  0.68420  Biso   1.000  H
  H60      1.0000 0.20870  0.38600  0.81580  Biso   1.000  H
  C61      1.0000 0.33280  0.09003  0.46920  Biso   1.000  C
  C62      1.0000 0.66720  0.59003  0.03080  Biso   1.000  C
  C63      1.0000 0.66720  0.90997  0.53080  Biso   1.000  C
  C64      1.0000 0.33280  0.40997  0.96920  Biso   1.000  C
  H61      1.0000 0.39380  0.12640  0.47700  Biso   1.000  H
  H62      1.0000 0.60620  0.62640  0.02300  Biso   1.000  H
  H63      1.0000 0.60620  0.87360  0.52300  Biso   1.000  H
  H64      1.0000 0.39380  0.37360  0.97700  Biso   1.000  H
  C65      1.0000 0.35030  0.04310  0.55330  Biso   1.000  C
  C66      1.0000 0.64970  0.54310  0.94670  Biso   1.000  C
  C67      1.0000 0.64970  0.95690  0.44670  Biso   1.000  C
  C68      1.0000 0.35030  0.45690  0.05330  Biso   1.000  C
  C69      1.0000 0.46140  0.04542  0.66100  Biso   1.000  C
  C70      1.0000 0.53860  0.54542  0.83900  Biso   1.000  C
  C71      1.0000 0.53860  0.95458  0.33900  Biso   1.000  C
  C72      1.0000 0.46140  0.45458  0.16100  Biso   1.000  C
  C73      1.0000 0.56400  0.09492  0.69010  Biso   1.000  C
  C74      1.0000 0.43600  0.59492  0.80990  Biso   1.000  C
  C75      1.0000 0.43600  0.90508  0.30990  Biso   1.000  C
  C76      1.0000 0.56400  0.40508  0.19010  Biso   1.000  C
  H65      1.0000 0.56750  0.12970  0.64020  Biso   1.000  H
  H66      1.0000 0.43250  0.62970  0.85980  Biso   1.000  H
  H67      1.0000 0.43250  0.87030  0.35980  Biso   1.000  H
  H68      1.0000 0.56750  0.37030  0.14020  Biso   1.000  H
  C77      1.0000 0.66030  0.09150  0.79410  Biso   1.000  C
  C78      1.0000 0.33970  0.59150  0.70590  Biso   1.000  C
  C79      1.0000 0.33970  0.90850  0.20590  Biso   1.000  C
  C80      1.0000 0.66030  0.40850  0.29410  Biso   1.000  C
  H69      1.0000 0.72890  0.12450  0.81560  Biso   1.000  H
  H70      1.0000 0.27110  0.62450  0.68440  Biso   1.000  H
  H71      1.0000 0.27110  0.87550  0.18440  Biso   1.000  H
  H72      1.0000 0.72890  0.37550  0.31560  Biso   1.000  H
  C81      1.0000 0.65490  0.03940  0.86640  Biso   1.000  C
  C82      1.0000 0.34510  0.53940  0.63360  Biso   1.000  C
  C83      1.0000 0.34510  0.96060  0.13360  Biso   1.000  C
  C84      1.0000 0.65490  0.46060  0.36640  Biso   1.000  C
  H73      1.0000 0.72030  0.03620  0.93640  Biso   1.000  H
  H74      1.0000 0.27970  0.53620  0.56360  Biso   1.000  H
  H75      1.0000 0.27970  0.96380  0.06360  Biso   1.000  H
  H76      1.0000 0.72030  0.46380  0.43640  Biso   1.000  H
  C85      1.0000 0.55050  0.99234  0.83230  Biso   1.000  C
  C86      1.0000 0.44950  0.49234  0.66770  Biso   1.000  C
  C87      1.0000 0.44950  0.00766  0.16770  Biso   1.000  C
  C88      1.0000 0.55050  0.50766  0.33230  Biso   1.000  C
  H77      1.0000 0.54570  0.95720  0.88110  Biso   1.000  H
  H78      1.0000 0.45430  0.45720  0.61890  Biso   1.000  H
  H79      1.0000 0.45430  0.04280  0.11890  Biso   1.000  H
  H80      1.0000 0.54570  0.54280  0.38110  Biso   1.000  H
  C89      1.0000 0.75680  0.77770  0.18680  Biso   1.000  C
  C90      1.0000 0.24320  0.27770  0.31320  Biso   1.000  C
  C91      1.0000 0.24320  0.22230  0.81320  Biso   1.000  C
  C92      1.0000 0.75680  0.72230  0.68680  Biso   1.000  C
  H81      1.0000 0.79270  0.77910  0.26910  Biso   1.000  H
  H82      1.0000 0.20730  0.27910  0.23090  Biso   1.000  H
  H83      1.0000 0.20730  0.22090  0.73090  Biso   1.000  H
  H84      1.0000 0.79270  0.72090  0.76910  Biso   1.000  H
  H85      1.0000 0.78620  0.73780  0.15530  Biso   1.000  H
  H86      1.0000 0.21380  0.23780  0.34470  Biso   1.000  H
  H87      1.0000 0.21380  0.26220  0.84470  Biso   1.000  H
  H88      1.0000 0.78620  0.76220  0.65530  Biso   1.000  H
  H89      1.0000 0.64820  0.78130  0.17430  Biso   1.000  H
  H90      1.0000 0.35180  0.28130  0.32570  Biso   1.000  H
  H91      1.0000 0.35180  0.21870  0.82570  Biso   1.000  H
  H92      1.0000 0.64820  0.71870  0.67430  Biso   1.000  H
  C93      1.0000 0.89180  0.87840  0.23170  Biso   1.000  C
  C94      1.0000 0.10820  0.37840  0.26830  Biso   1.000  C
  C95      1.0000 0.10820  0.12160  0.76830  Biso   1.000  C
  C96      1.0000 0.89180  0.62160  0.73170  Biso   1.000  C
  H93      1.0000 0.90330  0.92080  0.20210  Biso   1.000  H
  H94      1.0000 0.09670  0.42080  0.29790  Biso   1.000  H
  H95      1.0000 0.09670  0.07920  0.79790  Biso   1.000  H
  H96      1.0000 0.90330  0.57920  0.70210  Biso   1.000  H
  H97      1.0000 0.98880  0.86260  0.26710  Biso   1.000  H
  H98      1.0000 0.01120  0.36260  0.23290  Biso   1.000  H
  H99      1.0000 0.01120  0.13740  0.73290  Biso   1.000  H
  H100     1.0000 0.98880  0.63740  0.76710  Biso   1.000  H
  H101     1.0000 0.82360  0.87960  0.28900  Biso   1.000  H
  H102     1.0000 0.17640  0.37960  0.21100  Biso   1.000  H
  H103     1.0000 0.17640  0.12040  0.71100  Biso   1.000  H
  H104     1.0000 0.82360  0.62040  0.78900  Biso   1.000  H
  C97      1.0000 0.71220  0.87490  0.05480  Biso   1.000  C
  C98      1.0000 0.28780  0.37490  0.44520  Biso   1.000  C
  C99      1.0000 0.28780  0.12510  0.94520  Biso   1.000  C
  C100     1.0000 0.71220  0.62510  0.55480  Biso   1.000  C
  H105     1.0000 0.63420  0.88710  0.09980  Biso   1.000  H
  H106     1.0000 0.36580  0.38710  0.40020  Biso   1.000  H
  H107     1.0000 0.36580  0.11290  0.90020  Biso   1.000  H
  H108     1.0000 0.63420  0.61290  0.59980  Biso   1.000  H
  H109     1.0000 0.66760  0.85230  0.98620  Biso   1.000  H
  H110     1.0000 0.33240  0.35230  0.51380  Biso   1.000  H
  H111     1.0000 0.33240  0.14770  0.01380  Biso   1.000  H
  H112     1.0000 0.66760  0.64770  0.48620  Biso   1.000  H
  H113     1.0000 0.76290  0.91250  0.03230  Biso   1.000  H
  H114     1.0000 0.23710  0.41250  0.46770  Biso   1.000  H
  H115     1.0000 0.23710  0.08750  0.96770  Biso   1.000  H
  H116     1.0000 0.76290  0.58750  0.53230  Biso   1.000  H
