data_image0
_cell_length_a       13.382
_cell_length_b       19.925
_cell_length_c       6.901
_cell_angle_alpha    90
_cell_angle_beta     90
_cell_angle_gamma    90

_symmetry_space_group_name_H-M    "P 1"
_symmetry_int_tables_number       1

loop_
  _symmetry_equiv_pos_as_xyz
  'x, y, z'

loop_
  _atom_site_label
  _atom_site_occupancy
  _atom_site_fract_x
  _atom_site_fract_y
  _atom_site_fract_z
  _atom_site_thermal_displace_type
  _atom_site_B_iso_or_equiv
  _atom_site_type_symbol
  Cu1      1.0000 0.00000  0.02980  0.25000  Biso   1.000  Cu
  Cu2      1.0000 0.50000  0.47020  0.75000  Biso   1.000  Cu
  Cu3      1.0000 0.00000  0.97020  0.75000  Biso   1.000  Cu
  Cu4      1.0000 0.50000  0.52980  0.25000  Biso   1.000  Cu
  Cl1      1.0000 0.10690  0.95670  0.11400  Biso   1.000  Cl
  Cl2      1.0000 0.39310  0.54330  0.61400  Biso   1.000  Cl
  Cl3      1.0000 0.60690  0.54330  0.88600  Biso   1.000  Cl
  Cl4      1.0000 0.89310  0.95670  0.38600  Biso   1.000  Cl
  Cl5      1.0000 0.89310  0.04330  0.88600  Biso   1.000  Cl
  Cl6      1.0000 0.60690  0.45670  0.38600  Biso   1.000  Cl
  Cl7      1.0000 0.39310  0.45670  0.11400  Biso   1.000  Cl
  Cl8      1.0000 0.10690  0.04330  0.61400  Biso   1.000  Cl
  N1       1.0000 0.08000  0.10790  0.15870  Biso   1.000  N
  N2       1.0000 0.42000  0.39210  0.65870  Biso   1.000  N
  N3       1.0000 0.58000  0.39210  0.84130  Biso   1.000  N
  N4       1.0000 0.92000  0.10790  0.34130  Biso   1.000  N
  N5       1.0000 0.92000  0.89210  0.84130  Biso   1.000  N
  N6       1.0000 0.58000  0.60790  0.34130  Biso   1.000  N
  N7       1.0000 0.42000  0.60790  0.15870  Biso   1.000  N
  N8       1.0000 0.08000  0.89210  0.65870  Biso   1.000  N
  O1       1.0000 0.16930  0.10350  0.06380  Biso   1.000  O
  O2       1.0000 0.33070  0.39650  0.56380  Biso   1.000  O
  O3       1.0000 0.66930  0.39650  0.93620  Biso   1.000  O
  O4       1.0000 0.83070  0.10350  0.43620  Biso   1.000  O
  O5       1.0000 0.83070  0.89650  0.93620  Biso   1.000  O
  O6       1.0000 0.66930  0.60350  0.43620  Biso   1.000  O
  O7       1.0000 0.33070  0.60350  0.06380  Biso   1.000  O
  O8       1.0000 0.16930  0.89650  0.56380  Biso   1.000  O
  C1       1.0000 0.04750  0.16830  0.19330  Biso   1.000  C
  C2       1.0000 0.45250  0.33170  0.69330  Biso   1.000  C
  C3       1.0000 0.54750  0.33170  0.80670  Biso   1.000  C
  C4       1.0000 0.95250  0.16830  0.30670  Biso   1.000  C
  C5       1.0000 0.95250  0.83170  0.80670  Biso   1.000  C
  C6       1.0000 0.54750  0.66830  0.30670  Biso   1.000  C
  C7       1.0000 0.45250  0.66830  0.19330  Biso   1.000  C
  C8       1.0000 0.04750  0.83170  0.69330  Biso   1.000  C
  C9       1.0000 0.09570  0.23060  0.12550  Biso   1.000  C
  C10      1.0000 0.40430  0.26940  0.62550  Biso   1.000  C
  C11      1.0000 0.59570  0.26940  0.87450  Biso   1.000  C
  C12      1.0000 0.90430  0.23060  0.37450  Biso   1.000  C
  C13      1.0000 0.90430  0.76940  0.87450  Biso   1.000  C
  C14      1.0000 0.59570  0.73060  0.37450  Biso   1.000  C
  C15      1.0000 0.40430  0.73060  0.12550  Biso   1.000  C
  C16      1.0000 0.09570  0.76940  0.62550  Biso   1.000  C
  C17      1.0000 0.12380  0.27960  0.25420  Biso   1.000  C
  C18      1.0000 0.37620  0.22040  0.75420  Biso   1.000  C
  C19      1.0000 0.62380  0.22040  0.74580  Biso   1.000  C
  C20      1.0000 0.87620  0.27960  0.24580  Biso   1.000  C
  C21      1.0000 0.87620  0.72040  0.74580  Biso   1.000  C
  C22      1.0000 0.62380  0.77960  0.24580  Biso   1.000  C
  C23      1.0000 0.37620  0.77960  0.25420  Biso   1.000  C
  C24      1.0000 0.12380  0.72040  0.75420  Biso   1.000  C
  C25      1.0000 0.17030  0.33530  0.18340  Biso   1.000  C
  C26      1.0000 0.32970  0.16470  0.68340  Biso   1.000  C
  C27      1.0000 0.67030  0.16470  0.81660  Biso   1.000  C
  C28      1.0000 0.82970  0.33530  0.31660  Biso   1.000  C
  C29      1.0000 0.82970  0.66470  0.81660  Biso   1.000  C
  C30      1.0000 0.67030  0.83530  0.31660  Biso   1.000  C
  C31      1.0000 0.32970  0.83530  0.18340  Biso   1.000  C
  C32      1.0000 0.17030  0.66470  0.68340  Biso   1.000  C
  C33      1.0000 0.18420  0.34610  0.98840  Biso   1.000  C
  C34      1.0000 0.31580  0.15390  0.48840  Biso   1.000  C
  C35      1.0000 0.68420  0.15390  0.01160  Biso   1.000  C
  C36      1.0000 0.81580  0.34610  0.51160  Biso   1.000  C
  C37      1.0000 0.81580  0.65390  0.01160  Biso   1.000  C
  C38      1.0000 0.68420  0.84610  0.51160  Biso   1.000  C
  C39      1.0000 0.31580  0.84610  0.98840  Biso   1.000  C
  C40      1.0000 0.18420  0.65390  0.48840  Biso   1.000  C
  C41      1.0000 0.15480  0.29790  0.86610  Biso   1.000  C
  C42      1.0000 0.34520  0.20210  0.36610  Biso   1.000  C
  C43      1.0000 0.65480  0.20210  0.13390  Biso   1.000  C
  C44      1.0000 0.84520  0.29790  0.63390  Biso   1.000  C
  C45      1.0000 0.84520  0.70210  0.13390  Biso   1.000  C
  C46      1.0000 0.65480  0.79790  0.63390  Biso   1.000  C
  C47      1.0000 0.34520  0.79790  0.86610  Biso   1.000  C
  C48      1.0000 0.15480  0.70210  0.36610  Biso   1.000  C
  C49      1.0000 0.11150  0.23830  0.92920  Biso   1.000  C
  C50      1.0000 0.38850  0.26170  0.42920  Biso   1.000  C
  C51      1.0000 0.61150  0.26170  0.07080  Biso   1.000  C
  C52      1.0000 0.88850  0.23830  0.57080  Biso   1.000  C
  C53      1.0000 0.88850  0.76170  0.07080  Biso   1.000  C
  C54      1.0000 0.61150  0.73830  0.57080  Biso   1.000  C
  C55      1.0000 0.38850  0.73830  0.92920  Biso   1.000  C
  C56      1.0000 0.11150  0.76170  0.42920  Biso   1.000  C
  H1       1.0000 0.11000  0.27100  0.40200  Biso   1.000  H
  H2       1.0000 0.39000  0.22900  0.90200  Biso   1.000  H
  H3       1.0000 0.61000  0.22900  0.59800  Biso   1.000  H
  H4       1.0000 0.89000  0.27100  0.09800  Biso   1.000  H
  H5       1.0000 0.89000  0.72900  0.59800  Biso   1.000  H
  H6       1.0000 0.61000  0.77100  0.09800  Biso   1.000  H
  H7       1.0000 0.39000  0.77100  0.40200  Biso   1.000  H
  H8       1.0000 0.11000  0.72900  0.90200  Biso   1.000  H
  H9       1.0000 0.19800  0.37400  0.27400  Biso   1.000  H
  H10      1.0000 0.30200  0.12600  0.77400  Biso   1.000  H
  H11      1.0000 0.69800  0.12600  0.72600  Biso   1.000  H
  H12      1.0000 0.80200  0.37400  0.22600  Biso   1.000  H
  H13      1.0000 0.80200  0.62600  0.72600  Biso   1.000  H
  H14      1.0000 0.69800  0.87400  0.22600  Biso   1.000  H
  H15      1.0000 0.30200  0.87400  0.27400  Biso   1.000  H
  H16      1.0000 0.19800  0.62600  0.77400  Biso   1.000  H
  H17      1.0000 0.21300  0.39700  0.92700  Biso   1.000  H
  H18      1.0000 0.28700  0.10300  0.42700  Biso   1.000  H
  H19      1.0000 0.71300  0.10300  0.07300  Biso   1.000  H
  H20      1.0000 0.78700  0.39700  0.57300  Biso   1.000  H
  H21      1.0000 0.78700  0.60300  0.07300  Biso   1.000  H
  H22      1.0000 0.71300  0.89700  0.57300  Biso   1.000  H
  H23      1.0000 0.28700  0.89700  0.92700  Biso   1.000  H
  H24      1.0000 0.21300  0.60300  0.42700  Biso   1.000  H
  H25      1.0000 0.16800  0.29900  0.71300  Biso   1.000  H
  H26      1.0000 0.33200  0.20100  0.21300  Biso   1.000  H
  H27      1.0000 0.66800  0.20100  0.28700  Biso   1.000  H
  H28      1.0000 0.83200  0.29900  0.78700  Biso   1.000  H
  H29      1.0000 0.83200  0.70100  0.28700  Biso   1.000  H
  H30      1.0000 0.66800  0.79900  0.78700  Biso   1.000  H
  H31      1.0000 0.33200  0.79900  0.71300  Biso   1.000  H
  H32      1.0000 0.16800  0.70100  0.21300  Biso   1.000  H
  H33      1.0000 0.08800  0.19800  0.83600  Biso   1.000  H
  H34      1.0000 0.41200  0.30200  0.33600  Biso   1.000  H
  H35      1.0000 0.58800  0.30200  0.16400  Biso   1.000  H
  H36      1.0000 0.91200  0.19800  0.66400  Biso   1.000  H
  H37      1.0000 0.91200  0.80200  0.16400  Biso   1.000  H
  H38      1.0000 0.58800  0.69800  0.66400  Biso   1.000  H
  H39      1.0000 0.41200  0.69800  0.83600  Biso   1.000  H
  H40      1.0000 0.08800  0.80200  0.33600  Biso   1.000  H
  H41      1.0000 0.19000  0.05600  0.05500  Biso   1.000  H
  H42      1.0000 0.31000  0.44400  0.55500  Biso   1.000  H
  H43      1.0000 0.69000  0.44400  0.94500  Biso   1.000  H
  H44      1.0000 0.81000  0.05600  0.44500  Biso   1.000  H
  H45      1.0000 0.81000  0.94400  0.94500  Biso   1.000  H
  H46      1.0000 0.69000  0.55600  0.44500  Biso   1.000  H
  H47      1.0000 0.31000  0.55600  0.05500  Biso   1.000  H
  H48      1.0000 0.19000  0.94400  0.55500  Biso   1.000  H
