data_image0
_cell_length_a       8.2003
_cell_length_b       16.234
_cell_length_c       13.708
_cell_angle_alpha    90
_cell_angle_beta     90
_cell_angle_gamma    90

_symmetry_space_group_name_H-M    "P 1"
_symmetry_int_tables_number       1

loop_
  _symmetry_equiv_pos_as_xyz
  'x, y, z'

loop_
  _atom_site_label
  _atom_site_occupancy
  _atom_site_fract_x
  _atom_site_fract_y
  _atom_site_fract_z
  _atom_site_thermal_displace_type
  _atom_site_B_iso_or_equiv
  _atom_site_type_symbol
  C1       1.0000 0.11490  0.35544  0.53558  Biso   1.000  C
  C2       1.0000 0.38510  0.14456  0.03558  Biso   1.000  C
  C3       1.0000 0.88510  0.35544  0.96442  Biso   1.000  C
  C4       1.0000 0.61490  0.14456  0.46442  Biso   1.000  C
  C5       1.0000 0.88510  0.64456  0.46442  Biso   1.000  C
  C6       1.0000 0.61490  0.85544  0.96442  Biso   1.000  C
  C7       1.0000 0.11490  0.64456  0.03558  Biso   1.000  C
  C8       1.0000 0.38510  0.85544  0.53558  Biso   1.000  C
  C9       1.0000 0.11130  0.33765  0.43628  Biso   1.000  C
  C10      1.0000 0.38870  0.16235  0.93628  Biso   1.000  C
  C11      1.0000 0.88870  0.33765  0.06372  Biso   1.000  C
  C12      1.0000 0.61130  0.16235  0.56372  Biso   1.000  C
  C13      1.0000 0.88870  0.66235  0.56372  Biso   1.000  C
  C14      1.0000 0.61130  0.83765  0.06372  Biso   1.000  C
  C15      1.0000 0.11130  0.66235  0.93628  Biso   1.000  C
  C16      1.0000 0.38870  0.83765  0.43628  Biso   1.000  C
  C17      1.0000 0.17060  0.39606  0.37198  Biso   1.000  C
  C18      1.0000 0.32940  0.10394  0.87198  Biso   1.000  C
  C19      1.0000 0.82940  0.39606  0.12802  Biso   1.000  C
  C20      1.0000 0.67060  0.10394  0.62802  Biso   1.000  C
  C21      1.0000 0.82940  0.60394  0.62802  Biso   1.000  C
  C22      1.0000 0.67060  0.89606  0.12802  Biso   1.000  C
  C23      1.0000 0.17060  0.60394  0.87198  Biso   1.000  C
  C24      1.0000 0.32940  0.89606  0.37198  Biso   1.000  C
  H1       1.0000 0.16770  0.38490  0.30550  Biso   1.000  H
  H2       1.0000 0.33230  0.11510  0.80550  Biso   1.000  H
  H3       1.0000 0.83230  0.38490  0.19450  Biso   1.000  H
  H4       1.0000 0.66770  0.11510  0.69450  Biso   1.000  H
  H5       1.0000 0.83230  0.61510  0.69450  Biso   1.000  H
  H6       1.0000 0.66770  0.88490  0.19450  Biso   1.000  H
  H7       1.0000 0.16770  0.61510  0.80550  Biso   1.000  H
  H8       1.0000 0.33230  0.88490  0.30550  Biso   1.000  H
  C25      1.0000 0.23450  0.47081  0.40328  Biso   1.000  C
  C26      1.0000 0.26550  0.02919  0.90328  Biso   1.000  C
  C27      1.0000 0.76550  0.47081  0.09672  Biso   1.000  C
  C28      1.0000 0.73450  0.02919  0.59672  Biso   1.000  C
  C29      1.0000 0.76550  0.52919  0.59672  Biso   1.000  C
  C30      1.0000 0.73450  0.97081  0.09672  Biso   1.000  C
  C31      1.0000 0.23450  0.52919  0.90328  Biso   1.000  C
  C32      1.0000 0.26550  0.97081  0.40328  Biso   1.000  C
  C33      1.0000 0.24070  0.48643  0.50282  Biso   1.000  C
  C34      1.0000 0.25930  0.01357  0.00282  Biso   1.000  C
  C35      1.0000 0.75930  0.48643  0.99718  Biso   1.000  C
  C36      1.0000 0.74070  0.01357  0.49718  Biso   1.000  C
  C37      1.0000 0.75930  0.51357  0.49718  Biso   1.000  C
  C38      1.0000 0.74070  0.98643  0.99718  Biso   1.000  C
  C39      1.0000 0.24070  0.51357  0.00282  Biso   1.000  C
  C40      1.0000 0.25930  0.98643  0.50282  Biso   1.000  C
  C41      1.0000 0.04060  0.25909  0.39516  Biso   1.000  C
  C42      1.0000 0.45940  0.24091  0.89516  Biso   1.000  C
  C43      1.0000 0.95940  0.25909  0.10484  Biso   1.000  C
  C44      1.0000 0.54060  0.24091  0.60484  Biso   1.000  C
  C45      1.0000 0.95940  0.74091  0.60484  Biso   1.000  C
  C46      1.0000 0.54060  0.75909  0.10484  Biso   1.000  C
  C47      1.0000 0.04060  0.74091  0.89516  Biso   1.000  C
  C48      1.0000 0.45940  0.75909  0.39516  Biso   1.000  C
  C49      1.0000 0.29380  0.53108  0.32739  Biso   1.000  C
  C50      1.0000 0.20620  0.96892  0.82739  Biso   1.000  C
  C51      1.0000 0.70620  0.53108  0.17261  Biso   1.000  C
  C52      1.0000 0.79380  0.96892  0.67261  Biso   1.000  C
  C53      1.0000 0.70620  0.46892  0.67261  Biso   1.000  C
  C54      1.0000 0.79380  0.03108  0.17261  Biso   1.000  C
  C55      1.0000 0.29380  0.46892  0.82739  Biso   1.000  C
  C56      1.0000 0.20620  0.03108  0.32739  Biso   1.000  C
  C57      1.0000 0.30430  0.56351  0.54895  Biso   1.000  C
  C58      1.0000 0.19570  0.93649  0.04895  Biso   1.000  C
  C59      1.0000 0.69570  0.56351  0.95105  Biso   1.000  C
  C60      1.0000 0.80430  0.93649  0.45105  Biso   1.000  C
  C61      1.0000 0.69570  0.43649  0.45105  Biso   1.000  C
  C62      1.0000 0.80430  0.06351  0.95105  Biso   1.000  C
  C63      1.0000 0.30430  0.43649  0.04895  Biso   1.000  C
  C64      1.0000 0.19570  0.06351  0.54895  Biso   1.000  C
  H9       1.0000 0.29410  0.55950  0.61860  Biso   1.000  H
  H10      1.0000 0.20590  0.94050  0.11860  Biso   1.000  H
  H11      1.0000 0.70590  0.55950  0.88140  Biso   1.000  H
  H12      1.0000 0.79410  0.94050  0.38140  Biso   1.000  H
  H13      1.0000 0.70590  0.44050  0.38140  Biso   1.000  H
  H14      1.0000 0.79410  0.05950  0.88140  Biso   1.000  H
  H15      1.0000 0.29410  0.44050  0.11860  Biso   1.000  H
  H16      1.0000 0.20590  0.05950  0.61860  Biso   1.000  H
  H17      1.0000 0.24270  0.60990  0.52590  Biso   1.000  H
  H18      1.0000 0.25730  0.89010  0.02590  Biso   1.000  H
  H19      1.0000 0.75730  0.60990  0.97410  Biso   1.000  H
  H20      1.0000 0.74270  0.89010  0.47410  Biso   1.000  H
  H21      1.0000 0.75730  0.39010  0.47410  Biso   1.000  H
  H22      1.0000 0.74270  0.10990  0.97410  Biso   1.000  H
  H23      1.0000 0.24270  0.39010  0.02590  Biso   1.000  H
  H24      1.0000 0.25730  0.10990  0.52590  Biso   1.000  H
  H25      1.0000 0.41700  0.57060  0.53200  Biso   1.000  H
  H26      1.0000 0.08300  0.92940  0.03200  Biso   1.000  H
  H27      1.0000 0.58300  0.57060  0.96800  Biso   1.000  H
  H28      1.0000 0.91700  0.92940  0.46800  Biso   1.000  H
  H29      1.0000 0.58300  0.42940  0.46800  Biso   1.000  H
  H30      1.0000 0.91700  0.07060  0.96800  Biso   1.000  H
  H31      1.0000 0.41700  0.42940  0.03200  Biso   1.000  H
  H32      1.0000 0.08300  0.07060  0.53200  Biso   1.000  H
  C65      1.0000 0.05300  0.30107  0.61494  Biso   1.000  C
  C66      1.0000 0.44700  0.19893  0.11494  Biso   1.000  C
  C67      1.0000 0.94700  0.30107  0.88506  Biso   1.000  C
  C68      1.0000 0.55300  0.19893  0.38506  Biso   1.000  C
  C69      1.0000 0.94700  0.69893  0.38506  Biso   1.000  C
  C70      1.0000 0.55300  0.80107  0.88506  Biso   1.000  C
  C71      1.0000 0.05300  0.69893  0.11494  Biso   1.000  C
  C72      1.0000 0.44700  0.80107  0.61494  Biso   1.000  C
  H33      1.0000 0.10780  0.31420  0.67490  Biso   1.000  H
  H34      1.0000 0.39220  0.18580  0.17490  Biso   1.000  H
  H35      1.0000 0.89220  0.31420  0.82510  Biso   1.000  H
  H36      1.0000 0.60780  0.18580  0.32510  Biso   1.000  H
  H37      1.0000 0.89220  0.68580  0.32510  Biso   1.000  H
  H38      1.0000 0.60780  0.81420  0.82510  Biso   1.000  H
  H39      1.0000 0.10780  0.68580  0.17490  Biso   1.000  H
  H40      1.0000 0.39220  0.81420  0.67490  Biso   1.000  H
  H41      1.0000 0.07360  0.24460  0.59840  Biso   1.000  H
  H42      1.0000 0.42640  0.25540  0.09840  Biso   1.000  H
  H43      1.0000 0.92640  0.24460  0.90160  Biso   1.000  H
  H44      1.0000 0.57360  0.25540  0.40160  Biso   1.000  H
  H45      1.0000 0.92640  0.75540  0.40160  Biso   1.000  H
  H46      1.0000 0.57360  0.74460  0.90160  Biso   1.000  H
  H47      1.0000 0.07360  0.75540  0.09840  Biso   1.000  H
  H48      1.0000 0.42640  0.74460  0.59840  Biso   1.000  H
  H49      1.0000 0.93790  0.30940  0.62270  Biso   1.000  H
  H50      1.0000 0.56210  0.19060  0.12270  Biso   1.000  H
  H51      1.0000 0.06210  0.30940  0.87730  Biso   1.000  H
  H52      1.0000 0.43790  0.19060  0.37730  Biso   1.000  H
  H53      1.0000 0.06210  0.69060  0.37730  Biso   1.000  H
  H54      1.0000 0.43790  0.80940  0.87730  Biso   1.000  H
  H55      1.0000 0.93790  0.69060  0.12270  Biso   1.000  H
  H56      1.0000 0.56210  0.80940  0.62270  Biso   1.000  H
  Cu1      1.0000 0.00000  0.14817  0.25000  Biso   1.000  Cu
  Cu2      1.0000 0.50000  0.35183  0.75000  Biso   1.000  Cu
  Cu3      1.0000 0.00000  0.85183  0.75000  Biso   1.000  Cu
  Cu4      1.0000 0.50000  0.64817  0.25000  Biso   1.000  Cu
  H57      1.0000 0.18600  0.43880  0.62100  Biso   1.000  H
  H58      1.0000 0.31400  0.06120  0.12100  Biso   1.000  H
  H59      1.0000 0.81400  0.43880  0.87900  Biso   1.000  H
  H60      1.0000 0.68600  0.06120  0.37900  Biso   1.000  H
  H61      1.0000 0.81400  0.56120  0.37900  Biso   1.000  H
  H62      1.0000 0.68600  0.93880  0.87900  Biso   1.000  H
  H63      1.0000 0.18600  0.56120  0.12100  Biso   1.000  H
  H64      1.0000 0.31400  0.93880  0.62100  Biso   1.000  H
  N1       1.0000 0.18000  0.42800  0.56291  Biso   1.000  N
  N2       1.0000 0.32000  0.07200  0.06291  Biso   1.000  N
  N3       1.0000 0.82000  0.42800  0.93709  Biso   1.000  N
  N4       1.0000 0.68000  0.07200  0.43709  Biso   1.000  N
  N5       1.0000 0.82000  0.57200  0.43709  Biso   1.000  N
  N6       1.0000 0.68000  0.92800  0.93709  Biso   1.000  N
  N7       1.0000 0.18000  0.57200  0.06291  Biso   1.000  N
  N8       1.0000 0.32000  0.92800  0.56291  Biso   1.000  N
  O1       1.0000 0.91870  0.22887  0.43090  Biso   1.000  O
  O2       1.0000 0.58130  0.27113  0.93090  Biso   1.000  O
  O3       1.0000 0.08130  0.22887  0.06910  Biso   1.000  O
  O4       1.0000 0.41870  0.27113  0.56910  Biso   1.000  O
  O5       1.0000 0.08130  0.77113  0.56910  Biso   1.000  O
  O6       1.0000 0.41870  0.72887  0.06910  Biso   1.000  O
  O7       1.0000 0.91870  0.77113  0.93090  Biso   1.000  O
  O8       1.0000 0.58130  0.72887  0.43090  Biso   1.000  O
  O9       1.0000 0.11690  0.23282  0.32017  Biso   1.000  O
  O10      1.0000 0.38310  0.26718  0.82017  Biso   1.000  O
  O11      1.0000 0.88310  0.23282  0.17983  Biso   1.000  O
  O12      1.0000 0.61690  0.26718  0.67983  Biso   1.000  O
  O13      1.0000 0.88310  0.76718  0.67983  Biso   1.000  O
  O14      1.0000 0.61690  0.73282  0.17983  Biso   1.000  O
  O15      1.0000 0.11690  0.76718  0.82017  Biso   1.000  O
  O16      1.0000 0.38310  0.73282  0.32017  Biso   1.000  O
  O17      1.0000 0.20500  0.54134  0.25578  Biso   1.000  O
  O18      1.0000 0.29500  0.95866  0.75578  Biso   1.000  O
  O19      1.0000 0.79500  0.54134  0.24422  Biso   1.000  O
  O20      1.0000 0.70500  0.95866  0.74422  Biso   1.000  O
  O21      1.0000 0.79500  0.45866  0.74422  Biso   1.000  O
  O22      1.0000 0.70500  0.04134  0.24422  Biso   1.000  O
  O23      1.0000 0.20500  0.45866  0.75578  Biso   1.000  O
  O24      1.0000 0.29500  0.04134  0.25578  Biso   1.000  O
  O25      1.0000 0.42950  0.56494  0.34300  Biso   1.000  O
  O26      1.0000 0.07050  0.93506  0.84300  Biso   1.000  O
  O27      1.0000 0.57050  0.56494  0.15700  Biso   1.000  O
  O28      1.0000 0.92950  0.93506  0.65700  Biso   1.000  O
  O29      1.0000 0.57050  0.43506  0.65700  Biso   1.000  O
  O30      1.0000 0.92950  0.06494  0.15700  Biso   1.000  O
  O31      1.0000 0.42950  0.43506  0.84300  Biso   1.000  O
  O32      1.0000 0.07050  0.06494  0.34300  Biso   1.000  O
