data_image0
_cell_length_a       8.2051
_cell_length_b       16.2579
_cell_length_c       13.7181
_cell_angle_alpha    90
_cell_angle_beta     90
_cell_angle_gamma    90

_symmetry_space_group_name_H-M    "P 1"
_symmetry_int_tables_number       1

loop_
  _symmetry_equiv_pos_as_xyz
  'x, y, z'

loop_
  _atom_site_label
  _atom_site_occupancy
  _atom_site_fract_x
  _atom_site_fract_y
  _atom_site_fract_z
  _atom_site_thermal_displace_type
  _atom_site_B_iso_or_equiv
  _atom_site_type_symbol
  Cu1      1.0000 0.00000  0.35163  0.25000  Biso   1.000  Cu
  Cu2      1.0000 0.50000  0.14837  0.75000  Biso   1.000  Cu
  Cu3      1.0000 0.00000  0.64837  0.75000  Biso   1.000  Cu
  Cu4      1.0000 0.50000  0.85163  0.25000  Biso   1.000  Cu
  O1       1.0000 0.11660  0.26681  0.17987  Biso   1.000  O
  O2       1.0000 0.38340  0.23319  0.67987  Biso   1.000  O
  O3       1.0000 0.88340  0.26681  0.32013  Biso   1.000  O
  O4       1.0000 0.61660  0.23319  0.82013  Biso   1.000  O
  O5       1.0000 0.88340  0.73319  0.82013  Biso   1.000  O
  O6       1.0000 0.61660  0.76681  0.32013  Biso   1.000  O
  O7       1.0000 0.11660  0.73319  0.67987  Biso   1.000  O
  O8       1.0000 0.38340  0.76681  0.17987  Biso   1.000  O
  O9       1.0000 0.91870  0.27075  0.06936  Biso   1.000  O
  O10      1.0000 0.58130  0.22925  0.56936  Biso   1.000  O
  O11      1.0000 0.08130  0.27075  0.43064  Biso   1.000  O
  O12      1.0000 0.41870  0.22925  0.93064  Biso   1.000  O
  O13      1.0000 0.08130  0.72925  0.93064  Biso   1.000  O
  O14      1.0000 0.41870  0.77075  0.43064  Biso   1.000  O
  O15      1.0000 0.91870  0.72925  0.56936  Biso   1.000  O
  O16      1.0000 0.58130  0.77075  0.06936  Biso   1.000  O
  O17      1.0000 0.42890  0.93481  0.15728  Biso   1.000  O
  O18      1.0000 0.07110  0.56519  0.65728  Biso   1.000  O
  O19      1.0000 0.57110  0.93481  0.34272  Biso   1.000  O
  O20      1.0000 0.92890  0.56519  0.84272  Biso   1.000  O
  O21      1.0000 0.57110  0.06519  0.84272  Biso   1.000  O
  O22      1.0000 0.92890  0.43481  0.34272  Biso   1.000  O
  O23      1.0000 0.42890  0.06519  0.65728  Biso   1.000  O
  O24      1.0000 0.07110  0.43481  0.15728  Biso   1.000  O
  O25      1.0000 0.20570  0.95865  0.24457  Biso   1.000  O
  O26      1.0000 0.29430  0.54135  0.74457  Biso   1.000  O
  O27      1.0000 0.79430  0.95865  0.25543  Biso   1.000  O
  O28      1.0000 0.70570  0.54135  0.75543  Biso   1.000  O
  O29      1.0000 0.79430  0.04135  0.75543  Biso   1.000  O
  O30      1.0000 0.70570  0.45865  0.25543  Biso   1.000  O
  O31      1.0000 0.20570  0.04135  0.74457  Biso   1.000  O
  O32      1.0000 0.29430  0.45865  0.24457  Biso   1.000  O
  N1       1.0000 0.18020  0.07190  0.93759  Biso   1.000  N
  N2       1.0000 0.31980  0.42810  0.43759  Biso   1.000  N
  N3       1.0000 0.81980  0.07190  0.56241  Biso   1.000  N
  N4       1.0000 0.68020  0.42810  0.06241  Biso   1.000  N
  N5       1.0000 0.81980  0.92810  0.06241  Biso   1.000  N
  N6       1.0000 0.68020  0.57190  0.56241  Biso   1.000  N
  N7       1.0000 0.18020  0.92810  0.43759  Biso   1.000  N
  N8       1.0000 0.31980  0.57190  0.93759  Biso   1.000  N
  H1       1.0000 0.18400  0.06190  0.87610  Biso   1.000  H
  H2       1.0000 0.31600  0.43810  0.37610  Biso   1.000  H
  H3       1.0000 0.81600  0.06190  0.62390  Biso   1.000  H
  H4       1.0000 0.68400  0.43810  0.12390  Biso   1.000  H
  H5       1.0000 0.81600  0.93810  0.12390  Biso   1.000  H
  H6       1.0000 0.68400  0.56190  0.62390  Biso   1.000  H
  H7       1.0000 0.18400  0.93810  0.37610  Biso   1.000  H
  H8       1.0000 0.31600  0.56190  0.87610  Biso   1.000  H
  C1       1.0000 0.04040  0.24094  0.10522  Biso   1.000  C
  C2       1.0000 0.45960  0.25906  0.60522  Biso   1.000  C
  C3       1.0000 0.95960  0.24094  0.39478  Biso   1.000  C
  C4       1.0000 0.54040  0.25906  0.89478  Biso   1.000  C
  C5       1.0000 0.95960  0.75906  0.89478  Biso   1.000  C
  C6       1.0000 0.54040  0.74094  0.39478  Biso   1.000  C
  C7       1.0000 0.04040  0.75906  0.60522  Biso   1.000  C
  C8       1.0000 0.45960  0.74094  0.10522  Biso   1.000  C
  C9       1.0000 0.11100  0.16179  0.06405  Biso   1.000  C
  C10      1.0000 0.38900  0.33821  0.56405  Biso   1.000  C
  C11      1.0000 0.88900  0.16179  0.43595  Biso   1.000  C
  C12      1.0000 0.61100  0.33821  0.93595  Biso   1.000  C
  C13      1.0000 0.88900  0.83821  0.93595  Biso   1.000  C
  C14      1.0000 0.61100  0.66179  0.43595  Biso   1.000  C
  C15      1.0000 0.11100  0.83821  0.56405  Biso   1.000  C
  C16      1.0000 0.38900  0.66179  0.06405  Biso   1.000  C
  C17      1.0000 0.11450  0.14408  0.96463  Biso   1.000  C
  C18      1.0000 0.38550  0.35592  0.46463  Biso   1.000  C
  C19      1.0000 0.88550  0.14408  0.53537  Biso   1.000  C
  C20      1.0000 0.61450  0.35592  0.03537  Biso   1.000  C
  C21      1.0000 0.88550  0.85592  0.03537  Biso   1.000  C
  C22      1.0000 0.61450  0.64408  0.53537  Biso   1.000  C
  C23      1.0000 0.11450  0.85592  0.46463  Biso   1.000  C
  C24      1.0000 0.38550  0.64408  0.96463  Biso   1.000  C
  C25      1.0000 0.05320  0.19871  0.88550  Biso   1.000  C
  C26      1.0000 0.44680  0.30129  0.38550  Biso   1.000  C
  C27      1.0000 0.94680  0.19871  0.61450  Biso   1.000  C
  C28      1.0000 0.55320  0.30129  0.11450  Biso   1.000  C
  C29      1.0000 0.94680  0.80129  0.11450  Biso   1.000  C
  C30      1.0000 0.55320  0.69871  0.61450  Biso   1.000  C
  C31      1.0000 0.05320  0.80129  0.38550  Biso   1.000  C
  C32      1.0000 0.44680  0.69871  0.88550  Biso   1.000  C
  H9       1.0000 0.11230  0.18780  0.82650  Biso   1.000  H
  H10      1.0000 0.38770  0.31220  0.32650  Biso   1.000  H
  H11      1.0000 0.88770  0.18780  0.67350  Biso   1.000  H
  H12      1.0000 0.61230  0.31220  0.17350  Biso   1.000  H
  H13      1.0000 0.88770  0.81220  0.17350  Biso   1.000  H
  H14      1.0000 0.61230  0.68780  0.67350  Biso   1.000  H
  H15      1.0000 0.11230  0.81220  0.32650  Biso   1.000  H
  H16      1.0000 0.38770  0.68780  0.82650  Biso   1.000  H
  H17      1.0000 0.06840  0.25510  0.90400  Biso   1.000  H
  H18      1.0000 0.43160  0.24490  0.40400  Biso   1.000  H
  H19      1.0000 0.93160  0.25510  0.59600  Biso   1.000  H
  H20      1.0000 0.56840  0.24490  0.09600  Biso   1.000  H
  H21      1.0000 0.93160  0.74490  0.09600  Biso   1.000  H
  H22      1.0000 0.56840  0.75510  0.59600  Biso   1.000  H
  H23      1.0000 0.06840  0.74490  0.40400  Biso   1.000  H
  H24      1.0000 0.43160  0.75510  0.90400  Biso   1.000  H
  H25      1.0000 0.93930  0.18840  0.87500  Biso   1.000  H
  H26      1.0000 0.56070  0.31160  0.37500  Biso   1.000  H
  H27      1.0000 0.06070  0.18840  0.62500  Biso   1.000  H
  H28      1.0000 0.43930  0.31160  0.12500  Biso   1.000  H
  H29      1.0000 0.06070  0.81160  0.12500  Biso   1.000  H
  H30      1.0000 0.43930  0.68840  0.62500  Biso   1.000  H
  H31      1.0000 0.93930  0.81160  0.37500  Biso   1.000  H
  H32      1.0000 0.56070  0.68840  0.87500  Biso   1.000  H
  C33      1.0000 0.24110  0.01341  0.99738  Biso   1.000  C
  C34      1.0000 0.25890  0.48659  0.49738  Biso   1.000  C
  C35      1.0000 0.75890  0.01341  0.50262  Biso   1.000  C
  C36      1.0000 0.74110  0.48659  0.00262  Biso   1.000  C
  C37      1.0000 0.75890  0.98659  0.00262  Biso   1.000  C
  C38      1.0000 0.74110  0.51341  0.50262  Biso   1.000  C
  C39      1.0000 0.24110  0.98659  0.49738  Biso   1.000  C
  C40      1.0000 0.25890  0.51341  0.99738  Biso   1.000  C
  C41      1.0000 0.30480  0.93619  0.95144  Biso   1.000  C
  C42      1.0000 0.19520  0.56381  0.45144  Biso   1.000  C
  C43      1.0000 0.69520  0.93619  0.54856  Biso   1.000  C
  C44      1.0000 0.80480  0.56381  0.04856  Biso   1.000  C
  C45      1.0000 0.69520  0.06381  0.04856  Biso   1.000  C
  C46      1.0000 0.80480  0.43619  0.54856  Biso   1.000  C
  C47      1.0000 0.30480  0.06381  0.45144  Biso   1.000  C
  C48      1.0000 0.19520  0.43619  0.95144  Biso   1.000  C
  H33      1.0000 0.27760  0.93580  0.88340  Biso   1.000  H
  H34      1.0000 0.22240  0.56420  0.38340  Biso   1.000  H
  H35      1.0000 0.72240  0.93580  0.61660  Biso   1.000  H
  H36      1.0000 0.77760  0.56420  0.11660  Biso   1.000  H
  H37      1.0000 0.72240  0.06420  0.11660  Biso   1.000  H
  H38      1.0000 0.77760  0.43580  0.61660  Biso   1.000  H
  H39      1.0000 0.27760  0.06420  0.38340  Biso   1.000  H
  H40      1.0000 0.22240  0.43580  0.88340  Biso   1.000  H
  H41      1.0000 0.25650  0.88930  0.98270  Biso   1.000  H
  H42      1.0000 0.24350  0.61070  0.48270  Biso   1.000  H
  H43      1.0000 0.74350  0.88930  0.51730  Biso   1.000  H
  H44      1.0000 0.75650  0.61070  0.01730  Biso   1.000  H
  H45      1.0000 0.74350  0.11070  0.01730  Biso   1.000  H
  H46      1.0000 0.75650  0.38930  0.51730  Biso   1.000  H
  H47      1.0000 0.25650  0.11070  0.48270  Biso   1.000  H
  H48      1.0000 0.24350  0.38930  0.98270  Biso   1.000  H
  H49      1.0000 0.42110  0.93400  0.95880  Biso   1.000  H
  H50      1.0000 0.07890  0.56600  0.45880  Biso   1.000  H
  H51      1.0000 0.57890  0.93400  0.54120  Biso   1.000  H
  H52      1.0000 0.92110  0.56600  0.04120  Biso   1.000  H
  H53      1.0000 0.57890  0.06600  0.04120  Biso   1.000  H
  H54      1.0000 0.92110  0.43400  0.54120  Biso   1.000  H
  H55      1.0000 0.42110  0.06600  0.45880  Biso   1.000  H
  H56      1.0000 0.07890  0.43400  0.95880  Biso   1.000  H
  C49      1.0000 0.23480  0.02915  0.09699  Biso   1.000  C
  C50      1.0000 0.26520  0.47085  0.59699  Biso   1.000  C
  C51      1.0000 0.76520  0.02915  0.40301  Biso   1.000  C
  C52      1.0000 0.73480  0.47085  0.90301  Biso   1.000  C
  C53      1.0000 0.76520  0.97085  0.90301  Biso   1.000  C
  C54      1.0000 0.73480  0.52915  0.40301  Biso   1.000  C
  C55      1.0000 0.23480  0.97085  0.59699  Biso   1.000  C
  C56      1.0000 0.26520  0.52915  0.09699  Biso   1.000  C
  C57      1.0000 0.29410  0.96865  0.17288  Biso   1.000  C
  C58      1.0000 0.20590  0.53135  0.67288  Biso   1.000  C
  C59      1.0000 0.70590  0.96865  0.32712  Biso   1.000  C
  C60      1.0000 0.79410  0.53135  0.82712  Biso   1.000  C
  C61      1.0000 0.70590  0.03135  0.82712  Biso   1.000  C
  C62      1.0000 0.79410  0.46865  0.32712  Biso   1.000  C
  C63      1.0000 0.29410  0.03135  0.67288  Biso   1.000  C
  C64      1.0000 0.20590  0.46865  0.17288  Biso   1.000  C
  C65      1.0000 0.17040  0.10376  0.12810  Biso   1.000  C
  C66      1.0000 0.32960  0.39624  0.62810  Biso   1.000  C
  C67      1.0000 0.82960  0.10376  0.37190  Biso   1.000  C
  C68      1.0000 0.67040  0.39624  0.87190  Biso   1.000  C
  C69      1.0000 0.82960  0.89624  0.87190  Biso   1.000  C
  C70      1.0000 0.67040  0.60376  0.37190  Biso   1.000  C
  C71      1.0000 0.17040  0.89624  0.62810  Biso   1.000  C
  C72      1.0000 0.32960  0.60376  0.12810  Biso   1.000  C
  H57      1.0000 0.16740  0.11490  0.19460  Biso   1.000  H
  H58      1.0000 0.33260  0.38510  0.69460  Biso   1.000  H
  H59      1.0000 0.83260  0.11490  0.30540  Biso   1.000  H
  H60      1.0000 0.66740  0.38510  0.80540  Biso   1.000  H
  H61      1.0000 0.83260  0.88510  0.80540  Biso   1.000  H
  H62      1.0000 0.66740  0.61490  0.30540  Biso   1.000  H
  H63      1.0000 0.16740  0.88510  0.69460  Biso   1.000  H
  H64      1.0000 0.33260  0.61490  0.19460  Biso   1.000  H
