data_image0
_cell_length_a       9.5218
_cell_length_b       15.0371
_cell_length_c       18.285
_cell_angle_alpha    90
_cell_angle_beta     93.822
_cell_angle_gamma    90

_symmetry_space_group_name_H-M    "P 1"
_symmetry_int_tables_number       1

loop_
  _symmetry_equiv_pos_as_xyz
  'x, y, z'

loop_
  _atom_site_label
  _atom_site_occupancy
  _atom_site_fract_x
  _atom_site_fract_y
  _atom_site_fract_z
  _atom_site_thermal_displace_type
  _atom_site_B_iso_or_equiv
  _atom_site_type_symbol
  Eu1      1.0000 0.30355  0.08480  0.99936  Biso   1.000  Eu
  Eu2      1.0000 0.19645  0.58480  0.50064  Biso   1.000  Eu
  Eu3      1.0000 0.69645  0.91520  0.00064  Biso   1.000  Eu
  Eu4      1.0000 0.80355  0.41520  0.49936  Biso   1.000  Eu
  Cu1      1.0000 0.00000  0.50000  0.00000  Biso   1.000  Cu
  Cu2      1.0000 0.50000  0.00000  0.50000  Biso   1.000  Cu
  O1       1.0000 0.10220  0.06985  0.08317  Biso   1.000  O
  O2       1.0000 0.39780  0.56985  0.41683  Biso   1.000  O
  O3       1.0000 0.89780  0.93015  0.91683  Biso   1.000  O
  O4       1.0000 0.60220  0.43015  0.58317  Biso   1.000  O
  O5       1.0000 0.22410  0.19395  0.08933  Biso   1.000  O
  O6       1.0000 0.27590  0.69395  0.41067  Biso   1.000  O
  O7       1.0000 0.77590  0.80605  0.91067  Biso   1.000  O
  O8       1.0000 0.72410  0.30605  0.58933  Biso   1.000  O
  O9       1.0000 0.41040  0.03423  0.11132  Biso   1.000  O
  O10      1.0000 0.08960  0.53423  0.38868  Biso   1.000  O
  O11      1.0000 0.58960  0.96577  0.88868  Biso   1.000  O
  O12      1.0000 0.91040  0.46577  0.61132  Biso   1.000  O
  O13      1.0000 0.60480  0.95248  0.11231  Biso   1.000  O
  O14      1.0000 0.89520  0.45248  0.38769  Biso   1.000  O
  O15      1.0000 0.39520  0.04752  0.88769  Biso   1.000  O
  O16      1.0000 0.10480  0.54752  0.61231  Biso   1.000  O
  O17      1.0000 0.27140  0.92881  0.99602  Biso   1.000  O
  O18      1.0000 0.22860  0.42881  0.50398  Biso   1.000  O
  O19      1.0000 0.72860  0.07119  0.00398  Biso   1.000  O
  O20      1.0000 0.77140  0.57119  0.49602  Biso   1.000  O
  O21      1.0000 0.47040  0.85317  0.99016  Biso   1.000  O
  O22      1.0000 0.02960  0.35317  0.50984  Biso   1.000  O
  O23      1.0000 0.52960  0.14683  0.00984  Biso   1.000  O
  O24      1.0000 0.97040  0.64683  0.49016  Biso   1.000  O
  O25      1.0000 0.85800  0.55366  0.92864  Biso   1.000  O
  O26      1.0000 0.64200  0.05366  0.57136  Biso   1.000  O
  O27      1.0000 0.14200  0.44634  0.07136  Biso   1.000  O
  O28      1.0000 0.35800  0.94634  0.42864  Biso   1.000  O
  O29      1.0000 0.68610  0.62128  0.98562  Biso   1.000  O
  O30      1.0000 0.81390  0.12128  0.51438  Biso   1.000  O
  O31      1.0000 0.31390  0.37872  0.01438  Biso   1.000  O
  O32      1.0000 0.18610  0.87872  0.48562  Biso   1.000  O
  N1       1.0000 0.92310  0.22790  0.30315  Biso   1.000  N
  N2       1.0000 0.57690  0.72790  0.19685  Biso   1.000  N
  N3       1.0000 0.07690  0.77210  0.69685  Biso   1.000  N
  N4       1.0000 0.42310  0.27210  0.80315  Biso   1.000  N
  N5       1.0000 0.59260  0.05050  0.37273  Biso   1.000  N
  N6       1.0000 0.90740  0.55050  0.12727  Biso   1.000  N
  N7       1.0000 0.40740  0.94950  0.62727  Biso   1.000  N
  N8       1.0000 0.09260  0.44950  0.87273  Biso   1.000  N
  N9       1.0000 0.11350  0.61288  0.00239  Biso   1.000  N
  N10      1.0000 0.38650  0.11288  0.49761  Biso   1.000  N
  N11      1.0000 0.88650  0.38712  0.99761  Biso   1.000  N
  N12      1.0000 0.61350  0.88712  0.50239  Biso   1.000  N
  N13      1.0000 0.51750  0.62300  0.71840  Biso   1.000  N
  N14      1.0000 0.98250  0.12300  0.78160  Biso   1.000  N
  N15      1.0000 0.48250  0.37700  0.28160  Biso   1.000  N
  N16      1.0000 0.01750  0.87700  0.21840  Biso   1.000  N
  C1       1.0000 0.86660  0.16830  0.25640  Biso   1.000  C
  C2       1.0000 0.63340  0.66830  0.24360  Biso   1.000  C
  C3       1.0000 0.13340  0.83170  0.74360  Biso   1.000  C
  C4       1.0000 0.36660  0.33170  0.75640  Biso   1.000  C
  H1       1.0000 0.77870  0.14560  0.26560  Biso   1.000  H
  H2       1.0000 0.72130  0.64560  0.23440  Biso   1.000  H
  H3       1.0000 0.22130  0.85440  0.73440  Biso   1.000  H
  H4       1.0000 0.27870  0.35440  0.76560  Biso   1.000  H
  C5       1.0000 0.92890  0.13770  0.19500  Biso   1.000  C
  C6       1.0000 0.57110  0.63770  0.30500  Biso   1.000  C
  C7       1.0000 0.07110  0.86230  0.80500  Biso   1.000  C
  C8       1.0000 0.42890  0.36230  0.69500  Biso   1.000  C
  H5       1.0000 0.88490  0.09490  0.16480  Biso   1.000  H
  H6       1.0000 0.61510  0.59490  0.33520  Biso   1.000  H
  H7       1.0000 0.11510  0.90510  0.83520  Biso   1.000  H
  H8       1.0000 0.38490  0.40510  0.66480  Biso   1.000  H
  C9       1.0000 0.05760  0.17210  0.17983  Biso   1.000  C
  C10      1.0000 0.44240  0.67210  0.32017  Biso   1.000  C
  C11      1.0000 0.94240  0.82790  0.82017  Biso   1.000  C
  C12      1.0000 0.55760  0.32790  0.67983  Biso   1.000  C
  C13      1.0000 0.11800  0.23430  0.22750  Biso   1.000  C
  C14      1.0000 0.38200  0.73430  0.27250  Biso   1.000  C
  C15      1.0000 0.88200  0.76570  0.77250  Biso   1.000  C
  C16      1.0000 0.61800  0.26570  0.72750  Biso   1.000  C
  H9       1.0000 0.20500  0.25890  0.21890  Biso   1.000  H
  H10      1.0000 0.29500  0.75890  0.28110  Biso   1.000  H
  H11      1.0000 0.79500  0.74110  0.78110  Biso   1.000  H
  H12      1.0000 0.70500  0.24110  0.71890  Biso   1.000  H
  C17      1.0000 0.04850  0.25990  0.28820  Biso   1.000  C
  C18      1.0000 0.45150  0.75990  0.21180  Biso   1.000  C
  C19      1.0000 0.95150  0.74010  0.71180  Biso   1.000  C
  C20      1.0000 0.54850  0.24010  0.78820  Biso   1.000  C
  H13      1.0000 0.09140  0.30150  0.32010  Biso   1.000  H
  H14      1.0000 0.40860  0.80150  0.17990  Biso   1.000  H
  H15      1.0000 0.90860  0.69850  0.67990  Biso   1.000  H
  H16      1.0000 0.59140  0.19850  0.82010  Biso   1.000  H
  C21      1.0000 0.13290  0.14320  0.11331  Biso   1.000  C
  C22      1.0000 0.36710  0.64320  0.38669  Biso   1.000  C
  C23      1.0000 0.86710  0.85680  0.88669  Biso   1.000  C
  C24      1.0000 0.63290  0.35680  0.61331  Biso   1.000  C
  C25      1.0000 0.50890  0.10270  0.33001  Biso   1.000  C
  C26      1.0000 0.99110  0.60270  0.16999  Biso   1.000  C
  C27      1.0000 0.49110  0.89730  0.66999  Biso   1.000  C
  C28      1.0000 0.00890  0.39730  0.83001  Biso   1.000  C
  H17      1.0000 0.46560  0.15040  0.35180  Biso   1.000  H
  H18      1.0000 0.03440  0.65040  0.14820  Biso   1.000  H
  H19      1.0000 0.53440  0.84960  0.64820  Biso   1.000  H
  H20      1.0000 0.96560  0.34960  0.85180  Biso   1.000  H
  C29      1.0000 0.48240  0.09060  0.25533  Biso   1.000  C
  C30      1.0000 0.01760  0.59060  0.24467  Biso   1.000  C
  C31      1.0000 0.51760  0.90940  0.74467  Biso   1.000  C
  C32      1.0000 0.98240  0.40940  0.75533  Biso   1.000  C
  H21      1.0000 0.42160  0.12830  0.22820  Biso   1.000  H
  H22      1.0000 0.07840  0.62830  0.27180  Biso   1.000  H
  H23      1.0000 0.57840  0.87170  0.77180  Biso   1.000  H
  H24      1.0000 0.92160  0.37170  0.72820  Biso   1.000  H
  C33      1.0000 0.54830  0.02110  0.22209  Biso   1.000  C
  C34      1.0000 0.95170  0.52110  0.27791  Biso   1.000  C
  C35      1.0000 0.45170  0.97890  0.77791  Biso   1.000  C
  C36      1.0000 0.04830  0.47890  0.72209  Biso   1.000  C
  C37      1.0000 0.64100  0.96970  0.26468  Biso   1.000  C
  C38      1.0000 0.85900  0.46970  0.23532  Biso   1.000  C
  C39      1.0000 0.35900  0.03030  0.73532  Biso   1.000  C
  C40      1.0000 0.14100  0.53030  0.76468  Biso   1.000  C
  H25      1.0000 0.69130  0.92420  0.24390  Biso   1.000  H
  H26      1.0000 0.80870  0.42420  0.25610  Biso   1.000  H
  H27      1.0000 0.30870  0.07580  0.75610  Biso   1.000  H
  H28      1.0000 0.19130  0.57580  0.74390  Biso   1.000  H
  C41      1.0000 0.65780  0.98670  0.33875  Biso   1.000  C
  C42      1.0000 0.84220  0.48670  0.16125  Biso   1.000  C
  C43      1.0000 0.34220  0.01330  0.66125  Biso   1.000  C
  C44      1.0000 0.15780  0.51330  0.83875  Biso   1.000  C
  H29      1.0000 0.71970  0.95070  0.36690  Biso   1.000  H
  H30      1.0000 0.78030  0.45070  0.13310  Biso   1.000  H
  H31      1.0000 0.28030  0.04930  0.63310  Biso   1.000  H
  H32      1.0000 0.21970  0.54930  0.86690  Biso   1.000  H
  C45      1.0000 0.51930  0.00160  0.14180  Biso   1.000  C
  C46      1.0000 0.98070  0.50160  0.35820  Biso   1.000  C
  C47      1.0000 0.48070  0.99840  0.85820  Biso   1.000  C
  C48      1.0000 0.01930  0.49840  0.64180  Biso   1.000  C
  C49      1.0000 0.04700  0.69169  0.00148  Biso   1.000  C
  C50      1.0000 0.45300  0.19169  0.49852  Biso   1.000  C
  C51      1.0000 0.95300  0.30831  0.99852  Biso   1.000  C
  C52      1.0000 0.54700  0.80831  0.50148  Biso   1.000  C
  H33      1.0000 0.94920  0.69210  0.00040  Biso   1.000  H
  H34      1.0000 0.55080  0.19210  0.49960  Biso   1.000  H
  H35      1.0000 0.05080  0.30790  0.99960  Biso   1.000  H
  H36      1.0000 0.44920  0.80790  0.50040  Biso   1.000  H
  C53      1.0000 0.11720  0.77197  0.00207  Biso   1.000  C
  C54      1.0000 0.38280  0.27197  0.49793  Biso   1.000  C
  C55      1.0000 0.88280  0.22803  0.99793  Biso   1.000  C
  C56      1.0000 0.61720  0.72803  0.50207  Biso   1.000  C
  H37      1.0000 0.06760  0.82520  0.00270  Biso   1.000  H
  H38      1.0000 0.43240  0.32520  0.49730  Biso   1.000  H
  H39      1.0000 0.93240  0.17480  0.99730  Biso   1.000  H
  H40      1.0000 0.56760  0.67480  0.50270  Biso   1.000  H
  C57      1.0000 0.26210  0.77222  0.00173  Biso   1.000  C
  C58      1.0000 0.23790  0.27222  0.49827  Biso   1.000  C
  C59      1.0000 0.73790  0.22778  0.99827  Biso   1.000  C
  C60      1.0000 0.76210  0.72778  0.50173  Biso   1.000  C
  C61      1.0000 0.33270  0.69096  0.00510  Biso   1.000  C
  C62      1.0000 0.16730  0.19096  0.49490  Biso   1.000  C
  C63      1.0000 0.66730  0.30904  0.99490  Biso   1.000  C
  C64      1.0000 0.83270  0.80904  0.50510  Biso   1.000  C
  H41      1.0000 0.43050  0.68890  0.00720  Biso   1.000  H
  H42      1.0000 0.06950  0.18890  0.49280  Biso   1.000  H
  H43      1.0000 0.56950  0.31110  0.99280  Biso   1.000  H
  H44      1.0000 0.93050  0.81110  0.50720  Biso   1.000  H
  C65      1.0000 0.25450  0.61350  0.00524  Biso   1.000  C
  C66      1.0000 0.24550  0.11350  0.49476  Biso   1.000  C
  C67      1.0000 0.74550  0.38650  0.99476  Biso   1.000  C
  C68      1.0000 0.75450  0.88650  0.50524  Biso   1.000  C
  H45      1.0000 0.30180  0.55940  0.00740  Biso   1.000  H
  H46      1.0000 0.19820  0.05940  0.49260  Biso   1.000  H
  H47      1.0000 0.69820  0.44060  0.99260  Biso   1.000  H
  H48      1.0000 0.80180  0.94060  0.50740  Biso   1.000  H
  C69      1.0000 0.34200  0.85860  0.99608  Biso   1.000  C
  C70      1.0000 0.15800  0.35860  0.50392  Biso   1.000  C
  C71      1.0000 0.65800  0.14140  0.00392  Biso   1.000  C
  C72      1.0000 0.84200  0.64140  0.49608  Biso   1.000  C
  C73      1.0000 0.47840  0.66650  0.77709  Biso   1.000  C
  C74      1.0000 0.02160  0.16650  0.72291  Biso   1.000  C
  C75      1.0000 0.52160  0.33350  0.22291  Biso   1.000  C
  C76      1.0000 0.97840  0.83350  0.27709  Biso   1.000  C
  H49      1.0000 0.40050  0.70380  0.77120  Biso   1.000  H
  H50      1.0000 0.09950  0.20380  0.72880  Biso   1.000  H
  H51      1.0000 0.59950  0.29620  0.22880  Biso   1.000  H
  H52      1.0000 0.90050  0.79620  0.27120  Biso   1.000  H
  C77      1.0000 0.54590  0.66000  0.84622  Biso   1.000  C
  C78      1.0000 0.95410  0.16000  0.65378  Biso   1.000  C
  C79      1.0000 0.45410  0.34000  0.15378  Biso   1.000  C
  C80      1.0000 0.04590  0.84000  0.34622  Biso   1.000  C
  H53      1.0000 0.51440  0.69260  0.88520  Biso   1.000  H
  H54      1.0000 0.98560  0.19260  0.61480  Biso   1.000  H
  H55      1.0000 0.48560  0.30740  0.11480  Biso   1.000  H
  H56      1.0000 0.01440  0.80740  0.38520  Biso   1.000  H
  C81      1.0000 0.66130  0.60410  0.85643  Biso   1.000  C
  C82      1.0000 0.83870  0.10410  0.64357  Biso   1.000  C
  C83      1.0000 0.33870  0.39590  0.14357  Biso   1.000  C
  C84      1.0000 0.16130  0.89590  0.35643  Biso   1.000  C
  C85      1.0000 0.70390  0.55880  0.79605  Biso   1.000  C
  C86      1.0000 0.79610  0.05880  0.70395  Biso   1.000  C
  C87      1.0000 0.29610  0.44120  0.20395  Biso   1.000  C
  C88      1.0000 0.20390  0.94120  0.29605  Biso   1.000  C
  H57      1.0000 0.78090  0.52070  0.80060  Biso   1.000  H
  H58      1.0000 0.71910  0.02070  0.69940  Biso   1.000  H
  H59      1.0000 0.21910  0.47930  0.19940  Biso   1.000  H
  H60      1.0000 0.28090  0.97930  0.30060  Biso   1.000  H
  C89      1.0000 0.63070  0.57080  0.72850  Biso   1.000  C
  C90      1.0000 0.86930  0.07080  0.77150  Biso   1.000  C
  C91      1.0000 0.36930  0.42920  0.27150  Biso   1.000  C
  C92      1.0000 0.13070  0.92920  0.22850  Biso   1.000  C
  H61      1.0000 0.66210  0.54100  0.68820  Biso   1.000  H
  H62      1.0000 0.83790  0.04100  0.81180  Biso   1.000  H
  H63      1.0000 0.33790  0.45900  0.31180  Biso   1.000  H
  H64      1.0000 0.16210  0.95900  0.18820  Biso   1.000  H
  C93      1.0000 0.74060  0.59323  0.93067  Biso   1.000  C
  C94      1.0000 0.75940  0.09323  0.56933  Biso   1.000  C
  C95      1.0000 0.25940  0.40677  0.06933  Biso   1.000  C
  C96      1.0000 0.24060  0.90677  0.43067  Biso   1.000  C
  O33      1.0000 0.08970  0.07055  0.92168  Biso   1.000  O
  O34      1.0000 0.41030  0.57055  0.57832  Biso   1.000  O
  O35      1.0000 0.91030  0.92945  0.07832  Biso   1.000  O
  O36      1.0000 0.58970  0.42945  0.42168  Biso   1.000  O
  H65      1.0000 0.07570  0.09190  0.87980  Biso   1.000  H
  H66      1.0000 0.42430  0.59190  0.62020  Biso   1.000  H
  H67      1.0000 0.92430  0.90810  0.12020  Biso   1.000  H
  H68      1.0000 0.57570  0.40810  0.37980  Biso   1.000  H
  H69      1.0000 0.03010  0.03140  0.92850  Biso   1.000  H
  H70      1.0000 0.46990  0.53140  0.57150  Biso   1.000  H
  H71      1.0000 0.96990  0.96860  0.07150  Biso   1.000  H
  H72      1.0000 0.53010  0.46860  0.42850  Biso   1.000  H
  O37      1.0000 0.27770  0.22483  0.93077  Biso   1.000  O
  O38      1.0000 0.22230  0.72483  0.56923  Biso   1.000  O
  O39      1.0000 0.72230  0.77517  0.06923  Biso   1.000  O
  O40      1.0000 0.77770  0.27517  0.43077  Biso   1.000  O
  H73      1.0000 0.32080  0.23070  0.89320  Biso   1.000  H
  H74      1.0000 0.17920  0.73070  0.60680  Biso   1.000  H
  H75      1.0000 0.67920  0.76930  0.10680  Biso   1.000  H
  H76      1.0000 0.82080  0.26930  0.39320  Biso   1.000  H
  H77      1.0000 0.27380  0.27290  0.95270  Biso   1.000  H
  H78      1.0000 0.22620  0.77290  0.54730  Biso   1.000  H
  H79      1.0000 0.72620  0.72710  0.04730  Biso   1.000  H
  H80      1.0000 0.77380  0.22710  0.45270  Biso   1.000  H
