data_image0
_cell_length_a       13.472
_cell_length_b       18.49
_cell_length_c       25.763
_cell_angle_alpha    90
_cell_angle_beta     103.212
_cell_angle_gamma    90

_symmetry_space_group_name_H-M    "P 1"
_symmetry_int_tables_number       1

loop_
  _symmetry_equiv_pos_as_xyz
  'x, y, z'

loop_
  _atom_site_label
  _atom_site_occupancy
  _atom_site_fract_x
  _atom_site_fract_y
  _atom_site_fract_z
  _atom_site_thermal_displace_type
  _atom_site_B_iso_or_equiv
  _atom_site_type_symbol
  Cu1      1.0000 0.46556  0.83402  0.01739  Biso   1.000  Cu
  Cu2      1.0000 0.53444  0.33402  0.48261  Biso   1.000  Cu
  Cu3      1.0000 0.53444  0.16598  0.98261  Biso   1.000  Cu
  Cu4      1.0000 0.46556  0.66598  0.51739  Biso   1.000  Cu
  Cu5      1.0000 0.32606  0.95568  0.31988  Biso   1.000  Cu
  Cu6      1.0000 0.67394  0.45568  0.18012  Biso   1.000  Cu
  Cu7      1.0000 0.67394  0.04432  0.68012  Biso   1.000  Cu
  Cu8      1.0000 0.32606  0.54432  0.81988  Biso   1.000  Cu
  S1       1.0000 0.92851  0.90145  0.27415  Biso   1.000  S
  S2       1.0000 0.07149  0.40145  0.22585  Biso   1.000  S
  S3       1.0000 0.07149  0.09855  0.72585  Biso   1.000  S
  S4       1.0000 0.92851  0.59855  0.77415  Biso   1.000  S
  S5       1.0000 0.91826  0.81775  0.98834  Biso   1.000  S
  S6       1.0000 0.08174  0.31775  0.51166  Biso   1.000  S
  S7       1.0000 0.08174  0.18225  0.01166  Biso   1.000  S
  S8       1.0000 0.91826  0.68225  0.48834  Biso   1.000  S
  S9       1.0000 0.44889  0.77843  0.13195  Biso   1.000  S
  S10      1.0000 0.55111  0.27843  0.36805  Biso   1.000  S
  S11      1.0000 0.55111  0.22157  0.86805  Biso   1.000  S
  S12      1.0000 0.44889  0.72157  0.63195  Biso   1.000  S
  S13      1.0000 0.40987  0.78187  0.41205  Biso   1.000  S
  S14      1.0000 0.59013  0.28187  0.08795  Biso   1.000  S
  S15      1.0000 0.59013  0.21813  0.58795  Biso   1.000  S
  S16      1.0000 0.40987  0.71813  0.91205  Biso   1.000  S
  N1       1.0000 0.33970  0.89310  0.98955  Biso   1.000  N
  N2       1.0000 0.66030  0.39310  0.51045  Biso   1.000  N
  N3       1.0000 0.66030  0.10690  0.01045  Biso   1.000  N
  N4       1.0000 0.33970  0.60690  0.48955  Biso   1.000  N
  N5       1.0000 0.52280  0.89990  0.96979  Biso   1.000  N
  N6       1.0000 0.47720  0.39990  0.53021  Biso   1.000  N
  N7       1.0000 0.47720  0.10010  0.03021  Biso   1.000  N
  N8       1.0000 0.52280  0.60010  0.46979  Biso   1.000  N
  N9       1.0000 0.46540  0.91950  0.31543  Biso   1.000  N
  N10      1.0000 0.53460  0.41950  0.18457  Biso   1.000  N
  N11      1.0000 0.53460  0.08050  0.68457  Biso   1.000  N
  N12      1.0000 0.46540  0.58050  0.81543  Biso   1.000  N
  N13      1.0000 0.40870  0.00940  0.38321  Biso   1.000  N
  N14      1.0000 0.59130  0.50940  0.11679  Biso   1.000  N
  N15      1.0000 0.59130  0.99060  0.61679  Biso   1.000  N
  N16      1.0000 0.40870  0.49060  0.88321  Biso   1.000  N
  N17      1.0000 0.24880  0.89800  0.25698  Biso   1.000  N
  N18      1.0000 0.75120  0.39800  0.24302  Biso   1.000  N
  N19      1.0000 0.75120  0.10200  0.74302  Biso   1.000  N
  N20      1.0000 0.24880  0.60200  0.75698  Biso   1.000  N
  N21      1.0000 0.29390  0.04070  0.25694  Biso   1.000  N
  N22      1.0000 0.70610  0.54070  0.24306  Biso   1.000  N
  N23      1.0000 0.70610  0.95930  0.74306  Biso   1.000  N
  N24      1.0000 0.29390  0.45930  0.75694  Biso   1.000  N
  C1       1.0000 0.17840  0.65340  0.34172  Biso   1.000  C
  C2       1.0000 0.82160  0.15340  0.15828  Biso   1.000  C
  C3       1.0000 0.82160  0.34660  0.65828  Biso   1.000  C
  C4       1.0000 0.17840  0.84660  0.84172  Biso   1.000  C
  C5       1.0000 0.06540  0.64540  0.34080  Biso   1.000  C
  C6       1.0000 0.93460  0.14540  0.15920  Biso   1.000  C
  C7       1.0000 0.93460  0.35460  0.65920  Biso   1.000  C
  C8       1.0000 0.06540  0.85460  0.84080  Biso   1.000  C
  H1       1.0000 0.05290  0.66110  0.37460  Biso   1.000  H
  H2       1.0000 0.94710  0.16110  0.12540  Biso   1.000  H
  H3       1.0000 0.94710  0.33890  0.62540  Biso   1.000  H
  H4       1.0000 0.05290  0.83890  0.87460  Biso   1.000  H
  H5       1.0000 0.04590  0.59490  0.33580  Biso   1.000  H
  H6       1.0000 0.95410  0.09490  0.16420  Biso   1.000  H
  H7       1.0000 0.95410  0.40510  0.66420  Biso   1.000  H
  H8       1.0000 0.04590  0.90510  0.83580  Biso   1.000  H
  C9       1.0000 0.00160  0.69000  0.29611  Biso   1.000  C
  C10      1.0000 0.99840  0.19000  0.20389  Biso   1.000  C
  C11      1.0000 0.99840  0.31000  0.70389  Biso   1.000  C
  C12      1.0000 0.00160  0.81000  0.79611  Biso   1.000  C
  C13      1.0000 0.99480  0.76410  0.30320  Biso   1.000  C
  C14      1.0000 0.00520  0.26410  0.19680  Biso   1.000  C
  C15      1.0000 0.00520  0.23590  0.69680  Biso   1.000  C
  C16      1.0000 0.99480  0.73590  0.80320  Biso   1.000  C
  H9       1.0000 0.02850  0.78530  0.33510  Biso   1.000  H
  H10      1.0000 0.97150  0.28530  0.16490  Biso   1.000  H
  H11      1.0000 0.97150  0.21470  0.66490  Biso   1.000  H
  H12      1.0000 0.02850  0.71470  0.83510  Biso   1.000  H
  C17      1.0000 0.93810  0.80680  0.26290  Biso   1.000  C
  C18      1.0000 0.06190  0.30680  0.23710  Biso   1.000  C
  C19      1.0000 0.06190  0.19320  0.73710  Biso   1.000  C
  C20      1.0000 0.93810  0.69320  0.76290  Biso   1.000  C
  C21      1.0000 0.88900  0.77760  0.21520  Biso   1.000  C
  C22      1.0000 0.11100  0.27760  0.28480  Biso   1.000  C
  C23      1.0000 0.11100  0.22240  0.78480  Biso   1.000  C
  C24      1.0000 0.88900  0.72240  0.71520  Biso   1.000  C
  H13      1.0000 0.85170  0.80720  0.18860  Biso   1.000  H
  H14      1.0000 0.14830  0.30720  0.31140  Biso   1.000  H
  H15      1.0000 0.14830  0.19280  0.81140  Biso   1.000  H
  H16      1.0000 0.85170  0.69280  0.68860  Biso   1.000  H
  C25      1.0000 0.89470  0.70380  0.20627  Biso   1.000  C
  C26      1.0000 0.10530  0.20380  0.29373  Biso   1.000  C
  C27      1.0000 0.10530  0.29620  0.79373  Biso   1.000  C
  C28      1.0000 0.89470  0.79620  0.70627  Biso   1.000  C
  C29      1.0000 0.84250  0.67300  0.15231  Biso   1.000  C
  C30      1.0000 0.15750  0.17300  0.34769  Biso   1.000  C
  C31      1.0000 0.15750  0.32700  0.84769  Biso   1.000  C
  C32      1.0000 0.84250  0.82700  0.65231  Biso   1.000  C
  H17      1.0000 0.77710  0.69670  0.13980  Biso   1.000  H
  H18      1.0000 0.22290  0.19670  0.36020  Biso   1.000  H
  H19      1.0000 0.22290  0.30330  0.86020  Biso   1.000  H
  H20      1.0000 0.77710  0.80330  0.63980  Biso   1.000  H
  H21      1.0000 0.82980  0.62190  0.15610  Biso   1.000  H
  H22      1.0000 0.17020  0.12190  0.34390  Biso   1.000  H
  H23      1.0000 0.17020  0.37810  0.84390  Biso   1.000  H
  H24      1.0000 0.82980  0.87810  0.65610  Biso   1.000  H
  C33      1.0000 0.90620  0.68310  0.11139  Biso   1.000  C
  C34      1.0000 0.09380  0.18310  0.38861  Biso   1.000  C
  C35      1.0000 0.09380  0.31690  0.88861  Biso   1.000  C
  C36      1.0000 0.90620  0.81690  0.61139  Biso   1.000  C
  C37      1.0000 0.88740  0.73960  0.07484  Biso   1.000  C
  C38      1.0000 0.11260  0.23960  0.42516  Biso   1.000  C
  C39      1.0000 0.11260  0.26040  0.92516  Biso   1.000  C
  C40      1.0000 0.88740  0.76040  0.57484  Biso   1.000  C
  H25      1.0000 0.83370  0.77120  0.07490  Biso   1.000  H
  H26      1.0000 0.16630  0.27120  0.42510  Biso   1.000  H
  H27      1.0000 0.16630  0.22880  0.92510  Biso   1.000  H
  H28      1.0000 0.83370  0.72880  0.57490  Biso   1.000  H
  C41      1.0000 0.94800  0.74960  0.03810  Biso   1.000  C
  C42      1.0000 0.05200  0.24960  0.46190  Biso   1.000  C
  C43      1.0000 0.05200  0.25040  0.96190  Biso   1.000  C
  C44      1.0000 0.94800  0.75040  0.53810  Biso   1.000  C
  C45      1.0000 0.03030  0.70530  0.03956  Biso   1.000  C
  C46      1.0000 0.96970  0.20530  0.46044  Biso   1.000  C
  C47      1.0000 0.96970  0.29470  0.96044  Biso   1.000  C
  C48      1.0000 0.03030  0.79470  0.53956  Biso   1.000  C
  H29      1.0000 0.07250  0.71390  0.01630  Biso   1.000  H
  H30      1.0000 0.92750  0.21390  0.48370  Biso   1.000  H
  H31      1.0000 0.92750  0.28610  0.98370  Biso   1.000  H
  H32      1.0000 0.07250  0.78610  0.51630  Biso   1.000  H
  C49      1.0000 0.05180  0.64790  0.07513  Biso   1.000  C
  C50      1.0000 0.94820  0.14790  0.42487  Biso   1.000  C
  C51      1.0000 0.94820  0.35210  0.92487  Biso   1.000  C
  C52      1.0000 0.05180  0.85210  0.57513  Biso   1.000  C
  C53      1.0000 0.14210  0.59950  0.07587  Biso   1.000  C
  C54      1.0000 0.85790  0.09950  0.42413  Biso   1.000  C
  C55      1.0000 0.85790  0.40050  0.92413  Biso   1.000  C
  C56      1.0000 0.14210  0.90050  0.57587  Biso   1.000  C
  H33      1.0000 0.12450  0.55020  0.08290  Biso   1.000  H
  H34      1.0000 0.87550  0.05020  0.41710  Biso   1.000  H
  H35      1.0000 0.87550  0.44980  0.91710  Biso   1.000  H
  H36      1.0000 0.12450  0.94980  0.58290  Biso   1.000  H
  H37      1.0000 0.15870  0.60070  0.04120  Biso   1.000  H
  H38      1.0000 0.84130  0.10070  0.45880  Biso   1.000  H
  H39      1.0000 0.84130  0.39930  0.95880  Biso   1.000  H
  H40      1.0000 0.15870  0.89930  0.54120  Biso   1.000  H
  C57      1.0000 0.23460  0.62320  0.11831  Biso   1.000  C
  C58      1.0000 0.76540  0.12320  0.38169  Biso   1.000  C
  C59      1.0000 0.76540  0.37680  0.88169  Biso   1.000  C
  C60      1.0000 0.23460  0.87680  0.61831  Biso   1.000  C
  C61      1.0000 0.29250  0.68030  0.10759  Biso   1.000  C
  C62      1.0000 0.70750  0.18030  0.39241  Biso   1.000  C
  C63      1.0000 0.70750  0.31970  0.89241  Biso   1.000  C
  C64      1.0000 0.29250  0.81970  0.60759  Biso   1.000  C
  H41      1.0000 0.27610  0.70220  0.07420  Biso   1.000  H
  H42      1.0000 0.72390  0.20220  0.42580  Biso   1.000  H
  H43      1.0000 0.72390  0.29780  0.92580  Biso   1.000  H
  H44      1.0000 0.27610  0.79780  0.57420  Biso   1.000  H
  C65      1.0000 0.37450  0.70530  0.14557  Biso   1.000  C
  C66      1.0000 0.62550  0.20530  0.35443  Biso   1.000  C
  C67      1.0000 0.62550  0.29470  0.85443  Biso   1.000  C
  C68      1.0000 0.37450  0.79470  0.64557  Biso   1.000  C
  C69      1.0000 0.39960  0.67360  0.19591  Biso   1.000  C
  C70      1.0000 0.60040  0.17360  0.30409  Biso   1.000  C
  C71      1.0000 0.60040  0.32640  0.80409  Biso   1.000  C
  C72      1.0000 0.39960  0.82640  0.69591  Biso   1.000  C
  H45      1.0000 0.45420  0.69140  0.22160  Biso   1.000  H
  H46      1.0000 0.54580  0.19140  0.27840  Biso   1.000  H
  H47      1.0000 0.54580  0.30860  0.77840  Biso   1.000  H
  H48      1.0000 0.45420  0.80860  0.72160  Biso   1.000  H
  C73      1.0000 0.34340  0.61560  0.20798  Biso   1.000  C
  C74      1.0000 0.65660  0.11560  0.29202  Biso   1.000  C
  C75      1.0000 0.65660  0.38440  0.79202  Biso   1.000  C
  C76      1.0000 0.34340  0.88440  0.70798  Biso   1.000  C
  C77      1.0000 0.36990  0.58220  0.26325  Biso   1.000  C
  C78      1.0000 0.63010  0.08220  0.23675  Biso   1.000  C
  C79      1.0000 0.63010  0.41780  0.73675  Biso   1.000  C
  C80      1.0000 0.36990  0.91780  0.76325  Biso   1.000  C
  H49      1.0000 0.44340  0.58120  0.27590  Biso   1.000  H
  H50      1.0000 0.55660  0.08120  0.22410  Biso   1.000  H
  H51      1.0000 0.55660  0.41880  0.72410  Biso   1.000  H
  H52      1.0000 0.44340  0.91880  0.77590  Biso   1.000  H
  H53      1.0000 0.34560  0.53260  0.26100  Biso   1.000  H
  H54      1.0000 0.65440  0.03260  0.23900  Biso   1.000  H
  H55      1.0000 0.65440  0.46740  0.73900  Biso   1.000  H
  H56      1.0000 0.34560  0.96740  0.76100  Biso   1.000  H
  C81      1.0000 0.32400  0.62290  0.30318  Biso   1.000  C
  C82      1.0000 0.67600  0.12290  0.19682  Biso   1.000  C
  C83      1.0000 0.67600  0.37710  0.69682  Biso   1.000  C
  C84      1.0000 0.32400  0.87710  0.80318  Biso   1.000  C
  C85      1.0000 0.38120  0.67410  0.33675  Biso   1.000  C
  C86      1.0000 0.61880  0.17410  0.16325  Biso   1.000  C
  C87      1.0000 0.61880  0.32590  0.66325  Biso   1.000  C
  C88      1.0000 0.38120  0.82590  0.83675  Biso   1.000  C
  H57      1.0000 0.44880  0.68190  0.33540  Biso   1.000  H
  H58      1.0000 0.55120  0.18190  0.16460  Biso   1.000  H
  H59      1.0000 0.55120  0.31810  0.66460  Biso   1.000  H
  H60      1.0000 0.44880  0.81810  0.83540  Biso   1.000  H
  C89      1.0000 0.33930  0.71380  0.37213  Biso   1.000  C
  C90      1.0000 0.66070  0.21380  0.12787  Biso   1.000  C
  C91      1.0000 0.66070  0.28620  0.62787  Biso   1.000  C
  C92      1.0000 0.33930  0.78620  0.87213  Biso   1.000  C
  C93      1.0000 0.23800  0.70310  0.37451  Biso   1.000  C
  C94      1.0000 0.76200  0.20310  0.12549  Biso   1.000  C
  C95      1.0000 0.76200  0.29690  0.62549  Biso   1.000  C
  C96      1.0000 0.23800  0.79690  0.87451  Biso   1.000  C
  H61      1.0000 0.21050  0.72980  0.39850  Biso   1.000  H
  H62      1.0000 0.78950  0.22980  0.10150  Biso   1.000  H
  H63      1.0000 0.78950  0.27020  0.60150  Biso   1.000  H
  H64      1.0000 0.21050  0.77020  0.89850  Biso   1.000  H
  C97      1.0000 0.95000  0.66080  0.24717  Biso   1.000  C
  C98      1.0000 0.05000  0.16080  0.25283  Biso   1.000  C
  C99      1.0000 0.05000  0.33920  0.75283  Biso   1.000  C
  C100     1.0000 0.95000  0.83920  0.74717  Biso   1.000  C
  C101     1.0000 0.98810  0.63720  0.11051  Biso   1.000  C
  C102     1.0000 0.01190  0.13720  0.38949  Biso   1.000  C
  C103     1.0000 0.01190  0.36280  0.88949  Biso   1.000  C
  C104     1.0000 0.98810  0.86280  0.61051  Biso   1.000  C
  C105     1.0000 0.26210  0.59030  0.16850  Biso   1.000  C
  C106     1.0000 0.73790  0.09030  0.33150  Biso   1.000  C
  C107     1.0000 0.73790  0.40970  0.83150  Biso   1.000  C
  C108     1.0000 0.26210  0.90970  0.66850  Biso   1.000  C
  C109     1.0000 0.22210  0.61320  0.30688  Biso   1.000  C
  C110     1.0000 0.77790  0.11320  0.19312  Biso   1.000  C
  C111     1.0000 0.77790  0.38680  0.69312  Biso   1.000  C
  C112     1.0000 0.22210  0.88680  0.80688  Biso   1.000  C
  C113     1.0000 0.24850  0.88900  0.00100  Biso   1.000  C
  C114     1.0000 0.75150  0.38900  0.49900  Biso   1.000  C
  C115     1.0000 0.75150  0.11100  0.99900  Biso   1.000  C
  C116     1.0000 0.24850  0.61100  0.50100  Biso   1.000  C
  H65      1.0000 0.23790  0.85460  0.02540  Biso   1.000  H
  H66      1.0000 0.76210  0.35460  0.47460  Biso   1.000  H
  H67      1.0000 0.76210  0.14540  0.97460  Biso   1.000  H
  H68      1.0000 0.23790  0.64540  0.52540  Biso   1.000  H
  C117     1.0000 0.16830  0.93440  0.97770  Biso   1.000  C
  C118     1.0000 0.83170  0.43440  0.52230  Biso   1.000  C
  C119     1.0000 0.83170  0.06560  0.02230  Biso   1.000  C
  C120     1.0000 0.16830  0.56560  0.47770  Biso   1.000  C
  H69      1.0000 0.10590  0.93060  0.98720  Biso   1.000  H
  H70      1.0000 0.89410  0.43060  0.51280  Biso   1.000  H
  H71      1.0000 0.89410  0.06940  0.01280  Biso   1.000  H
  H72      1.0000 0.10590  0.56940  0.48720  Biso   1.000  H
  C121     1.0000 0.18140  0.98440  0.94100  Biso   1.000  C
  C122     1.0000 0.81860  0.48440  0.55900  Biso   1.000  C
  C123     1.0000 0.81860  0.01560  0.05900  Biso   1.000  C
  C124     1.0000 0.18140  0.51560  0.44100  Biso   1.000  C
  H73      1.0000 0.12800  0.01490  0.92530  Biso   1.000  H
  H74      1.0000 0.87200  0.51490  0.57470  Biso   1.000  H
  H75      1.0000 0.87200  0.98510  0.07470  Biso   1.000  H
  H76      1.0000 0.12800  0.48510  0.42530  Biso   1.000  H
  C125     1.0000 0.29910  0.03980  0.88870  Biso   1.000  C
  C126     1.0000 0.70090  0.53980  0.61130  Biso   1.000  C
  C127     1.0000 0.70090  0.96020  0.11130  Biso   1.000  C
  C128     1.0000 0.29910  0.46020  0.38870  Biso   1.000  C
  H77      1.0000 0.24830  0.07070  0.87070  Biso   1.000  H
  H78      1.0000 0.75170  0.57070  0.62930  Biso   1.000  H
  H79      1.0000 0.75170  0.92930  0.12930  Biso   1.000  H
  H80      1.0000 0.24830  0.42930  0.37070  Biso   1.000  H
  C129     1.0000 0.39190  0.04290  0.87840  Biso   1.000  C
  C130     1.0000 0.60810  0.54290  0.62160  Biso   1.000  C
  C131     1.0000 0.60810  0.95710  0.12160  Biso   1.000  C
  C132     1.0000 0.39190  0.45710  0.37840  Biso   1.000  C
  H81      1.0000 0.40410  0.07570  0.85320  Biso   1.000  H
  H82      1.0000 0.59590  0.57570  0.64680  Biso   1.000  H
  H83      1.0000 0.59590  0.92430  0.14680  Biso   1.000  H
  H84      1.0000 0.40410  0.42430  0.35320  Biso   1.000  H
  C133     1.0000 0.57370  0.99770  0.89820  Biso   1.000  C
  C134     1.0000 0.42630  0.49770  0.60180  Biso   1.000  C
  C135     1.0000 0.42630  0.00230  0.10180  Biso   1.000  C
  C136     1.0000 0.57370  0.50230  0.39820  Biso   1.000  C
  H85      1.0000 0.59200  0.03000  0.87440  Biso   1.000  H
  H86      1.0000 0.40800  0.53000  0.62560  Biso   1.000  H
  H87      1.0000 0.40800  0.97000  0.12560  Biso   1.000  H
  H88      1.0000 0.59200  0.47000  0.37440  Biso   1.000  H
  C137     1.0000 0.64490  0.95050  0.92660  Biso   1.000  C
  C138     1.0000 0.35510  0.45050  0.57340  Biso   1.000  C
  C139     1.0000 0.35510  0.04950  0.07340  Biso   1.000  C
  C140     1.0000 0.64490  0.54950  0.42660  Biso   1.000  C
  H89      1.0000 0.71130  0.95060  0.92190  Biso   1.000  H
  H90      1.0000 0.28870  0.45060  0.57810  Biso   1.000  H
  H91      1.0000 0.28870  0.04940  0.07810  Biso   1.000  H
  H92      1.0000 0.71130  0.54940  0.42190  Biso   1.000  H
  C141     1.0000 0.61690  0.90280  0.96210  Biso   1.000  C
  C142     1.0000 0.38310  0.40280  0.53790  Biso   1.000  C
  C143     1.0000 0.38310  0.09720  0.03790  Biso   1.000  C
  C144     1.0000 0.61690  0.59720  0.46210  Biso   1.000  C
  H93      1.0000 0.66580  0.87150  0.98130  Biso   1.000  H
  H94      1.0000 0.33420  0.37150  0.51870  Biso   1.000  H
  H95      1.0000 0.33420  0.12850  0.01870  Biso   1.000  H
  H96      1.0000 0.66580  0.62850  0.48130  Biso   1.000  H
  C145     1.0000 0.45200  0.94720  0.94222  Biso   1.000  C
  C146     1.0000 0.54800  0.44720  0.55778  Biso   1.000  C
  C147     1.0000 0.54800  0.05280  0.05778  Biso   1.000  C
  C148     1.0000 0.45200  0.55280  0.44222  Biso   1.000  C
  C149     1.0000 0.47240  0.99700  0.90550  Biso   1.000  C
  C150     1.0000 0.52760  0.49700  0.59450  Biso   1.000  C
  C151     1.0000 0.52760  0.00300  0.09450  Biso   1.000  C
  C152     1.0000 0.47240  0.50300  0.40550  Biso   1.000  C
  C153     1.0000 0.27620  0.98960  0.92690  Biso   1.000  C
  C154     1.0000 0.72380  0.48960  0.57310  Biso   1.000  C
  C155     1.0000 0.72380  0.01040  0.07310  Biso   1.000  C
  C156     1.0000 0.27620  0.51040  0.42690  Biso   1.000  C
  C157     1.0000 0.35260  0.94290  0.95315  Biso   1.000  C
  C158     1.0000 0.64740  0.44290  0.54685  Biso   1.000  C
  C159     1.0000 0.64740  0.05710  0.04685  Biso   1.000  C
  C160     1.0000 0.35260  0.55710  0.45315  Biso   1.000  C
  C161     1.0000 0.49350  0.87700  0.27980  Biso   1.000  C
  C162     1.0000 0.50650  0.37700  0.22020  Biso   1.000  C
  C163     1.0000 0.50650  0.12300  0.72020  Biso   1.000  C
  C164     1.0000 0.49350  0.62300  0.77980  Biso   1.000  C
  H97      1.0000 0.44420  0.86130  0.25060  Biso   1.000  H
  H98      1.0000 0.55580  0.36130  0.24940  Biso   1.000  H
  H99      1.0000 0.55580  0.13870  0.74940  Biso   1.000  H
  H100     1.0000 0.44420  0.63870  0.75060  Biso   1.000  H
  C165     1.0000 0.59350  0.85510  0.28460  Biso   1.000  C
  C166     1.0000 0.40650  0.35510  0.21540  Biso   1.000  C
  C167     1.0000 0.40650  0.14490  0.71540  Biso   1.000  C
  C168     1.0000 0.59350  0.64490  0.78460  Biso   1.000  C
  H101     1.0000 0.61060  0.82780  0.25760  Biso   1.000  H
  H102     1.0000 0.38940  0.32780  0.24240  Biso   1.000  H
  H103     1.0000 0.38940  0.17220  0.74240  Biso   1.000  H
  H104     1.0000 0.61060  0.67220  0.75760  Biso   1.000  H
  C169     1.0000 0.66690  0.87300  0.32810  Biso   1.000  C
  C170     1.0000 0.33310  0.37300  0.17190  Biso   1.000  C
  C171     1.0000 0.33310  0.12700  0.67190  Biso   1.000  C
  C172     1.0000 0.66690  0.62700  0.82810  Biso   1.000  C
  H105     1.0000 0.73320  0.85610  0.33200  Biso   1.000  H
  H106     1.0000 0.26680  0.35610  0.16800  Biso   1.000  H
  H107     1.0000 0.26680  0.14390  0.66800  Biso   1.000  H
  H108     1.0000 0.73320  0.64390  0.83200  Biso   1.000  H
  C173     1.0000 0.71150  0.94090  0.41440  Biso   1.000  C
  C174     1.0000 0.28850  0.44090  0.08560  Biso   1.000  C
  C175     1.0000 0.28850  0.05910  0.58560  Biso   1.000  C
  C176     1.0000 0.71150  0.55910  0.91440  Biso   1.000  C
  H109     1.0000 0.77800  0.92340  0.42190  Biso   1.000  H
  H110     1.0000 0.22200  0.42340  0.07810  Biso   1.000  H
  H111     1.0000 0.22200  0.07660  0.57810  Biso   1.000  H
  H112     1.0000 0.77800  0.57660  0.92190  Biso   1.000  H
  C177     1.0000 0.68270  0.98840  0.44850  Biso   1.000  C
  C178     1.0000 0.31730  0.48840  0.05150  Biso   1.000  C
  C179     1.0000 0.31730  0.01160  0.55150  Biso   1.000  C
  C180     1.0000 0.68270  0.51160  0.94850  Biso   1.000  C
  H113     1.0000 0.73000  0.00290  0.47890  Biso   1.000  H
  H114     1.0000 0.27000  0.50290  0.02110  Biso   1.000  H
  H115     1.0000 0.27000  0.99710  0.52110  Biso   1.000  H
  H116     1.0000 0.73000  0.49710  0.97890  Biso   1.000  H
  C181     1.0000 0.54790  0.06910  0.46980  Biso   1.000  C
  C182     1.0000 0.45210  0.56910  0.03020  Biso   1.000  C
  C183     1.0000 0.45210  0.93090  0.53020  Biso   1.000  C
  C184     1.0000 0.54790  0.43090  0.96980  Biso   1.000  C
  H117     1.0000 0.59320  0.09000  0.49850  Biso   1.000  H
  H118     1.0000 0.40680  0.59000  0.00150  Biso   1.000  H
  H119     1.0000 0.40680  0.91000  0.50150  Biso   1.000  H
  H120     1.0000 0.59320  0.41000  0.99850  Biso   1.000  H
  C185     1.0000 0.44800  0.08930  0.45760  Biso   1.000  C
  C186     1.0000 0.55200  0.58930  0.04240  Biso   1.000  C
  C187     1.0000 0.55200  0.91070  0.54240  Biso   1.000  C
  C188     1.0000 0.44800  0.41070  0.95760  Biso   1.000  C
  H121     1.0000 0.42530  0.12420  0.47820  Biso   1.000  H
  H122     1.0000 0.57470  0.62420  0.02180  Biso   1.000  H
  H123     1.0000 0.57470  0.87580  0.52180  Biso   1.000  H
  H124     1.0000 0.42530  0.37580  0.97820  Biso   1.000  H
  C189     1.0000 0.37980  0.05830  0.41460  Biso   1.000  C
  C190     1.0000 0.62020  0.55830  0.08540  Biso   1.000  C
  C191     1.0000 0.62020  0.94170  0.58540  Biso   1.000  C
  C192     1.0000 0.37980  0.44170  0.91460  Biso   1.000  C
  H125     1.0000 0.31170  0.07230  0.40760  Biso   1.000  H
  H126     1.0000 0.68830  0.57230  0.09240  Biso   1.000  H
  H127     1.0000 0.68830  0.92770  0.59240  Biso   1.000  H
  H128     1.0000 0.31170  0.42770  0.90760  Biso   1.000  H
  C193     1.0000 0.50910  0.99010  0.39420  Biso   1.000  C
  C194     1.0000 0.49090  0.49010  0.10580  Biso   1.000  C
  C195     1.0000 0.49090  0.00990  0.60580  Biso   1.000  C
  C196     1.0000 0.50910  0.50990  0.89420  Biso   1.000  C
  C197     1.0000 0.58190  0.01640  0.43850  Biso   1.000  C
  C198     1.0000 0.41810  0.51640  0.06150  Biso   1.000  C
  C199     1.0000 0.41810  0.98360  0.56150  Biso   1.000  C
  C200     1.0000 0.58190  0.48360  0.93850  Biso   1.000  C
  C201     1.0000 0.64120  0.91770  0.36750  Biso   1.000  C
  C202     1.0000 0.35880  0.41770  0.13250  Biso   1.000  C
  C203     1.0000 0.35880  0.08230  0.63250  Biso   1.000  C
  C204     1.0000 0.64120  0.58230  0.86750  Biso   1.000  C
  C205     1.0000 0.53970  0.94120  0.35830  Biso   1.000  C
  C206     1.0000 0.46030  0.44120  0.14170  Biso   1.000  C
  C207     1.0000 0.46030  0.05880  0.64170  Biso   1.000  C
  C208     1.0000 0.53970  0.55880  0.85830  Biso   1.000  C
  C209     1.0000 0.22850  0.82740  0.25750  Biso   1.000  C
  C210     1.0000 0.77150  0.32740  0.24250  Biso   1.000  C
  C211     1.0000 0.77150  0.17260  0.74250  Biso   1.000  C
  C212     1.0000 0.22850  0.67260  0.75750  Biso   1.000  C
  H129     1.0000 0.25400  0.80130  0.28850  Biso   1.000  H
  H130     1.0000 0.74600  0.30130  0.21150  Biso   1.000  H
  H131     1.0000 0.74600  0.19870  0.71150  Biso   1.000  H
  H132     1.0000 0.25400  0.69870  0.78850  Biso   1.000  H
  C213     1.0000 0.17090  0.79110  0.21360  Biso   1.000  C
  C214     1.0000 0.82910  0.29110  0.28640  Biso   1.000  C
  C215     1.0000 0.82910  0.20890  0.78640  Biso   1.000  C
  C216     1.0000 0.17090  0.70890  0.71360  Biso   1.000  C
  H133     1.0000 0.15970  0.74160  0.21500  Biso   1.000  H
  H134     1.0000 0.84030  0.24160  0.28500  Biso   1.000  H
  H135     1.0000 0.84030  0.25840  0.78500  Biso   1.000  H
  H136     1.0000 0.15970  0.75840  0.71500  Biso   1.000  H
  C217     1.0000 0.13130  0.82910  0.16870  Biso   1.000  C
  C218     1.0000 0.86870  0.32910  0.33130  Biso   1.000  C
  C219     1.0000 0.86870  0.17090  0.83130  Biso   1.000  C
  C220     1.0000 0.13130  0.67090  0.66870  Biso   1.000  C
  H137     1.0000 0.09200  0.80560  0.13910  Biso   1.000  H
  H138     1.0000 0.90800  0.30560  0.36090  Biso   1.000  H
  H139     1.0000 0.90800  0.19440  0.86090  Biso   1.000  H
  H140     1.0000 0.09200  0.69440  0.63910  Biso   1.000  H
  C221     1.0000 0.10830  0.94820  0.12130  Biso   1.000  C
  C222     1.0000 0.89170  0.44820  0.37870  Biso   1.000  C
  C223     1.0000 0.89170  0.05180  0.87870  Biso   1.000  C
  C224     1.0000 0.10830  0.55180  0.62130  Biso   1.000  C
  H141     1.0000 0.06730  0.92720  0.09110  Biso   1.000  H
  H142     1.0000 0.93270  0.42720  0.40890  Biso   1.000  H
  H143     1.0000 0.93270  0.07280  0.90890  Biso   1.000  H
  H144     1.0000 0.06730  0.57280  0.59110  Biso   1.000  H
  C225     1.0000 0.12730  0.01860  0.12130  Biso   1.000  C
  C226     1.0000 0.87270  0.51860  0.37870  Biso   1.000  C
  C227     1.0000 0.87270  0.98140  0.87870  Biso   1.000  C
  C228     1.0000 0.12730  0.48140  0.62130  Biso   1.000  C
  H145     1.0000 0.09840  0.04590  0.09140  Biso   1.000  H
  H146     1.0000 0.90160  0.54590  0.40860  Biso   1.000  H
  H147     1.0000 0.90160  0.95410  0.90860  Biso   1.000  H
  H148     1.0000 0.09840  0.45410  0.59140  Biso   1.000  H
  C229     1.0000 0.21690  0.12730  0.16850  Biso   1.000  C
  C230     1.0000 0.78310  0.62730  0.33150  Biso   1.000  C
  C231     1.0000 0.78310  0.87270  0.83150  Biso   1.000  C
  C232     1.0000 0.21690  0.37270  0.66850  Biso   1.000  C
  H149     1.0000 0.19160  0.15710  0.13940  Biso   1.000  H
  H150     1.0000 0.80840  0.65710  0.36060  Biso   1.000  H
  H151     1.0000 0.80840  0.84290  0.86060  Biso   1.000  H
  H152     1.0000 0.19160  0.34290  0.63940  Biso   1.000  H
  C233     1.0000 0.27910  0.15470  0.21350  Biso   1.000  C
  C234     1.0000 0.72090  0.65470  0.28650  Biso   1.000  C
  C235     1.0000 0.72090  0.84530  0.78650  Biso   1.000  C
  C236     1.0000 0.27910  0.34530  0.71350  Biso   1.000  C
  H153     1.0000 0.29740  0.20320  0.21470  Biso   1.000  H
  H154     1.0000 0.70260  0.70320  0.28530  Biso   1.000  H
  H155     1.0000 0.70260  0.79680  0.78530  Biso   1.000  H
  H156     1.0000 0.29740  0.29680  0.71470  Biso   1.000  H
  C237     1.0000 0.31510  0.11110  0.25720  Biso   1.000  C
  C238     1.0000 0.68490  0.61110  0.24280  Biso   1.000  C
  C239     1.0000 0.68490  0.88890  0.74280  Biso   1.000  C
  C240     1.0000 0.31510  0.38890  0.75720  Biso   1.000  C
  H157     1.0000 0.35540  0.13160  0.28790  Biso   1.000  H
  H158     1.0000 0.64460  0.63160  0.21210  Biso   1.000  H
  H159     1.0000 0.64460  0.86840  0.71210  Biso   1.000  H
  H160     1.0000 0.35540  0.36840  0.78790  Biso   1.000  H
  C241     1.0000 0.23310  0.01280  0.21212  Biso   1.000  C
  C242     1.0000 0.76690  0.51280  0.28788  Biso   1.000  C
  C243     1.0000 0.76690  0.98720  0.78788  Biso   1.000  C
  C244     1.0000 0.23310  0.48720  0.71212  Biso   1.000  C
  C245     1.0000 0.19170  0.05370  0.16650  Biso   1.000  C
  C246     1.0000 0.80830  0.55370  0.33350  Biso   1.000  C
  C247     1.0000 0.80830  0.94630  0.83350  Biso   1.000  C
  C248     1.0000 0.19170  0.44630  0.66650  Biso   1.000  C
  C249     1.0000 0.14920  0.90410  0.16650  Biso   1.000  C
  C250     1.0000 0.85080  0.40410  0.33350  Biso   1.000  C
  C251     1.0000 0.85080  0.09590  0.83350  Biso   1.000  C
  C252     1.0000 0.14920  0.59590  0.66650  Biso   1.000  C
  C253     1.0000 0.21030  0.93570  0.21218  Biso   1.000  C
  C254     1.0000 0.78970  0.43570  0.28782  Biso   1.000  C
  C255     1.0000 0.78970  0.06430  0.78782  Biso   1.000  C
  C256     1.0000 0.21030  0.56430  0.71218  Biso   1.000  C
  O1       1.0000 0.95130  0.58742  0.23956  Biso   1.000  O
  O2       1.0000 0.04870  0.08742  0.26044  Biso   1.000  O
  O3       1.0000 0.04870  0.41258  0.76044  Biso   1.000  O
  O4       1.0000 0.95130  0.91258  0.73956  Biso   1.000  O
  H161     1.0000 0.96810  0.57880  0.21150  Biso   1.000  H
  H162     1.0000 0.03190  0.07880  0.28850  Biso   1.000  H
  H163     1.0000 0.03190  0.42120  0.78850  Biso   1.000  H
  H164     1.0000 0.96810  0.92120  0.71150  Biso   1.000  H
  O5       1.0000 0.00980  0.57879  0.14394  Biso   1.000  O
  O6       1.0000 0.99020  0.07879  0.35606  Biso   1.000  O
  O7       1.0000 0.99020  0.42121  0.85606  Biso   1.000  O
  O8       1.0000 0.00980  0.92121  0.64394  Biso   1.000  O
  H165     1.0000 0.98950  0.58660  0.17110  Biso   1.000  H
  H166     1.0000 0.01050  0.08660  0.32890  Biso   1.000  H
  H167     1.0000 0.01050  0.41340  0.82890  Biso   1.000  H
  H168     1.0000 0.98950  0.91340  0.67110  Biso   1.000  H
  O9       1.0000 0.21170  0.53057  0.17907  Biso   1.000  O
  O10      1.0000 0.78830  0.03057  0.32093  Biso   1.000  O
  O11      1.0000 0.78830  0.46943  0.82093  Biso   1.000  O
  O12      1.0000 0.21170  0.96943  0.67907  Biso   1.000  O
  H169     1.0000 0.19360  0.53640  0.20710  Biso   1.000  H
  H170     1.0000 0.80640  0.03640  0.29290  Biso   1.000  H
  H171     1.0000 0.80640  0.46360  0.79290  Biso   1.000  H
  H172     1.0000 0.19360  0.96360  0.70710  Biso   1.000  H
  O13      1.0000 0.15960  0.56590  0.27488  Biso   1.000  O
  O14      1.0000 0.84040  0.06590  0.22512  Biso   1.000  O
  O15      1.0000 0.84040  0.43410  0.72512  Biso   1.000  O
  O16      1.0000 0.15960  0.93410  0.77488  Biso   1.000  O
  H173     1.0000 0.18430  0.52520  0.27920  Biso   1.000  H
  H174     1.0000 0.81570  0.02520  0.22080  Biso   1.000  H
  H175     1.0000 0.81570  0.47480  0.72080  Biso   1.000  H
  H176     1.0000 0.18430  0.97480  0.77920  Biso   1.000  H
  O17      1.0000 0.83230  0.92260  0.24160  Biso   1.000  O
  O18      1.0000 0.16770  0.42260  0.25840  Biso   1.000  O
  O19      1.0000 0.16770  0.07740  0.75840  Biso   1.000  O
  O20      1.0000 0.83230  0.57740  0.74160  Biso   1.000  O
  O21      1.0000 0.91980  0.90940  0.33020  Biso   1.000  O
  O22      1.0000 0.08020  0.40940  0.16980  Biso   1.000  O
  O23      1.0000 0.08020  0.09060  0.66980  Biso   1.000  O
  O24      1.0000 0.91980  0.59060  0.83020  Biso   1.000  O
  O25      1.0000 0.01820  0.93240  0.26830  Biso   1.000  O
  O26      1.0000 0.98180  0.43240  0.23170  Biso   1.000  O
  O27      1.0000 0.98180  0.06760  0.73170  Biso   1.000  O
  O28      1.0000 0.01820  0.56760  0.76830  Biso   1.000  O
  O29      1.0000 0.94340  0.88550  0.01270  Biso   1.000  O
  O30      1.0000 0.05660  0.38550  0.48730  Biso   1.000  O
  O31      1.0000 0.05660  0.11450  0.98730  Biso   1.000  O
  O32      1.0000 0.94340  0.61450  0.51270  Biso   1.000  O
  O33      1.0000 0.81600  0.80810  0.96310  Biso   1.000  O
  O34      1.0000 0.18400  0.30810  0.53690  Biso   1.000  O
  O35      1.0000 0.18400  0.19190  0.03690  Biso   1.000  O
  O36      1.0000 0.81600  0.69190  0.46310  Biso   1.000  O
  O37      1.0000 0.98170  0.80420  0.95170  Biso   1.000  O
  O38      1.0000 0.01830  0.30420  0.54830  Biso   1.000  O
  O39      1.0000 0.01830  0.19580  0.04830  Biso   1.000  O
  O40      1.0000 0.98170  0.69580  0.45170  Biso   1.000  O
  O41      1.0000 0.43100  0.83770  0.16424  Biso   1.000  O
  O42      1.0000 0.56900  0.33770  0.33576  Biso   1.000  O
  O43      1.0000 0.56900  0.16230  0.83576  Biso   1.000  O
  O44      1.0000 0.43100  0.66230  0.66424  Biso   1.000  O
  O45      1.0000 0.40770  0.79470  0.07533  Biso   1.000  O
  O46      1.0000 0.59230  0.29470  0.42467  Biso   1.000  O
  O47      1.0000 0.59230  0.20530  0.92467  Biso   1.000  O
  O48      1.0000 0.40770  0.70530  0.57533  Biso   1.000  O
  O49      1.0000 0.55340  0.75470  0.14240  Biso   1.000  O
  O50      1.0000 0.44660  0.25470  0.35760  Biso   1.000  O
  O51      1.0000 0.44660  0.24530  0.85760  Biso   1.000  O
  O52      1.0000 0.55340  0.74530  0.64240  Biso   1.000  O
  O53      1.0000 0.35190  0.84826  0.39801  Biso   1.000  O
  O54      1.0000 0.64810  0.34826  0.10199  Biso   1.000  O
  O55      1.0000 0.64810  0.15174  0.60199  Biso   1.000  O
  O56      1.0000 0.35190  0.65174  0.89801  Biso   1.000  O
  O57      1.0000 0.50890  0.78310  0.39936  Biso   1.000  O
  O58      1.0000 0.49110  0.28310  0.10064  Biso   1.000  O
  O59      1.0000 0.49110  0.21690  0.60064  Biso   1.000  O
  O60      1.0000 0.50890  0.71690  0.89936  Biso   1.000  O
  O61      1.0000 0.41440  0.76218  0.46743  Biso   1.000  O
  O62      1.0000 0.58560  0.26218  0.03257  Biso   1.000  O
  O63      1.0000 0.58560  0.23782  0.53257  Biso   1.000  O
  O64      1.0000 0.41440  0.73782  0.96743  Biso   1.000  O
  O65      1.0000 0.60050  0.79320  0.04932  Biso   1.000  O
  O66      1.0000 0.39950  0.29320  0.45068  Biso   1.000  O
  O67      1.0000 0.39950  0.20680  0.95068  Biso   1.000  O
  O68      1.0000 0.60050  0.70680  0.54932  Biso   1.000  O
  O69      1.0000 0.19470  0.97380  0.34343  Biso   1.000  O
  O70      1.0000 0.80530  0.47380  0.15657  Biso   1.000  O
  O71      1.0000 0.80530  0.02620  0.65657  Biso   1.000  O
  O72      1.0000 0.19470  0.52620  0.84343  Biso   1.000  O
  H177     1.0000 0.19290  0.96060  0.37470  Biso   1.000  H
  H178     1.0000 0.80710  0.46060  0.12530  Biso   1.000  H
  H179     1.0000 0.80710  0.03940  0.62530  Biso   1.000  H
  H180     1.0000 0.19290  0.53940  0.87470  Biso   1.000  H
  H181     1.0000 0.14060  0.95440  0.32480  Biso   1.000  H
  H182     1.0000 0.85940  0.45440  0.17520  Biso   1.000  H
  H183     1.0000 0.85940  0.04560  0.67520  Biso   1.000  H
  H184     1.0000 0.14060  0.54560  0.82480  Biso   1.000  H
  H185     1.0000 0.62640  0.76340  0.03080  Biso   1.000  H
  H186     1.0000 0.37360  0.26340  0.46920  Biso   1.000  H
  H187     1.0000 0.37360  0.23660  0.96920  Biso   1.000  H
  H188     1.0000 0.62640  0.73660  0.53080  Biso   1.000  H
  H189     1.0000 0.61990  0.79030  0.08310  Biso   1.000  H
  H190     1.0000 0.38010  0.29030  0.41690  Biso   1.000  H
  H191     1.0000 0.38010  0.20970  0.91690  Biso   1.000  H
  H192     1.0000 0.61990  0.70970  0.58310  Biso   1.000  H
  O73      1.0000 0.67490  0.71490  0.98391  Biso   1.000  O
  O74      1.0000 0.32510  0.21490  0.51609  Biso   1.000  O
  O75      1.0000 0.32510  0.28510  0.01609  Biso   1.000  O
  O76      1.0000 0.67490  0.78510  0.48391  Biso   1.000  O
  H193     1.0000 0.71050  0.73940  0.96730  Biso   1.000  H
  H194     1.0000 0.28950  0.23940  0.53270  Biso   1.000  H
  H195     1.0000 0.28950  0.26060  0.03270  Biso   1.000  H
  H196     1.0000 0.71050  0.76060  0.46730  Biso   1.000  H
  H197     1.0000 0.64090  0.71720  0.95170  Biso   1.000  H
  H198     1.0000 0.35910  0.21720  0.54830  Biso   1.000  H
  H199     1.0000 0.35910  0.28280  0.04830  Biso   1.000  H
  H200     1.0000 0.64090  0.78280  0.45170  Biso   1.000  H
  O77      1.0000 0.19240  0.58890  0.93710  Biso   1.000  O
  O78      1.0000 0.80760  0.08890  0.56290  Biso   1.000  O
  O79      1.0000 0.80760  0.41110  0.06290  Biso   1.000  O
  O80      1.0000 0.19240  0.91110  0.43710  Biso   1.000  O
  H201     1.0000 0.12780  0.59510  0.93160  Biso   1.000  H
  H202     1.0000 0.87220  0.09510  0.56840  Biso   1.000  H
  H203     1.0000 0.87220  0.40490  0.06840  Biso   1.000  H
  H204     1.0000 0.12780  0.90490  0.43160  Biso   1.000  H
  H205     1.0000 0.19790  0.63180  0.94920  Biso   1.000  H
  H206     1.0000 0.80210  0.13180  0.55080  Biso   1.000  H
  H207     1.0000 0.80210  0.36820  0.05080  Biso   1.000  H
  H208     1.0000 0.19790  0.86820  0.44920  Biso   1.000  H
  O81      1.0000 0.99410  0.64460  0.92400  Biso   1.000  O
  O82      1.0000 0.00590  0.14460  0.57600  Biso   1.000  O
  O83      1.0000 0.00590  0.35540  0.07600  Biso   1.000  O
  O84      1.0000 0.99410  0.85540  0.42400  Biso   1.000  O
  H209     1.0000 0.04510  0.67100  0.92260  Biso   1.000  H
  H210     1.0000 0.95490  0.17100  0.57740  Biso   1.000  H
  H211     1.0000 0.95490  0.32900  0.07740  Biso   1.000  H
  H212     1.0000 0.04510  0.82900  0.42260  Biso   1.000  H
  H213     1.0000 0.97050  0.61890  0.89650  Biso   1.000  H
  H214     1.0000 0.02950  0.11890  0.60350  Biso   1.000  H
  H215     1.0000 0.02950  0.38110  0.10350  Biso   1.000  H
  H216     1.0000 0.97050  0.88110  0.39650  Biso   1.000  H
