data_image0
_cell_length_a       8.093
_cell_length_b       12.273
_cell_length_c       8.338
_cell_angle_alpha    90
_cell_angle_beta     110.533
_cell_angle_gamma    90

_symmetry_space_group_name_H-M    "P 1"
_symmetry_int_tables_number       1

loop_
  _symmetry_equiv_pos_as_xyz
  'x, y, z'

loop_
  _atom_site_label
  _atom_site_occupancy
  _atom_site_fract_x
  _atom_site_fract_y
  _atom_site_fract_z
  _atom_site_thermal_displace_type
  _atom_site_B_iso_or_equiv
  _atom_site_type_symbol
  Cu1      1.0000 0.38518  0.03450  0.70877  Biso   1.000  Cu
  Cu2      1.0000 0.11482  0.53450  0.79123  Biso   1.000  Cu
  Cu3      1.0000 0.61482  0.96550  0.29123  Biso   1.000  Cu
  Cu4      1.0000 0.88518  0.46550  0.20877  Biso   1.000  Cu
  Cu5      1.0000 0.02348  0.89365  0.59220  Biso   1.000  Cu
  Cu6      1.0000 0.47652  0.39365  0.90780  Biso   1.000  Cu
  Cu7      1.0000 0.97652  0.10635  0.40780  Biso   1.000  Cu
  Cu8      1.0000 0.52348  0.60635  0.09220  Biso   1.000  Cu
  S1       1.0000 0.76870  0.04624  0.71730  Biso   1.000  S
  S2       1.0000 0.73130  0.54624  0.78270  Biso   1.000  S
  S3       1.0000 0.23130  0.95376  0.28270  Biso   1.000  S
  S4       1.0000 0.26870  0.45376  0.21730  Biso   1.000  S
  O1       1.0000 0.12810  0.03950  0.63070  Biso   1.000  O
  O2       1.0000 0.37190  0.53950  0.86930  Biso   1.000  O
  O3       1.0000 0.87190  0.96050  0.36930  Biso   1.000  O
  O4       1.0000 0.62810  0.46050  0.13070  Biso   1.000  O
  H1       1.0000 0.08800  0.06400  0.70000  Biso   1.000  H
  H2       1.0000 0.41200  0.56400  0.80000  Biso   1.000  H
  H3       1.0000 0.91200  0.93600  0.30000  Biso   1.000  H
  H4       1.0000 0.58800  0.43600  0.20000  Biso   1.000  H
  O5       1.0000 0.63980  0.05010  0.81010  Biso   1.000  O
  O6       1.0000 0.86020  0.55010  0.68990  Biso   1.000  O
  O7       1.0000 0.36020  0.94990  0.18990  Biso   1.000  O
  O8       1.0000 0.13980  0.44990  0.31010  Biso   1.000  O
  N1       1.0000 0.07700  0.24750  0.50600  Biso   1.000  N
  N2       1.0000 0.42300  0.74750  0.99400  Biso   1.000  N
  N3       1.0000 0.92300  0.75250  0.49400  Biso   1.000  N
  N4       1.0000 0.57700  0.25250  0.00600  Biso   1.000  N
  O9       1.0000 0.92040  0.11350  0.80750  Biso   1.000  O
  O10      1.0000 0.57960  0.61350  0.69250  Biso   1.000  O
  O11      1.0000 0.07960  0.88650  0.19250  Biso   1.000  O
  O12      1.0000 0.42040  0.38650  0.30750  Biso   1.000  O
  O13      1.0000 0.82130  0.93160  0.71250  Biso   1.000  O
  O14      1.0000 0.67870  0.43160  0.78750  Biso   1.000  O
  O15      1.0000 0.17870  0.06840  0.28750  Biso   1.000  O
  O16      1.0000 0.32130  0.56840  0.21250  Biso   1.000  O
  O17      1.0000 0.68120  0.08680  0.54250  Biso   1.000  O
  O18      1.0000 0.81880  0.58680  0.95750  Biso   1.000  O
  O19      1.0000 0.31880  0.91320  0.45750  Biso   1.000  O
  O20      1.0000 0.18120  0.41320  0.04250  Biso   1.000  O
  C1       1.0000 0.24900  0.26040  0.60190  Biso   1.000  C
  C2       1.0000 0.25100  0.76040  0.89810  Biso   1.000  C
  C3       1.0000 0.75100  0.73960  0.39810  Biso   1.000  C
  C4       1.0000 0.74900  0.23960  0.10190  Biso   1.000  C
  C5       1.0000 0.99860  0.33210  0.55660  Biso   1.000  C
  C6       1.0000 0.50140  0.83210  0.94340  Biso   1.000  C
  C7       1.0000 0.00140  0.66790  0.44340  Biso   1.000  C
  C8       1.0000 0.49860  0.16790  0.05660  Biso   1.000  C
  N5       1.0000 0.82410  0.35330  0.48310  Biso   1.000  N
  N6       1.0000 0.67590  0.85330  0.01690  Biso   1.000  N
  N7       1.0000 0.17590  0.64670  0.51690  Biso   1.000  N
  N8       1.0000 0.32410  0.14670  0.98310  Biso   1.000  N
  H5       1.0000 0.78000  0.41070  0.51170  Biso   1.000  H
  H6       1.0000 0.72000  0.91070  0.98830  Biso   1.000  H
  H7       1.0000 0.22000  0.58930  0.48830  Biso   1.000  H
  H8       1.0000 0.28000  0.08930  0.01170  Biso   1.000  H
  H9       1.0000 0.75720  0.30930  0.40790  Biso   1.000  H
  H10      1.0000 0.74280  0.80930  0.09210  Biso   1.000  H
  H11      1.0000 0.24280  0.69070  0.59210  Biso   1.000  H
  H12      1.0000 0.25720  0.19070  0.90790  Biso   1.000  H
  N9       1.0000 0.37960  0.18640  0.59480  Biso   1.000  N
  N10      1.0000 0.12040  0.68640  0.90520  Biso   1.000  N
  N11      1.0000 0.62040  0.81360  0.40520  Biso   1.000  N
  N12      1.0000 0.87960  0.31360  0.09480  Biso   1.000  N
  H13      1.0000 0.48300  0.20800  0.65900  Biso   1.000  H
  H14      1.0000 0.01700  0.70800  0.84100  Biso   1.000  H
  H15      1.0000 0.51700  0.79200  0.34100  Biso   1.000  H
  H16      1.0000 0.98300  0.29200  0.15900  Biso   1.000  H
  H17      1.0000 0.37100  0.16900  0.49200  Biso   1.000  H
  H18      1.0000 0.12900  0.66900  0.00800  Biso   1.000  H
  H19      1.0000 0.62900  0.83100  0.50800  Biso   1.000  H
  H20      1.0000 0.87100  0.33100  0.99200  Biso   1.000  H
  N13      1.0000 0.11480  0.39310  0.67330  Biso   1.000  N
  N14      1.0000 0.38520  0.89310  0.82670  Biso   1.000  N
  N15      1.0000 0.88520  0.60690  0.32670  Biso   1.000  N
  N16      1.0000 0.61480  0.10690  0.17330  Biso   1.000  N
  N17      1.0000 0.28020  0.34430  0.70220  Biso   1.000  N
  N18      1.0000 0.21980  0.84430  0.79780  Biso   1.000  N
  N19      1.0000 0.71980  0.65570  0.29780  Biso   1.000  N
  N20      1.0000 0.78020  0.15570  0.20220  Biso   1.000  N
