data_image0
_cell_length_a       9.5938
_cell_length_b       14.0907
_cell_length_c       7.5724
_cell_angle_alpha    90
_cell_angle_beta     90
_cell_angle_gamma    90

_symmetry_space_group_name_H-M    "P 1"
_symmetry_int_tables_number       1

loop_
  _symmetry_equiv_pos_as_xyz
  'x, y, z'

loop_
  _atom_site_label
  _atom_site_occupancy
  _atom_site_fract_x
  _atom_site_fract_y
  _atom_site_fract_z
  _atom_site_thermal_displace_type
  _atom_site_B_iso_or_equiv
  _atom_site_type_symbol
  Cu1      1.0000 0.60565  0.37034  0.99250  Biso   1.000  Cu
  Cu2      1.0000 0.89435  0.62966  0.49250  Biso   1.000  Cu
  Cu3      1.0000 0.10565  0.12966  0.50750  Biso   1.000  Cu
  Cu4      1.0000 0.39435  0.87034  0.00750  Biso   1.000  Cu
  Cu5      1.0000 0.39435  0.62966  0.00750  Biso   1.000  Cu
  Cu6      1.0000 0.10565  0.37034  0.50750  Biso   1.000  Cu
  Cu7      1.0000 0.89435  0.87034  0.49250  Biso   1.000  Cu
  Cu8      1.0000 0.60565  0.12966  0.99250  Biso   1.000  Cu
  O1       1.0000 0.58980  0.25000  0.88100  Biso   1.000  O
  O2       1.0000 0.91020  0.75000  0.38100  Biso   1.000  O
  O3       1.0000 0.08980  0.25000  0.61900  Biso   1.000  O
  O4       1.0000 0.41020  0.75000  0.11900  Biso   1.000  O
  C1       1.0000 0.75730  0.49220  0.23850  Biso   1.000  C
  C2       1.0000 0.74270  0.50780  0.73850  Biso   1.000  C
  C3       1.0000 0.25730  0.00780  0.26150  Biso   1.000  C
  C4       1.0000 0.24270  0.99220  0.76150  Biso   1.000  C
  C5       1.0000 0.24270  0.50780  0.76150  Biso   1.000  C
  C6       1.0000 0.25730  0.49220  0.26150  Biso   1.000  C
  C7       1.0000 0.74270  0.99220  0.73850  Biso   1.000  C
  C8       1.0000 0.75730  0.00780  0.23850  Biso   1.000  C
  H1       1.0000 0.81420  0.44010  0.27240  Biso   1.000  H
  H2       1.0000 0.68580  0.55990  0.77240  Biso   1.000  H
  H3       1.0000 0.31420  0.05990  0.22760  Biso   1.000  H
  H4       1.0000 0.18580  0.94010  0.72760  Biso   1.000  H
  H5       1.0000 0.18580  0.55990  0.72760  Biso   1.000  H
  H6       1.0000 0.31420  0.44010  0.22760  Biso   1.000  H
  H7       1.0000 0.68580  0.94010  0.77240  Biso   1.000  H
  H8       1.0000 0.81420  0.05990  0.27240  Biso   1.000  H
  C9       1.0000 0.54000  0.25000  0.48910  Biso   1.000  C
  C10      1.0000 0.96000  0.75000  0.98910  Biso   1.000  C
  C11      1.0000 0.04000  0.25000  0.01090  Biso   1.000  C
  C12      1.0000 0.46000  0.75000  0.51090  Biso   1.000  C
  H9       1.0000 0.52740  0.25000  0.61350  Biso   1.000  H
  H10      1.0000 0.97260  0.75000  0.11350  Biso   1.000  H
  H11      1.0000 0.02740  0.25000  0.88650  Biso   1.000  H
  H12      1.0000 0.47260  0.75000  0.38650  Biso   1.000  H
  N1       1.0000 0.65160  0.48790  0.12980  Biso   1.000  N
  N2       1.0000 0.84840  0.51210  0.62980  Biso   1.000  N
  N3       1.0000 0.15160  0.01210  0.37020  Biso   1.000  N
  N4       1.0000 0.34840  0.98790  0.87020  Biso   1.000  N
  N5       1.0000 0.34840  0.51210  0.87020  Biso   1.000  N
  N6       1.0000 0.15160  0.48790  0.37020  Biso   1.000  N
  N7       1.0000 0.84840  0.98790  0.62980  Biso   1.000  N
  N8       1.0000 0.65160  0.01210  0.12980  Biso   1.000  N
  N9       1.0000 0.59660  0.57460  0.11600  Biso   1.000  N
  N10      1.0000 0.90340  0.42540  0.61600  Biso   1.000  N
  N11      1.0000 0.09660  0.92540  0.38400  Biso   1.000  N
  N12      1.0000 0.40340  0.07460  0.88400  Biso   1.000  N
  N13      1.0000 0.40340  0.42540  0.88400  Biso   1.000  N
  N14      1.0000 0.09660  0.57460  0.38400  Biso   1.000  N
  N15      1.0000 0.90340  0.07460  0.61600  Biso   1.000  N
  N16      1.0000 0.59660  0.92540  0.11600  Biso   1.000  N
  N17      1.0000 0.67110  0.63080  0.21770  Biso   1.000  N
  N18      1.0000 0.82890  0.36920  0.71770  Biso   1.000  N
  N19      1.0000 0.17110  0.86920  0.28230  Biso   1.000  N
  N20      1.0000 0.32890  0.13080  0.78230  Biso   1.000  N
  N21      1.0000 0.32890  0.36920  0.78230  Biso   1.000  N
  N22      1.0000 0.17110  0.63080  0.28230  Biso   1.000  N
  N23      1.0000 0.82890  0.13080  0.71770  Biso   1.000  N
  N24      1.0000 0.67110  0.86920  0.21770  Biso   1.000  N
  N25      1.0000 0.77260  0.58130  0.29430  Biso   1.000  N
  N26      1.0000 0.72740  0.41870  0.79430  Biso   1.000  N
  N27      1.0000 0.27260  0.91870  0.20570  Biso   1.000  N
  N28      1.0000 0.22740  0.08130  0.70570  Biso   1.000  N
  N29      1.0000 0.22740  0.41870  0.70570  Biso   1.000  N
  N30      1.0000 0.27260  0.58130  0.20570  Biso   1.000  N
  N31      1.0000 0.72740  0.08130  0.79430  Biso   1.000  N
  N32      1.0000 0.77260  0.91870  0.29430  Biso   1.000  N
  N33      1.0000 0.55070  0.32540  0.38330  Biso   1.000  N
  N34      1.0000 0.94930  0.67460  0.88330  Biso   1.000  N
  N35      1.0000 0.05070  0.17460  0.11670  Biso   1.000  N
  N36      1.0000 0.44930  0.82540  0.61670  Biso   1.000  N
  N37      1.0000 0.44930  0.67460  0.61670  Biso   1.000  N
  N38      1.0000 0.05070  0.32540  0.11670  Biso   1.000  N
  N39      1.0000 0.94930  0.82540  0.88330  Biso   1.000  N
  N40      1.0000 0.55070  0.17460  0.38330  Biso   1.000  N
  N41      1.0000 0.56770  0.29790  0.21930  Biso   1.000  N
  N42      1.0000 0.93230  0.70210  0.71930  Biso   1.000  N
  N43      1.0000 0.06770  0.20210  0.28070  Biso   1.000  N
  N44      1.0000 0.43230  0.79790  0.78070  Biso   1.000  N
  N45      1.0000 0.43230  0.70210  0.78070  Biso   1.000  N
  N46      1.0000 0.06770  0.29790  0.28070  Biso   1.000  N
  N47      1.0000 0.93230  0.79790  0.71930  Biso   1.000  N
  N48      1.0000 0.56770  0.20210  0.21930  Biso   1.000  N
