data_image0
_cell_length_a       7.3296
_cell_length_b       8.6402
_cell_length_c       6.669
_cell_angle_alpha    90
_cell_angle_beta     97.22
_cell_angle_gamma    90

_symmetry_space_group_name_H-M    "P 1"
_symmetry_int_tables_number       1

loop_
  _symmetry_equiv_pos_as_xyz
  'x, y, z'

loop_
  _atom_site_label
  _atom_site_occupancy
  _atom_site_fract_x
  _atom_site_fract_y
  _atom_site_fract_z
  _atom_site_thermal_displace_type
  _atom_site_B_iso_or_equiv
  _atom_site_type_symbol
  Cu1      1.0000 0.50000  0.40495  0.25000  Biso   1.000  Cu
  Cu2      1.0000 0.50000  0.59505  0.75000  Biso   1.000  Cu
  Sr1      1.0000 0.00000  0.13505  0.25000  Biso   1.000  Sr
  Sr2      1.0000 0.00000  0.86495  0.75000  Biso   1.000  Sr
  O1       1.0000 0.32140  0.24400  0.15160  Biso   1.000  O
  O2       1.0000 0.67860  0.24400  0.34840  Biso   1.000  O
  O3       1.0000 0.67860  0.75600  0.84840  Biso   1.000  O
  O4       1.0000 0.32140  0.75600  0.65160  Biso   1.000  O
  O5       1.0000 0.21000  0.04880  0.96510  Biso   1.000  O
  O6       1.0000 0.79000  0.04880  0.53490  Biso   1.000  O
  O7       1.0000 0.79000  0.95120  0.03490  Biso   1.000  O
  O8       1.0000 0.21000  0.95120  0.46510  Biso   1.000  O
  O9       1.0000 0.09130  0.31660  0.52250  Biso   1.000  O
  O10      1.0000 0.90870  0.31660  0.97750  Biso   1.000  O
  O11      1.0000 0.90870  0.68340  0.47750  Biso   1.000  O
  O12      1.0000 0.09130  0.68340  0.02250  Biso   1.000  O
  O13      1.0000 0.35800  0.43830  0.58870  Biso   1.000  O
  O14      1.0000 0.64200  0.43830  0.91130  Biso   1.000  O
  O15      1.0000 0.64200  0.56170  0.41130  Biso   1.000  O
  O16      1.0000 0.35800  0.56170  0.08870  Biso   1.000  O
  C1       1.0000 0.32590  0.15060  0.00970  Biso   1.000  C
  C2       1.0000 0.67410  0.15060  0.49030  Biso   1.000  C
  C3       1.0000 0.67410  0.84940  0.99030  Biso   1.000  C
  C4       1.0000 0.32590  0.84940  0.50970  Biso   1.000  C
  H1       1.0000 0.42550  0.15900  0.92960  Biso   1.000  H
  H2       1.0000 0.57450  0.15900  0.57040  Biso   1.000  H
  H3       1.0000 0.57450  0.84100  0.07040  Biso   1.000  H
  H4       1.0000 0.42550  0.84100  0.42960  Biso   1.000  H
  C5       1.0000 0.20000  0.39950  0.62800  Biso   1.000  C
  C6       1.0000 0.80000  0.39950  0.87200  Biso   1.000  C
  C7       1.0000 0.80000  0.60050  0.37200  Biso   1.000  C
  C8       1.0000 0.20000  0.60050  0.12800  Biso   1.000  C
  H5       1.0000 0.16350  0.43740  0.75230  Biso   1.000  H
  H6       1.0000 0.83650  0.43740  0.74770  Biso   1.000  H
  H7       1.0000 0.83650  0.56260  0.24770  Biso   1.000  H
  H8       1.0000 0.16350  0.56260  0.25230  Biso   1.000  H
