data_image0
_cell_length_a       12.306
_cell_length_b       8.576
_cell_length_c       15.995
_cell_angle_alpha    90
_cell_angle_beta     94.48
_cell_angle_gamma    90

_symmetry_space_group_name_H-M    "P 1"
_symmetry_int_tables_number       1

loop_
  _symmetry_equiv_pos_as_xyz
  'x, y, z'

loop_
  _atom_site_label
  _atom_site_occupancy
  _atom_site_fract_x
  _atom_site_fract_y
  _atom_site_fract_z
  _atom_site_thermal_displace_type
  _atom_site_B_iso_or_equiv
  _atom_site_type_symbol
  Cu1      1.0000 0.00000  0.00000  0.00000  Biso   1.000  Cu
  Cu2      1.0000 0.00000  0.50000  0.50000  Biso   1.000  Cu
  S1       1.0000 0.07918  0.27534  0.07512  Biso   1.000  S
  S2       1.0000 0.92082  0.77534  0.42488  Biso   1.000  S
  S3       1.0000 0.92082  0.72466  0.92488  Biso   1.000  S
  S4       1.0000 0.07918  0.22466  0.57512  Biso   1.000  S
  C1       1.0000 0.85577  0.22620  0.08336  Biso   1.000  C
  C2       1.0000 0.14423  0.72620  0.41664  Biso   1.000  C
  C3       1.0000 0.14423  0.77380  0.91664  Biso   1.000  C
  C4       1.0000 0.85577  0.27380  0.58336  Biso   1.000  C
  N1       1.0000 0.86957  0.07555  0.05282  Biso   1.000  N
  N2       1.0000 0.13043  0.57555  0.44718  Biso   1.000  N
  N3       1.0000 0.13043  0.92445  0.94718  Biso   1.000  N
  N4       1.0000 0.86957  0.42445  0.55282  Biso   1.000  N
  C5       1.0000 0.77597  0.00260  0.06054  Biso   1.000  C
  C6       1.0000 0.22403  0.50260  0.43946  Biso   1.000  C
  C7       1.0000 0.22403  0.99740  0.93946  Biso   1.000  C
  C8       1.0000 0.77597  0.49740  0.56054  Biso   1.000  C
  H1       1.0000 0.76030  0.88800  0.04210  Biso   1.000  H
  H2       1.0000 0.23970  0.38800  0.45790  Biso   1.000  H
  H3       1.0000 0.23970  0.11200  0.95790  Biso   1.000  H
  H4       1.0000 0.76030  0.61200  0.54210  Biso   1.000  H
  N5       1.0000 0.70536  0.09620  0.09465  Biso   1.000  N
  N6       1.0000 0.29464  0.59620  0.40535  Biso   1.000  N
  N7       1.0000 0.29464  0.90380  0.90535  Biso   1.000  N
  N8       1.0000 0.70536  0.40380  0.59465  Biso   1.000  N
  H5       1.0000 0.62910  0.06570  0.10830  Biso   1.000  H
  H6       1.0000 0.37090  0.56570  0.39170  Biso   1.000  H
  H7       1.0000 0.37090  0.93430  0.89170  Biso   1.000  H
  H8       1.0000 0.62910  0.43430  0.60830  Biso   1.000  H
  C9       1.0000 0.75383  0.23920  0.10872  Biso   1.000  C
  C10      1.0000 0.24617  0.73920  0.39128  Biso   1.000  C
  C11      1.0000 0.24617  0.76080  0.89128  Biso   1.000  C
  C12      1.0000 0.75383  0.26080  0.60872  Biso   1.000  C
  C13      1.0000 0.69618  0.37200  0.14783  Biso   1.000  C
  C14      1.0000 0.30382  0.87200  0.35217  Biso   1.000  C
  C15      1.0000 0.30382  0.62800  0.85217  Biso   1.000  C
  C16      1.0000 0.69618  0.12800  0.64783  Biso   1.000  C
  H9       1.0000 0.70100  0.46270  0.10640  Biso   1.000  H
  H10      1.0000 0.29900  0.96270  0.39360  Biso   1.000  H
  H11      1.0000 0.29900  0.53730  0.89360  Biso   1.000  H
  H12      1.0000 0.70100  0.03730  0.60640  Biso   1.000  H
  H13      1.0000 0.74480  0.40170  0.19970  Biso   1.000  H
  H14      1.0000 0.25520  0.90170  0.30030  Biso   1.000  H
  H15      1.0000 0.25520  0.59830  0.80030  Biso   1.000  H
  H16      1.0000 0.74480  0.09830  0.69970  Biso   1.000  H
  H17      1.0000 0.62110  0.38500  0.16670  Biso   1.000  H
  H18      1.0000 0.37890  0.88500  0.33330  Biso   1.000  H
  H19      1.0000 0.37890  0.61500  0.83330  Biso   1.000  H
  H20      1.0000 0.62110  0.11500  0.66670  Biso   1.000  H
  C17      1.0000 0.94150  0.34860  0.07920  Biso   1.000  C
  C18      1.0000 0.05850  0.84860  0.42080  Biso   1.000  C
  C19      1.0000 0.05850  0.65140  0.92080  Biso   1.000  C
  C20      1.0000 0.94150  0.15140  0.57920  Biso   1.000  C
  H21      1.0000 0.92250  0.42520  0.03220  Biso   1.000  H
  H22      1.0000 0.07750  0.92520  0.46780  Biso   1.000  H
  H23      1.0000 0.07750  0.57480  0.96780  Biso   1.000  H
  H24      1.0000 0.92250  0.07480  0.53220  Biso   1.000  H
  H25      1.0000 0.93830  0.42630  0.12810  Biso   1.000  H
  H26      1.0000 0.06170  0.92630  0.37190  Biso   1.000  H
  H27      1.0000 0.06170  0.57370  0.87190  Biso   1.000  H
  H28      1.0000 0.93830  0.07370  0.62810  Biso   1.000  H
  C21      1.0000 0.11171  0.21156  0.18197  Biso   1.000  C
  C22      1.0000 0.88829  0.71156  0.31803  Biso   1.000  C
  C23      1.0000 0.88829  0.78844  0.81803  Biso   1.000  C
  C24      1.0000 0.11171  0.28844  0.68197  Biso   1.000  C
  H29      1.0000 0.16890  0.12500  0.18490  Biso   1.000  H
  H30      1.0000 0.83110  0.62500  0.31510  Biso   1.000  H
  H31      1.0000 0.83110  0.87500  0.81510  Biso   1.000  H
  H32      1.0000 0.16890  0.37500  0.68490  Biso   1.000  H
  H33      1.0000 0.05000  0.14920  0.20390  Biso   1.000  H
  H34      1.0000 0.95000  0.64920  0.29610  Biso   1.000  H
  H35      1.0000 0.95000  0.85080  0.79610  Biso   1.000  H
  H36      1.0000 0.05000  0.35080  0.70390  Biso   1.000  H
  C25      1.0000 0.14911  0.34170  0.24294  Biso   1.000  C
  C26      1.0000 0.85089  0.84170  0.25706  Biso   1.000  C
  C27      1.0000 0.85089  0.65830  0.75706  Biso   1.000  C
  C28      1.0000 0.14911  0.15830  0.74294  Biso   1.000  C
  H37      1.0000 0.16980  0.30140  0.30170  Biso   1.000  H
  H38      1.0000 0.83020  0.80140  0.19830  Biso   1.000  H
  H39      1.0000 0.83020  0.69860  0.69830  Biso   1.000  H
  H40      1.0000 0.16980  0.19860  0.80170  Biso   1.000  H
  H41      1.0000 0.08430  0.40870  0.25710  Biso   1.000  H
  H42      1.0000 0.91570  0.90870  0.24290  Biso   1.000  H
  H43      1.0000 0.91570  0.59130  0.74290  Biso   1.000  H
  H44      1.0000 0.08430  0.09130  0.75710  Biso   1.000  H
  N9       1.0000 0.23441  0.43814  0.21085  Biso   1.000  N
  N10      1.0000 0.76559  0.93814  0.28915  Biso   1.000  N
  N11      1.0000 0.76559  0.56186  0.78915  Biso   1.000  N
  N12      1.0000 0.23441  0.06186  0.71085  Biso   1.000  N
  H45      1.0000 0.31200  0.39560  0.21500  Biso   1.000  H
  H46      1.0000 0.68800  0.89560  0.28500  Biso   1.000  H
  H47      1.0000 0.68800  0.60440  0.78500  Biso   1.000  H
  H48      1.0000 0.31200  0.10440  0.71500  Biso   1.000  H
  C29      1.0000 0.21364  0.57790  0.17554  Biso   1.000  C
  C30      1.0000 0.78636  0.07790  0.32446  Biso   1.000  C
  C31      1.0000 0.78636  0.42210  0.82446  Biso   1.000  C
  C32      1.0000 0.21364  0.92210  0.67554  Biso   1.000  C
  N13      1.0000 0.11443  0.64082  0.18338  Biso   1.000  N
  N14      1.0000 0.88557  0.14082  0.31662  Biso   1.000  N
  N15      1.0000 0.88557  0.35918  0.81662  Biso   1.000  N
  N16      1.0000 0.11443  0.85918  0.68338  Biso   1.000  N
  C33      1.0000 0.08411  0.76180  0.13849  Biso   1.000  C
  C34      1.0000 0.91589  0.26180  0.36151  Biso   1.000  C
  C35      1.0000 0.91589  0.23820  0.86151  Biso   1.000  C
  C36      1.0000 0.08411  0.73820  0.63849  Biso   1.000  C
  N17      1.0000 0.04620  0.86694  0.10256  Biso   1.000  N
  N18      1.0000 0.95380  0.36694  0.39744  Biso   1.000  N
  N19      1.0000 0.95380  0.13306  0.89744  Biso   1.000  N
  N20      1.0000 0.04620  0.63306  0.60256  Biso   1.000  N
  N21      1.0000 0.29055  0.64941  0.13594  Biso   1.000  N
  N22      1.0000 0.70945  0.14941  0.36406  Biso   1.000  N
  N23      1.0000 0.70945  0.35059  0.86406  Biso   1.000  N
  N24      1.0000 0.29055  0.85059  0.63594  Biso   1.000  N
  H49      1.0000 0.27440  0.75840  0.11340  Biso   1.000  H
  H50      1.0000 0.72560  0.25840  0.38660  Biso   1.000  H
  H51      1.0000 0.72560  0.24160  0.88660  Biso   1.000  H
  H52      1.0000 0.27440  0.74160  0.61340  Biso   1.000  H
  C37      1.0000 0.39811  0.58490  0.12133  Biso   1.000  C
  C38      1.0000 0.60189  0.08490  0.37867  Biso   1.000  C
  C39      1.0000 0.60189  0.41510  0.87867  Biso   1.000  C
  C40      1.0000 0.39811  0.91510  0.62133  Biso   1.000  C
  H53      1.0000 0.38360  0.48300  0.08910  Biso   1.000  H
  H54      1.0000 0.61640  0.98300  0.41090  Biso   1.000  H
  H55      1.0000 0.61640  0.51700  0.91090  Biso   1.000  H
  H56      1.0000 0.38360  0.01700  0.58910  Biso   1.000  H
  H57      1.0000 0.43440  0.55660  0.17790  Biso   1.000  H
  H58      1.0000 0.56560  0.05660  0.32210  Biso   1.000  H
  H59      1.0000 0.56560  0.44340  0.82210  Biso   1.000  H
  H60      1.0000 0.43440  0.94340  0.67790  Biso   1.000  H
  H61      1.0000 0.45690  0.63650  0.09090  Biso   1.000  H
  H62      1.0000 0.54310  0.13650  0.40910  Biso   1.000  H
  H63      1.0000 0.54310  0.36350  0.90910  Biso   1.000  H
  H64      1.0000 0.45690  0.86350  0.59090  Biso   1.000  H
  Cl1      1.0000 0.58621  0.58216  0.35952  Biso   1.000  Cl
  Cl2      1.0000 0.41379  0.08216  0.14048  Biso   1.000  Cl
  Cl3      1.0000 0.41379  0.41784  0.64048  Biso   1.000  Cl
  Cl4      1.0000 0.58621  0.91784  0.85952  Biso   1.000  Cl
  O1       1.0000 0.68110  0.48967  0.37793  Biso   1.000  O
  O2       1.0000 0.31890  0.98967  0.12207  Biso   1.000  O
  O3       1.0000 0.31890  0.51033  0.62207  Biso   1.000  O
  O4       1.0000 0.68110  0.01033  0.87793  Biso   1.000  O
  O5       1.0000 0.49461  0.48372  0.33839  Biso   1.000  O
  O6       1.0000 0.50539  0.98372  0.16161  Biso   1.000  O
  O7       1.0000 0.50539  0.51628  0.66161  Biso   1.000  O
  O8       1.0000 0.49461  0.01628  0.83839  Biso   1.000  O
  O9       1.0000 0.56738  0.67287  0.43064  Biso   1.000  O
  O10      1.0000 0.43262  0.17287  0.06936  Biso   1.000  O
  O11      1.0000 0.43262  0.32713  0.56936  Biso   1.000  O
  O12      1.0000 0.56738  0.82713  0.93064  Biso   1.000  O
  O13      1.0000 0.60327  0.67982  0.28949  Biso   1.000  O
  O14      1.0000 0.39673  0.17982  0.21051  Biso   1.000  O
  O15      1.0000 0.39673  0.32018  0.71051  Biso   1.000  O
  O16      1.0000 0.60327  0.82018  0.78949  Biso   1.000  O
