data_image0
_cell_length_a       19.314
_cell_length_b       7.914
_cell_length_c       15.06
_cell_angle_alpha    90
_cell_angle_beta     137.4
_cell_angle_gamma    90

_symmetry_space_group_name_H-M    "P 1"
_symmetry_int_tables_number       1

loop_
  _symmetry_equiv_pos_as_xyz
  'x, y, z'

loop_
  _atom_site_label
  _atom_site_occupancy
  _atom_site_fract_x
  _atom_site_fract_y
  _atom_site_fract_z
  _atom_site_thermal_displace_type
  _atom_site_B_iso_or_equiv
  _atom_site_type_symbol
  Cu1      1.0000 0.92933  0.18149  0.43648  Biso   1.000  Cu
  Cu2      1.0000 0.42933  0.68149  0.43648  Biso   1.000  Cu
  Cu3      1.0000 0.07067  0.18149  0.06352  Biso   1.000  Cu
  Cu4      1.0000 0.57067  0.68149  0.06352  Biso   1.000  Cu
  Cu5      1.0000 0.07067  0.81851  0.56352  Biso   1.000  Cu
  Cu6      1.0000 0.57067  0.31851  0.56352  Biso   1.000  Cu
  Cu7      1.0000 0.92933  0.81851  0.93648  Biso   1.000  Cu
  Cu8      1.0000 0.42933  0.31851  0.93648  Biso   1.000  Cu
  N1       1.0000 0.02260  0.32560  0.45010  Biso   1.000  N
  N2       1.0000 0.52260  0.82560  0.45010  Biso   1.000  N
  N3       1.0000 0.97740  0.32560  0.04990  Biso   1.000  N
  N4       1.0000 0.47740  0.82560  0.04990  Biso   1.000  N
  N5       1.0000 0.97740  0.67440  0.54990  Biso   1.000  N
  N6       1.0000 0.47740  0.17440  0.54990  Biso   1.000  N
  N7       1.0000 0.02260  0.67440  0.95010  Biso   1.000  N
  N8       1.0000 0.52260  0.17440  0.95010  Biso   1.000  N
  N9       1.0000 0.92070  0.39200  0.50230  Biso   1.000  N
  N10      1.0000 0.42070  0.89200  0.50230  Biso   1.000  N
  N11      1.0000 0.07930  0.39200  0.99770  Biso   1.000  N
  N12      1.0000 0.57930  0.89200  0.99770  Biso   1.000  N
  N13      1.0000 0.07930  0.60800  0.49770  Biso   1.000  N
  N14      1.0000 0.57930  0.10800  0.49770  Biso   1.000  N
  N15      1.0000 0.92070  0.60800  0.00230  Biso   1.000  N
  N16      1.0000 0.42070  0.10800  0.00230  Biso   1.000  N
  N17      1.0000 0.90170  0.96260  0.26080  Biso   1.000  N
  N18      1.0000 0.40170  0.46260  0.26080  Biso   1.000  N
  N19      1.0000 0.09830  0.96260  0.23920  Biso   1.000  N
  N20      1.0000 0.59830  0.46260  0.23920  Biso   1.000  N
  N21      1.0000 0.09830  0.03740  0.73920  Biso   1.000  N
  N22      1.0000 0.59830  0.53740  0.73920  Biso   1.000  N
  N23      1.0000 0.90170  0.03740  0.76080  Biso   1.000  N
  N24      1.0000 0.40170  0.53740  0.76080  Biso   1.000  N
  N25      1.0000 0.74910  0.05770  0.31120  Biso   1.000  N
  N26      1.0000 0.24910  0.55770  0.31120  Biso   1.000  N
  N27      1.0000 0.25090  0.05770  0.18880  Biso   1.000  N
  N28      1.0000 0.75090  0.55770  0.18880  Biso   1.000  N
  N29      1.0000 0.25090  0.94230  0.68880  Biso   1.000  N
  N30      1.0000 0.75090  0.44230  0.68880  Biso   1.000  N
  N31      1.0000 0.74910  0.94230  0.81120  Biso   1.000  N
  N32      1.0000 0.24910  0.44230  0.81120  Biso   1.000  N
  O1       1.0000 0.83820  0.06360  0.43230  Biso   1.000  O
  O2       1.0000 0.33820  0.56360  0.43230  Biso   1.000  O
  O3       1.0000 0.16180  0.06360  0.06770  Biso   1.000  O
  O4       1.0000 0.66180  0.56360  0.06770  Biso   1.000  O
  O5       1.0000 0.16180  0.93640  0.56770  Biso   1.000  O
  O6       1.0000 0.66180  0.43640  0.56770  Biso   1.000  O
  O7       1.0000 0.83820  0.93640  0.93230  Biso   1.000  O
  O8       1.0000 0.33820  0.43640  0.93230  Biso   1.000  O
  O9       1.0000 0.68240  0.97340  0.28180  Biso   1.000  O
  O10      1.0000 0.18240  0.47340  0.28180  Biso   1.000  O
  O11      1.0000 0.31760  0.97340  0.21820  Biso   1.000  O
  O12      1.0000 0.81760  0.47340  0.21820  Biso   1.000  O
  O13      1.0000 0.31760  0.02660  0.71820  Biso   1.000  O
  O14      1.0000 0.81760  0.52660  0.71820  Biso   1.000  O
  O15      1.0000 0.68240  0.02660  0.78180  Biso   1.000  O
  O16      1.0000 0.18240  0.52660  0.78180  Biso   1.000  O
  O17      1.0000 0.73850  0.13790  0.23190  Biso   1.000  O
  O18      1.0000 0.23850  0.63790  0.23190  Biso   1.000  O
  O19      1.0000 0.26150  0.13790  0.26810  Biso   1.000  O
  O20      1.0000 0.76150  0.63790  0.26810  Biso   1.000  O
  O21      1.0000 0.26150  0.86210  0.76810  Biso   1.000  O
  O22      1.0000 0.76150  0.36210  0.76810  Biso   1.000  O
  O23      1.0000 0.73850  0.86210  0.73190  Biso   1.000  O
  O24      1.0000 0.23850  0.36210  0.73190  Biso   1.000  O
  O25      1.0000 0.94260  0.97460  0.37780  Biso   1.000  O
  O26      1.0000 0.44260  0.47460  0.37780  Biso   1.000  O
  O27      1.0000 0.05740  0.97460  0.12220  Biso   1.000  O
  O28      1.0000 0.55740  0.47460  0.12220  Biso   1.000  O
  O29      1.0000 0.05740  0.02540  0.62220  Biso   1.000  O
  O30      1.0000 0.55740  0.52540  0.62220  Biso   1.000  O
  O31      1.0000 0.94260  0.02540  0.87780  Biso   1.000  O
  O32      1.0000 0.44260  0.52540  0.87780  Biso   1.000  O
  O33      1.0000 0.87450  0.09080  0.19830  Biso   1.000  O
  O34      1.0000 0.37450  0.59080  0.19830  Biso   1.000  O
  O35      1.0000 0.12550  0.09080  0.30170  Biso   1.000  O
  O36      1.0000 0.62550  0.59080  0.30170  Biso   1.000  O
  O37      1.0000 0.12550  0.90920  0.80170  Biso   1.000  O
  O38      1.0000 0.62550  0.40920  0.80170  Biso   1.000  O
  O39      1.0000 0.87450  0.90920  0.69830  Biso   1.000  O
  O40      1.0000 0.37450  0.40920  0.69830  Biso   1.000  O
  O41      1.0000 0.89390  0.82230  0.22330  Biso   1.000  O
  O42      1.0000 0.39390  0.32230  0.22330  Biso   1.000  O
  O43      1.0000 0.10610  0.82230  0.27670  Biso   1.000  O
  O44      1.0000 0.60610  0.32230  0.27670  Biso   1.000  O
  O45      1.0000 0.10610  0.17770  0.77670  Biso   1.000  O
  O46      1.0000 0.60610  0.67770  0.77670  Biso   1.000  O
  O47      1.0000 0.89390  0.17770  0.72330  Biso   1.000  O
  O48      1.0000 0.39390  0.67770  0.72330  Biso   1.000  O
  C1       1.0000 0.07540  0.29050  0.42710  Biso   1.000  C
  C2       1.0000 0.57540  0.79050  0.42710  Biso   1.000  C
  C3       1.0000 0.92460  0.29050  0.07290  Biso   1.000  C
  C4       1.0000 0.42460  0.79050  0.07290  Biso   1.000  C
  C5       1.0000 0.92460  0.70950  0.57290  Biso   1.000  C
  C6       1.0000 0.42460  0.20950  0.57290  Biso   1.000  C
  C7       1.0000 0.07540  0.70950  0.92710  Biso   1.000  C
  C8       1.0000 0.57540  0.20950  0.92710  Biso   1.000  C
  C9       1.0000 0.02770  0.48180  0.48620  Biso   1.000  C
  C10      1.0000 0.52770  0.98180  0.48620  Biso   1.000  C
  C11      1.0000 0.97230  0.48180  0.01380  Biso   1.000  C
  C12      1.0000 0.47230  0.98180  0.01380  Biso   1.000  C
  C13      1.0000 0.97230  0.51820  0.51380  Biso   1.000  C
  C14      1.0000 0.47230  0.01820  0.51380  Biso   1.000  C
  C15      1.0000 0.02770  0.51820  0.98620  Biso   1.000  C
  C16      1.0000 0.52770  0.01820  0.98620  Biso   1.000  C
  C17      1.0000 0.87080  0.42490  0.52930  Biso   1.000  C
  C18      1.0000 0.37080  0.92490  0.52930  Biso   1.000  C
  C19      1.0000 0.12920  0.42490  0.97070  Biso   1.000  C
  C20      1.0000 0.62920  0.92490  0.97070  Biso   1.000  C
  C21      1.0000 0.12920  0.57510  0.47070  Biso   1.000  C
  C22      1.0000 0.62920  0.07510  0.47070  Biso   1.000  C
  C23      1.0000 0.87080  0.57510  0.02930  Biso   1.000  C
  C24      1.0000 0.37080  0.07510  0.02930  Biso   1.000  C
  C25      1.0000 0.13010  0.41540  0.43620  Biso   1.000  C
  C26      1.0000 0.63010  0.91540  0.43620  Biso   1.000  C
  C27      1.0000 0.86990  0.41540  0.06380  Biso   1.000  C
  C28      1.0000 0.36990  0.91540  0.06380  Biso   1.000  C
  C29      1.0000 0.86990  0.58460  0.56380  Biso   1.000  C
  C30      1.0000 0.36990  0.08460  0.56380  Biso   1.000  C
  C31      1.0000 0.13010  0.58460  0.93620  Biso   1.000  C
  C32      1.0000 0.63010  0.08460  0.93620  Biso   1.000  C
  H1       1.0000 0.07800  0.17900  0.41100  Biso   1.000  H
  H2       1.0000 0.57800  0.67900  0.41100  Biso   1.000  H
  H3       1.0000 0.92200  0.17900  0.08900  Biso   1.000  H
  H4       1.0000 0.42200  0.67900  0.08900  Biso   1.000  H
  H5       1.0000 0.92200  0.82100  0.58900  Biso   1.000  H
  H6       1.0000 0.42200  0.32100  0.58900  Biso   1.000  H
  H7       1.0000 0.07800  0.82100  0.91100  Biso   1.000  H
  H8       1.0000 0.57800  0.32100  0.91100  Biso   1.000  H
  H9       1.0000 0.84100  0.36300  0.52800  Biso   1.000  H
  H10      1.0000 0.34100  0.86300  0.52800  Biso   1.000  H
  H11      1.0000 0.15900  0.36300  0.97200  Biso   1.000  H
  H12      1.0000 0.65900  0.86300  0.97200  Biso   1.000  H
  H13      1.0000 0.15900  0.63700  0.47200  Biso   1.000  H
  H14      1.0000 0.65900  0.13700  0.47200  Biso   1.000  H
  H15      1.0000 0.84100  0.63700  0.02800  Biso   1.000  H
  H16      1.0000 0.34100  0.13700  0.02800  Biso   1.000  H
  H17      1.0000 0.16300  0.40100  0.41800  Biso   1.000  H
  H18      1.0000 0.66300  0.90100  0.41800  Biso   1.000  H
  H19      1.0000 0.83700  0.40100  0.08200  Biso   1.000  H
  H20      1.0000 0.33700  0.90100  0.08200  Biso   1.000  H
  H21      1.0000 0.83700  0.59900  0.58200  Biso   1.000  H
  H22      1.0000 0.33700  0.09900  0.58200  Biso   1.000  H
  H23      1.0000 0.16300  0.59900  0.91800  Biso   1.000  H
  H24      1.0000 0.66300  0.09900  0.91800  Biso   1.000  H
