data_image0
_cell_length_a       10.2179
_cell_length_b       8.6838
_cell_length_c       23.262
_cell_angle_alpha    90
_cell_angle_beta     102.055
_cell_angle_gamma    90

_symmetry_space_group_name_H-M    "P 1"
_symmetry_int_tables_number       1

loop_
  _symmetry_equiv_pos_as_xyz
  'x, y, z'

loop_
  _atom_site_label
  _atom_site_occupancy
  _atom_site_fract_x
  _atom_site_fract_y
  _atom_site_fract_z
  _atom_site_thermal_displace_type
  _atom_site_B_iso_or_equiv
  _atom_site_type_symbol
  Cu1      1.0000 0.06432  0.11836  0.74130  Biso   1.000  Cu
  Cu2      1.0000 0.93568  0.61836  0.75870  Biso   1.000  Cu
  Cu3      1.0000 0.93568  0.88164  0.25870  Biso   1.000  Cu
  Cu4      1.0000 0.06432  0.38164  0.24130  Biso   1.000  Cu
  Cl1      1.0000 0.32490  0.62840  0.58414  Biso   1.000  Cl
  Cl2      1.0000 0.67510  0.12840  0.91586  Biso   1.000  Cl
  Cl3      1.0000 0.67510  0.37160  0.41586  Biso   1.000  Cl
  Cl4      1.0000 0.32490  0.87160  0.08414  Biso   1.000  Cl
  O1       1.0000 0.12500  0.63750  0.74750  Biso   1.000  O
  O2       1.0000 0.87500  0.13750  0.75250  Biso   1.000  O
  O3       1.0000 0.87500  0.36250  0.25250  Biso   1.000  O
  O4       1.0000 0.12500  0.86250  0.24750  Biso   1.000  O
  O5       1.0000 0.04840  0.87380  0.74500  Biso   1.000  O
  O6       1.0000 0.95160  0.37380  0.75500  Biso   1.000  O
  O7       1.0000 0.95160  0.12620  0.25500  Biso   1.000  O
  O8       1.0000 0.04840  0.62620  0.24500  Biso   1.000  O
  O9       1.0000 0.19760  0.55890  0.57070  Biso   1.000  O
  O10      1.0000 0.80240  0.05890  0.92930  Biso   1.000  O
  O11      1.0000 0.80240  0.44110  0.42930  Biso   1.000  O
  O12      1.0000 0.19760  0.94110  0.07070  Biso   1.000  O
  O13      1.0000 0.32230  0.78630  0.59100  Biso   1.000  O
  O14      1.0000 0.67770  0.28630  0.90900  Biso   1.000  O
  O15      1.0000 0.67770  0.21370  0.40900  Biso   1.000  O
  O16      1.0000 0.32230  0.71370  0.09100  Biso   1.000  O
  O17      1.0000 0.38190  0.60420  0.53320  Biso   1.000  O
  O18      1.0000 0.61810  0.10420  0.96680  Biso   1.000  O
  O19      1.0000 0.61810  0.39580  0.46680  Biso   1.000  O
  O20      1.0000 0.38190  0.89580  0.03320  Biso   1.000  O
  O21      1.0000 0.40620  0.56280  0.63300  Biso   1.000  O
  O22      1.0000 0.59380  0.06280  0.86700  Biso   1.000  O
  O23      1.0000 0.59380  0.43720  0.36700  Biso   1.000  O
  O24      1.0000 0.40620  0.93720  0.13300  Biso   1.000  O
  O25      1.0000 0.43260  0.04100  0.54330  Biso   1.000  O
  O26      1.0000 0.56740  0.54100  0.95670  Biso   1.000  O
  O27      1.0000 0.56740  0.95900  0.45670  Biso   1.000  O
  O28      1.0000 0.43260  0.45900  0.04330  Biso   1.000  O
  O29      1.0000 0.55940  0.30600  0.59420  Biso   1.000  O
  O30      1.0000 0.44060  0.80600  0.90580  Biso   1.000  O
  O31      1.0000 0.44060  0.69400  0.40580  Biso   1.000  O
  O32      1.0000 0.55940  0.19400  0.09420  Biso   1.000  O
  N1       1.0000 0.00250  0.14350  0.65440  Biso   1.000  N
  N2       1.0000 0.99750  0.64350  0.84560  Biso   1.000  N
  N3       1.0000 0.99750  0.85650  0.34560  Biso   1.000  N
  N4       1.0000 0.00250  0.35650  0.15440  Biso   1.000  N
  N5       1.0000 0.14050  0.14390  0.82710  Biso   1.000  N
  N6       1.0000 0.85950  0.64390  0.67290  Biso   1.000  N
  N7       1.0000 0.85950  0.85610  0.17290  Biso   1.000  N
  N8       1.0000 0.14050  0.35610  0.32710  Biso   1.000  N
  C1       1.0000 0.87930  0.10050  0.62440  Biso   1.000  C
  C2       1.0000 0.12070  0.60050  0.87560  Biso   1.000  C
  C3       1.0000 0.12070  0.89950  0.37560  Biso   1.000  C
  C4       1.0000 0.87930  0.39950  0.12440  Biso   1.000  C
  H1       1.0000 0.81490  0.06510  0.64550  Biso   1.000  H
  H2       1.0000 0.18510  0.56510  0.85450  Biso   1.000  H
  H3       1.0000 0.18510  0.93490  0.35450  Biso   1.000  H
  H4       1.0000 0.81490  0.43490  0.14550  Biso   1.000  H
  C5       1.0000 0.84610  0.10720  0.56410  Biso   1.000  C
  C6       1.0000 0.15390  0.60720  0.93590  Biso   1.000  C
  C7       1.0000 0.15390  0.89280  0.43590  Biso   1.000  C
  C8       1.0000 0.84610  0.39280  0.06410  Biso   1.000  C
  H5       1.0000 0.76110  0.07120  0.54400  Biso   1.000  H
  H6       1.0000 0.23890  0.57120  0.95600  Biso   1.000  H
  H7       1.0000 0.23890  0.92880  0.45600  Biso   1.000  H
  H8       1.0000 0.76110  0.42880  0.04400  Biso   1.000  H
  C9       1.0000 0.93300  0.16450  0.53340  Biso   1.000  C
  C10      1.0000 0.06700  0.66450  0.96660  Biso   1.000  C
  C11      1.0000 0.06700  0.83550  0.46660  Biso   1.000  C
  C12      1.0000 0.93300  0.33550  0.03340  Biso   1.000  C
  H9       1.0000 0.90960  0.17270  0.49180  Biso   1.000  H
  H10      1.0000 0.09040  0.67270  0.00820  Biso   1.000  H
  H11      1.0000 0.09040  0.82730  0.50820  Biso   1.000  H
  H12      1.0000 0.90960  0.32730  0.99180  Biso   1.000  H
  C13      1.0000 0.05460  0.20990  0.56360  Biso   1.000  C
  C14      1.0000 0.94540  0.70990  0.93640  Biso   1.000  C
  C15      1.0000 0.94540  0.79010  0.43640  Biso   1.000  C
  C16      1.0000 0.05460  0.29010  0.06360  Biso   1.000  C
  H13      1.0000 0.11800  0.25020  0.54290  Biso   1.000  H
  H14      1.0000 0.88200  0.75020  0.95710  Biso   1.000  H
  H15      1.0000 0.88200  0.74980  0.45710  Biso   1.000  H
  H16      1.0000 0.11800  0.24980  0.04290  Biso   1.000  H
  C17      1.0000 0.08790  0.19860  0.62410  Biso   1.000  C
  C18      1.0000 0.91210  0.69860  0.87590  Biso   1.000  C
  C19      1.0000 0.91210  0.80140  0.37590  Biso   1.000  C
  C20      1.0000 0.08790  0.30140  0.12410  Biso   1.000  C
  C21      1.0000 0.21930  0.25370  0.66220  Biso   1.000  C
  C22      1.0000 0.78070  0.75370  0.83780  Biso   1.000  C
  C23      1.0000 0.78070  0.74630  0.33780  Biso   1.000  C
  C24      1.0000 0.21930  0.24630  0.16220  Biso   1.000  C
  C25      1.0000 0.31640  0.28980  0.79640  Biso   1.000  C
  C26      1.0000 0.68360  0.78980  0.70360  Biso   1.000  C
  C27      1.0000 0.68360  0.71020  0.20360  Biso   1.000  C
  C28      1.0000 0.31640  0.21020  0.29640  Biso   1.000  C
  C29      1.0000 0.25490  0.22170  0.84460  Biso   1.000  C
  C30      1.0000 0.74510  0.72170  0.65540  Biso   1.000  C
  C31      1.0000 0.74510  0.77830  0.15540  Biso   1.000  C
  C32      1.0000 0.25490  0.27830  0.34460  Biso   1.000  C
  C33      1.0000 0.30910  0.23860  0.90400  Biso   1.000  C
  C34      1.0000 0.69090  0.73860  0.59600  Biso   1.000  C
  C35      1.0000 0.69090  0.76140  0.09600  Biso   1.000  C
  C36      1.0000 0.30910  0.26140  0.40400  Biso   1.000  C
  H17      1.0000 0.38860  0.29710  0.91640  Biso   1.000  H
  H18      1.0000 0.61140  0.79710  0.58360  Biso   1.000  H
  H19      1.0000 0.61140  0.70290  0.08360  Biso   1.000  H
  H20      1.0000 0.38860  0.20290  0.41640  Biso   1.000  H
  C37      1.0000 0.24820  0.17080  0.94540  Biso   1.000  C
  C38      1.0000 0.75180  0.67080  0.55460  Biso   1.000  C
  C39      1.0000 0.75180  0.82920  0.05460  Biso   1.000  C
  C40      1.0000 0.24820  0.32920  0.44540  Biso   1.000  C
  H21      1.0000 0.28560  0.18090  0.98610  Biso   1.000  H
  H22      1.0000 0.71440  0.68090  0.51390  Biso   1.000  H
  H23      1.0000 0.71440  0.81910  0.01390  Biso   1.000  H
  H24      1.0000 0.28560  0.31910  0.48610  Biso   1.000  H
  C41      1.0000 0.13490  0.09000  0.92670  Biso   1.000  C
  C42      1.0000 0.86510  0.59000  0.57330  Biso   1.000  C
  C43      1.0000 0.86510  0.91000  0.07330  Biso   1.000  C
  C44      1.0000 0.13490  0.41000  0.42670  Biso   1.000  C
  H25      1.0000 0.09100  0.04100  0.95400  Biso   1.000  H
  H26      1.0000 0.90900  0.54100  0.54600  Biso   1.000  H
  H27      1.0000 0.90900  0.95900  0.04600  Biso   1.000  H
  H28      1.0000 0.09100  0.45900  0.45400  Biso   1.000  H
  C45      1.0000 0.08450  0.08040  0.86750  Biso   1.000  C
  C46      1.0000 0.91550  0.58040  0.63250  Biso   1.000  C
  C47      1.0000 0.91550  0.91960  0.13250  Biso   1.000  C
  C48      1.0000 0.08450  0.41960  0.36750  Biso   1.000  C
  H29      1.0000 0.00400  0.02410  0.85460  Biso   1.000  H
  H30      1.0000 0.99600  0.52410  0.64540  Biso   1.000  H
  H31      1.0000 0.99600  0.97590  0.14540  Biso   1.000  H
  H32      1.0000 0.00400  0.47590  0.35460  Biso   1.000  H
  C49      1.0000 0.27840  0.83540  0.73560  Biso   1.000  C
  C50      1.0000 0.72160  0.33540  0.76440  Biso   1.000  C
  C51      1.0000 0.72160  0.16460  0.26440  Biso   1.000  C
  C52      1.0000 0.27840  0.66460  0.23560  Biso   1.000  C
  C53      1.0000 0.13970  0.78130  0.74240  Biso   1.000  C
  C54      1.0000 0.86030  0.28130  0.75760  Biso   1.000  C
  C55      1.0000 0.86030  0.21870  0.25760  Biso   1.000  C
  C56      1.0000 0.13970  0.71870  0.24240  Biso   1.000  C
  N9       1.0000 0.24380  0.12490  0.71290  Biso   1.000  N
  N10      1.0000 0.75620  0.62490  0.78710  Biso   1.000  N
  N11      1.0000 0.75620  0.87510  0.28710  Biso   1.000  N
  N12      1.0000 0.24380  0.37510  0.21290  Biso   1.000  N
  C57      1.0000 0.35940  0.18820  0.75580  Biso   1.000  C
  C58      1.0000 0.64060  0.68820  0.74420  Biso   1.000  C
  C59      1.0000 0.64060  0.81180  0.24420  Biso   1.000  C
  C60      1.0000 0.35940  0.31180  0.25580  Biso   1.000  C
  C61      1.0000 0.27940  0.96940  0.69300  Biso   1.000  C
  C62      1.0000 0.72060  0.46940  0.80700  Biso   1.000  C
  C63      1.0000 0.72060  0.03060  0.30700  Biso   1.000  C
  C64      1.0000 0.27940  0.53060  0.19300  Biso   1.000  C
  C65      1.0000 0.33700  0.96500  0.77120  Biso   1.000  C
  C66      1.0000 0.66300  0.46500  0.72880  Biso   1.000  C
  C67      1.0000 0.66300  0.03500  0.22880  Biso   1.000  C
  C68      1.0000 0.33700  0.53500  0.27120  Biso   1.000  C
  C69      1.0000 0.31700  0.17100  0.69950  Biso   1.000  C
  C70      1.0000 0.68300  0.67100  0.80050  Biso   1.000  C
  C71      1.0000 0.68300  0.82900  0.30050  Biso   1.000  C
  C72      1.0000 0.31700  0.32900  0.19950  Biso   1.000  C
  N13      1.0000 0.27070  0.11700  0.75120  Biso   1.000  N
  N14      1.0000 0.72930  0.61700  0.74880  Biso   1.000  N
  N15      1.0000 0.72930  0.88300  0.24880  Biso   1.000  N
  N16      1.0000 0.27070  0.38300  0.25120  Biso   1.000  N
