data_image0
_cell_length_a       14.886
_cell_length_b       13.839
_cell_length_c       7.0144
_cell_angle_alpha    90
_cell_angle_beta     108.5
_cell_angle_gamma    90

_symmetry_space_group_name_H-M    "P 1"
_symmetry_int_tables_number       1

loop_
  _symmetry_equiv_pos_as_xyz
  'x, y, z'

loop_
  _atom_site_label
  _atom_site_occupancy
  _atom_site_fract_x
  _atom_site_fract_y
  _atom_site_fract_z
  _atom_site_thermal_displace_type
  _atom_site_B_iso_or_equiv
  _atom_site_type_symbol
  Cu1      1.0000 0.00000  0.20077  0.25000  Biso   1.000  Cu
  Cu2      1.0000 0.50000  0.70077  0.25000  Biso   1.000  Cu
  Cu3      1.0000 0.00000  0.79923  0.75000  Biso   1.000  Cu
  Cu4      1.0000 0.50000  0.29923  0.75000  Biso   1.000  Cu
  S1       1.0000 0.00000  0.13938  0.75000  Biso   1.000  S
  S2       1.0000 0.50000  0.63938  0.75000  Biso   1.000  S
  S3       1.0000 0.00000  0.86062  0.25000  Biso   1.000  S
  S4       1.0000 0.50000  0.36062  0.25000  Biso   1.000  S
  O1       1.0000 0.09709  0.10385  0.25650  Biso   1.000  O
  O2       1.0000 0.90291  0.10385  0.24350  Biso   1.000  O
  O3       1.0000 0.59709  0.60385  0.25650  Biso   1.000  O
  O4       1.0000 0.40291  0.60385  0.24350  Biso   1.000  O
  O5       1.0000 0.90291  0.89615  0.74350  Biso   1.000  O
  O6       1.0000 0.09709  0.89615  0.75650  Biso   1.000  O
  O7       1.0000 0.40291  0.39615  0.74350  Biso   1.000  O
  O8       1.0000 0.59709  0.39615  0.75650  Biso   1.000  O
  H1       1.0000 0.15310  0.12180  0.24670  Biso   1.000  H
  H2       1.0000 0.84690  0.12180  0.25330  Biso   1.000  H
  H3       1.0000 0.65310  0.62180  0.24670  Biso   1.000  H
  H4       1.0000 0.34690  0.62180  0.25330  Biso   1.000  H
  H5       1.0000 0.84690  0.87820  0.75330  Biso   1.000  H
  H6       1.0000 0.15310  0.87820  0.74670  Biso   1.000  H
  H7       1.0000 0.34690  0.37820  0.75330  Biso   1.000  H
  H8       1.0000 0.65310  0.37820  0.74670  Biso   1.000  H
  H9       1.0000 0.08550  0.04120  0.26970  Biso   1.000  H
  H10      1.0000 0.91450  0.04120  0.23030  Biso   1.000  H
  H11      1.0000 0.58550  0.54120  0.26970  Biso   1.000  H
  H12      1.0000 0.41450  0.54120  0.23030  Biso   1.000  H
  H13      1.0000 0.91450  0.95880  0.73030  Biso   1.000  H
  H14      1.0000 0.08550  0.95880  0.76970  Biso   1.000  H
  H15      1.0000 0.41450  0.45880  0.73030  Biso   1.000  H
  H16      1.0000 0.58550  0.45880  0.76970  Biso   1.000  H
  O9       1.0000 0.03650  0.19860  0.61780  Biso   1.000  O
  O10      1.0000 0.96350  0.19860  0.88220  Biso   1.000  O
  O11      1.0000 0.53650  0.69860  0.61780  Biso   1.000  O
  O12      1.0000 0.46350  0.69860  0.88220  Biso   1.000  O
  O13      1.0000 0.96350  0.80140  0.38220  Biso   1.000  O
  O14      1.0000 0.03650  0.80140  0.11780  Biso   1.000  O
  O15      1.0000 0.46350  0.30140  0.38220  Biso   1.000  O
  O16      1.0000 0.53650  0.30140  0.11780  Biso   1.000  O
  O17      1.0000 0.07694  0.07610  0.87690  Biso   1.000  O
  O18      1.0000 0.92306  0.07610  0.62310  Biso   1.000  O
  O19      1.0000 0.57694  0.57610  0.87690  Biso   1.000  O
  O20      1.0000 0.42306  0.57610  0.62310  Biso   1.000  O
  O21      1.0000 0.92306  0.92390  0.12310  Biso   1.000  O
  O22      1.0000 0.07694  0.92390  0.37690  Biso   1.000  O
  O23      1.0000 0.42306  0.42390  0.12310  Biso   1.000  O
  O24      1.0000 0.57694  0.42390  0.37690  Biso   1.000  O
  N1       1.0000 0.09050  0.31030  0.26430  Biso   1.000  N
  N2       1.0000 0.90950  0.31030  0.23570  Biso   1.000  N
  N3       1.0000 0.59050  0.81030  0.26430  Biso   1.000  N
  N4       1.0000 0.40950  0.81030  0.23570  Biso   1.000  N
  N5       1.0000 0.90950  0.68970  0.73570  Biso   1.000  N
  N6       1.0000 0.09050  0.68970  0.76430  Biso   1.000  N
  N7       1.0000 0.40950  0.18970  0.73570  Biso   1.000  N
  N8       1.0000 0.59050  0.18970  0.76430  Biso   1.000  N
  C1       1.0000 0.18100  0.30660  0.27380  Biso   1.000  C
  C2       1.0000 0.81900  0.30660  0.22620  Biso   1.000  C
  C3       1.0000 0.68100  0.80660  0.27380  Biso   1.000  C
  C4       1.0000 0.31900  0.80660  0.22620  Biso   1.000  C
  C5       1.0000 0.81900  0.69340  0.72620  Biso   1.000  C
  C6       1.0000 0.18100  0.69340  0.77380  Biso   1.000  C
  C7       1.0000 0.31900  0.19340  0.72620  Biso   1.000  C
  C8       1.0000 0.68100  0.19340  0.77380  Biso   1.000  C
  H17      1.0000 0.20960  0.24660  0.27680  Biso   1.000  H
  H18      1.0000 0.79040  0.24660  0.22320  Biso   1.000  H
  H19      1.0000 0.70960  0.74660  0.27680  Biso   1.000  H
  H20      1.0000 0.29040  0.74660  0.22320  Biso   1.000  H
  H21      1.0000 0.79040  0.75340  0.72320  Biso   1.000  H
  H22      1.0000 0.20960  0.75340  0.77680  Biso   1.000  H
  H23      1.0000 0.29040  0.25340  0.72320  Biso   1.000  H
  H24      1.0000 0.70960  0.25340  0.77680  Biso   1.000  H
  C9       1.0000 0.23450  0.39060  0.27960  Biso   1.000  C
  C10      1.0000 0.76550  0.39060  0.22040  Biso   1.000  C
  C11      1.0000 0.73450  0.89060  0.27960  Biso   1.000  C
  C12      1.0000 0.26550  0.89060  0.22040  Biso   1.000  C
  C13      1.0000 0.76550  0.60940  0.72040  Biso   1.000  C
  C14      1.0000 0.23450  0.60940  0.77960  Biso   1.000  C
  C15      1.0000 0.26550  0.10940  0.72040  Biso   1.000  C
  C16      1.0000 0.73450  0.10940  0.77960  Biso   1.000  C
  H25      1.0000 0.29760  0.38620  0.28510  Biso   1.000  H
  H26      1.0000 0.70240  0.38620  0.21490  Biso   1.000  H
  H27      1.0000 0.79760  0.88620  0.28510  Biso   1.000  H
  H28      1.0000 0.20240  0.88620  0.21490  Biso   1.000  H
  H29      1.0000 0.70240  0.61380  0.71490  Biso   1.000  H
  H30      1.0000 0.29760  0.61380  0.78510  Biso   1.000  H
  H31      1.0000 0.20240  0.11380  0.71490  Biso   1.000  H
  H32      1.0000 0.79760  0.11380  0.78510  Biso   1.000  H
  C17      1.0000 0.19310  0.47930  0.27700  Biso   1.000  C
  C18      1.0000 0.80690  0.47930  0.22300  Biso   1.000  C
  C19      1.0000 0.69310  0.97930  0.27700  Biso   1.000  C
  C20      1.0000 0.30690  0.97930  0.22300  Biso   1.000  C
  C21      1.0000 0.80690  0.52070  0.72300  Biso   1.000  C
  C22      1.0000 0.19310  0.52070  0.77700  Biso   1.000  C
  C23      1.0000 0.30690  0.02070  0.72300  Biso   1.000  C
  C24      1.0000 0.69310  0.02070  0.77700  Biso   1.000  C
  H33      1.0000 0.22820  0.53540  0.28260  Biso   1.000  H
  H34      1.0000 0.77180  0.53540  0.21740  Biso   1.000  H
  H35      1.0000 0.72820  0.03540  0.28260  Biso   1.000  H
  H36      1.0000 0.27180  0.03540  0.21740  Biso   1.000  H
  H37      1.0000 0.77180  0.46460  0.71740  Biso   1.000  H
  H38      1.0000 0.22820  0.46460  0.78260  Biso   1.000  H
  H39      1.0000 0.27180  0.96460  0.71740  Biso   1.000  H
  H40      1.0000 0.72820  0.96460  0.78260  Biso   1.000  H
  C25      1.0000 0.09770  0.48500  0.26580  Biso   1.000  C
  C26      1.0000 0.90230  0.48500  0.23420  Biso   1.000  C
  C27      1.0000 0.59770  0.98500  0.26580  Biso   1.000  C
  C28      1.0000 0.40230  0.98500  0.23420  Biso   1.000  C
  C29      1.0000 0.90230  0.51500  0.73420  Biso   1.000  C
  C30      1.0000 0.09770  0.51500  0.76580  Biso   1.000  C
  C31      1.0000 0.40230  0.01500  0.73420  Biso   1.000  C
  C32      1.0000 0.59770  0.01500  0.76580  Biso   1.000  C
  C33      1.0000 0.04940  0.39820  0.25880  Biso   1.000  C
  C34      1.0000 0.95060  0.39820  0.24120  Biso   1.000  C
  C35      1.0000 0.54940  0.89820  0.25880  Biso   1.000  C
  C36      1.0000 0.45060  0.89820  0.24120  Biso   1.000  C
  C37      1.0000 0.95060  0.60180  0.74120  Biso   1.000  C
  C38      1.0000 0.04940  0.60180  0.75880  Biso   1.000  C
  C39      1.0000 0.45060  0.10180  0.74120  Biso   1.000  C
  C40      1.0000 0.54940  0.10180  0.75880  Biso   1.000  C
  C41      1.0000 0.04660  0.57350  0.25680  Biso   1.000  C
  C42      1.0000 0.95340  0.57350  0.24320  Biso   1.000  C
  C43      1.0000 0.54660  0.07350  0.25680  Biso   1.000  C
  C44      1.0000 0.45340  0.07350  0.24320  Biso   1.000  C
  C45      1.0000 0.95340  0.42650  0.74320  Biso   1.000  C
  C46      1.0000 0.04660  0.42650  0.75680  Biso   1.000  C
  C47      1.0000 0.45340  0.92650  0.74320  Biso   1.000  C
  C48      1.0000 0.54660  0.92650  0.75680  Biso   1.000  C
  H41      1.0000 0.07780  0.63210  0.26020  Biso   1.000  H
  H42      1.0000 0.92220  0.63210  0.23980  Biso   1.000  H
  H43      1.0000 0.57780  0.13210  0.26020  Biso   1.000  H
  H44      1.0000 0.42220  0.13210  0.23980  Biso   1.000  H
  H45      1.0000 0.92220  0.36790  0.73980  Biso   1.000  H
  H46      1.0000 0.07780  0.36790  0.76020  Biso   1.000  H
  H47      1.0000 0.42220  0.86790  0.73980  Biso   1.000  H
  H48      1.0000 0.57780  0.86790  0.76020  Biso   1.000  H
