data_image0
_cell_length_a       14.9
_cell_length_b       13.852
_cell_length_c       7.023
_cell_angle_alpha    90
_cell_angle_beta     108.64
_cell_angle_gamma    90

_symmetry_space_group_name_H-M    "P 1"
_symmetry_int_tables_number       1

loop_
  _symmetry_equiv_pos_as_xyz
  'x, y, z'

loop_
  _atom_site_label
  _atom_site_occupancy
  _atom_site_fract_x
  _atom_site_fract_y
  _atom_site_fract_z
  _atom_site_thermal_displace_type
  _atom_site_B_iso_or_equiv
  _atom_site_type_symbol
  Cu1      1.0000 0.30940  0.29937  0.42380  Biso   1.000  Cu
  Cu2      1.0000 0.30940  0.70063  0.92380  Biso   1.000  Cu
  Cu3      1.0000 0.80940  0.79937  0.42380  Biso   1.000  Cu
  Cu4      1.0000 0.80940  0.20063  0.92380  Biso   1.000  Cu
  S1       1.0000 0.31220  0.36042  0.92360  Biso   1.000  S
  S2       1.0000 0.31220  0.63958  0.42360  Biso   1.000  S
  S3       1.0000 0.81220  0.86042  0.92360  Biso   1.000  S
  S4       1.0000 0.81220  0.13958  0.42360  Biso   1.000  S
  O1       1.0000 0.23250  0.42250  0.79750  Biso   1.000  O
  O2       1.0000 0.23250  0.57750  0.29750  Biso   1.000  O
  O3       1.0000 0.73250  0.92250  0.79750  Biso   1.000  O
  O4       1.0000 0.73250  0.07750  0.29750  Biso   1.000  O
  O5       1.0000 0.38700  0.42580  0.05200  Biso   1.000  O
  O6       1.0000 0.38700  0.57420  0.55200  Biso   1.000  O
  O7       1.0000 0.88700  0.92580  0.05200  Biso   1.000  O
  O8       1.0000 0.88700  0.07420  0.55200  Biso   1.000  O
  O9       1.0000 0.34570  0.30380  0.79000  Biso   1.000  O
  O10      1.0000 0.34570  0.69620  0.29000  Biso   1.000  O
  O11      1.0000 0.84570  0.80380  0.79000  Biso   1.000  O
  O12      1.0000 0.84570  0.19620  0.29000  Biso   1.000  O
  O13      1.0000 0.27230  0.29950  0.05380  Biso   1.000  O
  O14      1.0000 0.27230  0.70050  0.55380  Biso   1.000  O
  O15      1.0000 0.77230  0.79950  0.05380  Biso   1.000  O
  O16      1.0000 0.77230  0.20050  0.55380  Biso   1.000  O
  O17      1.0000 0.40720  0.39460  0.42940  Biso   1.000  O
  O18      1.0000 0.40720  0.60540  0.92940  Biso   1.000  O
  O19      1.0000 0.90720  0.89460  0.42940  Biso   1.000  O
  O20      1.0000 0.90720  0.10540  0.92940  Biso   1.000  O
  O21      1.0000 0.21160  0.40010  0.41630  Biso   1.000  O
  O22      1.0000 0.21160  0.59990  0.91630  Biso   1.000  O
  O23      1.0000 0.71160  0.90010  0.41630  Biso   1.000  O
  O24      1.0000 0.71160  0.09990  0.91630  Biso   1.000  O
  N1       1.0000 0.21990  0.18560  0.41260  Biso   1.000  N
  N2       1.0000 0.21990  0.81440  0.91260  Biso   1.000  N
  N3       1.0000 0.71990  0.68560  0.41260  Biso   1.000  N
  N4       1.0000 0.71990  0.31440  0.91260  Biso   1.000  N
  N5       1.0000 0.39980  0.19380  0.43940  Biso   1.000  N
  N6       1.0000 0.39980  0.80620  0.93940  Biso   1.000  N
  N7       1.0000 0.89980  0.69380  0.43940  Biso   1.000  N
  N8       1.0000 0.89980  0.30620  0.93940  Biso   1.000  N
  C1       1.0000 0.12550  0.18870  0.40100  Biso   1.000  C
  C2       1.0000 0.12550  0.81130  0.90100  Biso   1.000  C
  C3       1.0000 0.62550  0.68870  0.40100  Biso   1.000  C
  C4       1.0000 0.62550  0.31130  0.90100  Biso   1.000  C
  H1       1.0000 0.09670  0.24840  0.39940  Biso   1.000  H
  H2       1.0000 0.09670  0.75160  0.89940  Biso   1.000  H
  H3       1.0000 0.59670  0.74840  0.39940  Biso   1.000  H
  H4       1.0000 0.59670  0.25160  0.89940  Biso   1.000  H
  C5       1.0000 0.07360  0.10720  0.39170  Biso   1.000  C
  C6       1.0000 0.07360  0.89280  0.89170  Biso   1.000  C
  C7       1.0000 0.57360  0.60720  0.39170  Biso   1.000  C
  C8       1.0000 0.57360  0.39280  0.89170  Biso   1.000  C
  H5       1.0000 0.00950  0.11100  0.37810  Biso   1.000  H
  H6       1.0000 0.00950  0.88900  0.87810  Biso   1.000  H
  H7       1.0000 0.50950  0.61100  0.37810  Biso   1.000  H
  H8       1.0000 0.50950  0.38900  0.87810  Biso   1.000  H
  C9       1.0000 0.11430  0.02480  0.40210  Biso   1.000  C
  C10      1.0000 0.11430  0.97520  0.90210  Biso   1.000  C
  C11      1.0000 0.61430  0.52480  0.40210  Biso   1.000  C
  C12      1.0000 0.61430  0.47520  0.90210  Biso   1.000  C
  H9       1.0000 0.07870  0.96950  0.40020  Biso   1.000  H
  H10      1.0000 0.07870  0.03050  0.90020  Biso   1.000  H
  H11      1.0000 0.57870  0.46950  0.40020  Biso   1.000  H
  H12      1.0000 0.57870  0.53050  0.90020  Biso   1.000  H
  C13      1.0000 0.21430  0.01350  0.41690  Biso   1.000  C
  C14      1.0000 0.21430  0.98650  0.91690  Biso   1.000  C
  C15      1.0000 0.71430  0.51350  0.41690  Biso   1.000  C
  C16      1.0000 0.71430  0.48650  0.91690  Biso   1.000  C
  C17      1.0000 0.26240  0.92170  0.41790  Biso   1.000  C
  C18      1.0000 0.26240  0.07830  0.91790  Biso   1.000  C
  C19      1.0000 0.76240  0.42170  0.41790  Biso   1.000  C
  C20      1.0000 0.76240  0.57830  0.91790  Biso   1.000  C
  H13      1.0000 0.23360  0.86170  0.41210  Biso   1.000  H
  H14      1.0000 0.23360  0.13830  0.91210  Biso   1.000  H
  H15      1.0000 0.73360  0.36170  0.41210  Biso   1.000  H
  H16      1.0000 0.73360  0.63830  0.91210  Biso   1.000  H
  C21      1.0000 0.35490  0.93430  0.42820  Biso   1.000  C
  C22      1.0000 0.35490  0.06570  0.92820  Biso   1.000  C
  C23      1.0000 0.85490  0.43430  0.42820  Biso   1.000  C
  C24      1.0000 0.85490  0.56570  0.92820  Biso   1.000  C
  H17      1.0000 0.38720  0.87720  0.42450  Biso   1.000  H
  H18      1.0000 0.38720  0.12280  0.92450  Biso   1.000  H
  H19      1.0000 0.88720  0.37720  0.42450  Biso   1.000  H
  H20      1.0000 0.88720  0.62280  0.92450  Biso   1.000  H
  C25      1.0000 0.40830  0.01610  0.44290  Biso   1.000  C
  C26      1.0000 0.40830  0.98390  0.94290  Biso   1.000  C
  C27      1.0000 0.90830  0.51610  0.44290  Biso   1.000  C
  C28      1.0000 0.90830  0.48390  0.94290  Biso   1.000  C
  C29      1.0000 0.50060  0.01840  0.45290  Biso   1.000  C
  C30      1.0000 0.50060  0.98160  0.95290  Biso   1.000  C
  C31      1.0000 0.00060  0.51840  0.45290  Biso   1.000  C
  C32      1.0000 0.00060  0.48160  0.95290  Biso   1.000  C
  H21      1.0000 0.53530  0.96200  0.46070  Biso   1.000  H
  H22      1.0000 0.53530  0.03800  0.96070  Biso   1.000  H
  H23      1.0000 0.03530  0.46200  0.46070  Biso   1.000  H
  H24      1.0000 0.03530  0.53800  0.96070  Biso   1.000  H
  C33      1.0000 0.54210  0.11060  0.45080  Biso   1.000  C
  C34      1.0000 0.54210  0.88940  0.95080  Biso   1.000  C
  C35      1.0000 0.04210  0.61060  0.45080  Biso   1.000  C
  C36      1.0000 0.04210  0.38940  0.95080  Biso   1.000  C
  H25      1.0000 0.60450  0.11550  0.45170  Biso   1.000  H
  H26      1.0000 0.60450  0.88450  0.95170  Biso   1.000  H
  H27      1.0000 0.10450  0.61550  0.45170  Biso   1.000  H
  H28      1.0000 0.10450  0.38450  0.95170  Biso   1.000  H
  C37      1.0000 0.48740  0.19560  0.44720  Biso   1.000  C
  C38      1.0000 0.48740  0.80440  0.94720  Biso   1.000  C
  C39      1.0000 0.98740  0.69560  0.44720  Biso   1.000  C
  C40      1.0000 0.98740  0.30440  0.94720  Biso   1.000  C
  H29      1.0000 0.51640  0.25530  0.45070  Biso   1.000  H
  H30      1.0000 0.51640  0.74470  0.95070  Biso   1.000  H
  H31      1.0000 0.01640  0.75530  0.45070  Biso   1.000  H
  H32      1.0000 0.01640  0.24470  0.95070  Biso   1.000  H
  C41      1.0000 0.36480  0.10130  0.42880  Biso   1.000  C
  C42      1.0000 0.36480  0.89870  0.92880  Biso   1.000  C
  C43      1.0000 0.86480  0.60130  0.42880  Biso   1.000  C
  C44      1.0000 0.86480  0.39870  0.92880  Biso   1.000  C
  C45      1.0000 0.26820  0.10050  0.41500  Biso   1.000  C
  C46      1.0000 0.26820  0.89950  0.91500  Biso   1.000  C
  C47      1.0000 0.76820  0.60050  0.41500  Biso   1.000  C
  C48      1.0000 0.76820  0.39950  0.91500  Biso   1.000  C
