data_image0
_cell_length_a       14.8626
_cell_length_b       13.8218
_cell_length_c       7.0103
_cell_angle_alpha    90
_cell_angle_beta     109.032
_cell_angle_gamma    90

_symmetry_space_group_name_H-M    "P 1"
_symmetry_int_tables_number       1

loop_
  _symmetry_equiv_pos_as_xyz
  'x, y, z'

loop_
  _atom_site_label
  _atom_site_occupancy
  _atom_site_fract_x
  _atom_site_fract_y
  _atom_site_fract_z
  _atom_site_thermal_displace_type
  _atom_site_B_iso_or_equiv
  _atom_site_type_symbol
  Cu1      1.0000 0.00000  0.20102  0.25000  Biso   1.000  Cu
  Cu2      1.0000 0.50000  0.70102  0.25000  Biso   1.000  Cu
  Cu3      1.0000 0.00000  0.79898  0.75000  Biso   1.000  Cu
  Cu4      1.0000 0.50000  0.29898  0.75000  Biso   1.000  Cu
  N1       1.0000 0.09070  0.31069  0.26340  Biso   1.000  N
  N2       1.0000 0.90930  0.31069  0.23660  Biso   1.000  N
  N3       1.0000 0.59070  0.81069  0.26340  Biso   1.000  N
  N4       1.0000 0.40930  0.81069  0.23660  Biso   1.000  N
  N5       1.0000 0.90930  0.68931  0.73660  Biso   1.000  N
  N6       1.0000 0.09070  0.68931  0.76340  Biso   1.000  N
  N7       1.0000 0.40930  0.18931  0.73660  Biso   1.000  N
  N8       1.0000 0.59070  0.18931  0.76340  Biso   1.000  N
  C1       1.0000 0.04910  0.39860  0.25760  Biso   1.000  C
  C2       1.0000 0.95090  0.39860  0.24240  Biso   1.000  C
  C3       1.0000 0.54910  0.89860  0.25760  Biso   1.000  C
  C4       1.0000 0.45090  0.89860  0.24240  Biso   1.000  C
  C5       1.0000 0.95090  0.60140  0.74240  Biso   1.000  C
  C6       1.0000 0.04910  0.60140  0.75760  Biso   1.000  C
  C7       1.0000 0.45090  0.10140  0.74240  Biso   1.000  C
  C8       1.0000 0.54910  0.10140  0.75760  Biso   1.000  C
  C9       1.0000 0.09690  0.48600  0.26270  Biso   1.000  C
  C10      1.0000 0.90310  0.48600  0.23730  Biso   1.000  C
  C11      1.0000 0.59690  0.98600  0.26270  Biso   1.000  C
  C12      1.0000 0.40310  0.98600  0.23730  Biso   1.000  C
  C13      1.0000 0.90310  0.51400  0.73730  Biso   1.000  C
  C14      1.0000 0.09690  0.51400  0.76270  Biso   1.000  C
  C15      1.0000 0.40310  0.01400  0.73730  Biso   1.000  C
  C16      1.0000 0.59690  0.01400  0.76270  Biso   1.000  C
  C17      1.0000 0.19360  0.47920  0.27440  Biso   1.000  C
  C18      1.0000 0.80640  0.47920  0.22560  Biso   1.000  C
  C19      1.0000 0.69360  0.97920  0.27440  Biso   1.000  C
  C20      1.0000 0.30640  0.97920  0.22560  Biso   1.000  C
  C21      1.0000 0.80640  0.52080  0.72560  Biso   1.000  C
  C22      1.0000 0.19360  0.52080  0.77440  Biso   1.000  C
  C23      1.0000 0.30640  0.02080  0.72560  Biso   1.000  C
  C24      1.0000 0.69360  0.02080  0.77440  Biso   1.000  C
  H1       1.0000 0.22930  0.53570  0.27870  Biso   1.000  H
  H2       1.0000 0.77070  0.53570  0.22130  Biso   1.000  H
  H3       1.0000 0.72930  0.03570  0.27870  Biso   1.000  H
  H4       1.0000 0.27070  0.03570  0.22130  Biso   1.000  H
  H5       1.0000 0.77070  0.46430  0.72130  Biso   1.000  H
  H6       1.0000 0.22930  0.46430  0.77870  Biso   1.000  H
  H7       1.0000 0.27070  0.96430  0.72130  Biso   1.000  H
  H8       1.0000 0.72930  0.96430  0.77870  Biso   1.000  H
  C25      1.0000 0.18110  0.30790  0.27280  Biso   1.000  C
  C26      1.0000 0.81890  0.30790  0.22720  Biso   1.000  C
  C27      1.0000 0.68110  0.80790  0.27280  Biso   1.000  C
  C28      1.0000 0.31890  0.80790  0.22720  Biso   1.000  C
  C29      1.0000 0.81890  0.69210  0.72720  Biso   1.000  C
  C30      1.0000 0.18110  0.69210  0.77280  Biso   1.000  C
  C31      1.0000 0.31890  0.19210  0.72720  Biso   1.000  C
  C32      1.0000 0.68110  0.19210  0.77280  Biso   1.000  C
  H9       1.0000 0.21030  0.24740  0.27500  Biso   1.000  H
  H10      1.0000 0.78970  0.24740  0.22500  Biso   1.000  H
  H11      1.0000 0.71030  0.74740  0.27500  Biso   1.000  H
  H12      1.0000 0.28970  0.74740  0.22500  Biso   1.000  H
  H13      1.0000 0.78970  0.75260  0.72500  Biso   1.000  H
  H14      1.0000 0.21030  0.75260  0.77500  Biso   1.000  H
  H15      1.0000 0.28970  0.25260  0.72500  Biso   1.000  H
  H16      1.0000 0.71030  0.25260  0.77500  Biso   1.000  H
  C33      1.0000 0.23480  0.39150  0.27950  Biso   1.000  C
  C34      1.0000 0.76520  0.39150  0.22050  Biso   1.000  C
  C35      1.0000 0.73480  0.89150  0.27950  Biso   1.000  C
  C36      1.0000 0.26520  0.89150  0.22050  Biso   1.000  C
  C37      1.0000 0.76520  0.60850  0.72050  Biso   1.000  C
  C38      1.0000 0.23480  0.60850  0.77950  Biso   1.000  C
  C39      1.0000 0.26520  0.10850  0.72050  Biso   1.000  C
  C40      1.0000 0.73480  0.10850  0.77950  Biso   1.000  C
  H17      1.0000 0.29910  0.38700  0.28740  Biso   1.000  H
  H18      1.0000 0.70090  0.38700  0.21260  Biso   1.000  H
  H19      1.0000 0.79910  0.88700  0.28740  Biso   1.000  H
  H20      1.0000 0.20090  0.88700  0.21260  Biso   1.000  H
  H21      1.0000 0.70090  0.61300  0.71260  Biso   1.000  H
  H22      1.0000 0.29910  0.61300  0.78740  Biso   1.000  H
  H23      1.0000 0.20090  0.11300  0.71260  Biso   1.000  H
  H24      1.0000 0.79910  0.11300  0.78740  Biso   1.000  H
  S1       1.0000 0.00000  0.13926  0.75000  Biso   1.000  S
  S2       1.0000 0.50000  0.63926  0.75000  Biso   1.000  S
  S3       1.0000 0.00000  0.86074  0.25000  Biso   1.000  S
  S4       1.0000 0.50000  0.36074  0.25000  Biso   1.000  S
  O1       1.0000 0.96302  0.19818  0.88120  Biso   1.000  O
  O2       1.0000 0.03698  0.19818  0.61880  Biso   1.000  O
  O3       1.0000 0.46302  0.69818  0.88120  Biso   1.000  O
  O4       1.0000 0.53698  0.69818  0.61880  Biso   1.000  O
  O5       1.0000 0.03698  0.80182  0.11880  Biso   1.000  O
  O6       1.0000 0.96302  0.80182  0.38120  Biso   1.000  O
  O7       1.0000 0.53698  0.30182  0.11880  Biso   1.000  O
  O8       1.0000 0.46302  0.30182  0.38120  Biso   1.000  O
  O9       1.0000 0.07710  0.07521  0.87890  Biso   1.000  O
  O10      1.0000 0.92290  0.07521  0.62110  Biso   1.000  O
  O11      1.0000 0.57710  0.57521  0.87890  Biso   1.000  O
  O12      1.0000 0.42290  0.57521  0.62110  Biso   1.000  O
  O13      1.0000 0.92290  0.92479  0.12110  Biso   1.000  O
  O14      1.0000 0.07710  0.92479  0.37890  Biso   1.000  O
  O15      1.0000 0.42290  0.42479  0.12110  Biso   1.000  O
  O16      1.0000 0.57710  0.42479  0.37890  Biso   1.000  O
  O17      1.0000 0.90196  0.10375  0.24110  Biso   1.000  O
  O18      1.0000 0.09804  0.10375  0.25890  Biso   1.000  O
  O19      1.0000 0.40196  0.60375  0.24110  Biso   1.000  O
  O20      1.0000 0.59804  0.60375  0.25890  Biso   1.000  O
  O21      1.0000 0.09804  0.89625  0.75890  Biso   1.000  O
  O22      1.0000 0.90196  0.89625  0.74110  Biso   1.000  O
  O23      1.0000 0.59804  0.39625  0.75890  Biso   1.000  O
  O24      1.0000 0.40196  0.39625  0.74110  Biso   1.000  O
  H25      1.0000 0.90310  0.09130  0.35770  Biso   1.000  H
  H26      1.0000 0.09690  0.09130  0.14230  Biso   1.000  H
  H27      1.0000 0.40310  0.59130  0.35770  Biso   1.000  H
  H28      1.0000 0.59690  0.59130  0.14230  Biso   1.000  H
  H29      1.0000 0.09690  0.90870  0.64230  Biso   1.000  H
  H30      1.0000 0.90310  0.90870  0.85770  Biso   1.000  H
  H31      1.0000 0.59690  0.40870  0.64230  Biso   1.000  H
  H32      1.0000 0.40310  0.40870  0.85770  Biso   1.000  H
  C41      1.0000 0.04620  0.57440  0.25660  Biso   1.000  C
  C42      1.0000 0.95380  0.57440  0.24340  Biso   1.000  C
  C43      1.0000 0.54620  0.07440  0.25660  Biso   1.000  C
  C44      1.0000 0.45380  0.07440  0.24340  Biso   1.000  C
  C45      1.0000 0.95380  0.42560  0.74340  Biso   1.000  C
  C46      1.0000 0.04620  0.42560  0.75660  Biso   1.000  C
  C47      1.0000 0.45380  0.92560  0.74340  Biso   1.000  C
  C48      1.0000 0.54620  0.92560  0.75660  Biso   1.000  C
  H33      1.0000 0.07790  0.63370  0.26180  Biso   1.000  H
  H34      1.0000 0.92210  0.63370  0.23820  Biso   1.000  H
  H35      1.0000 0.57790  0.13370  0.26180  Biso   1.000  H
  H36      1.0000 0.42210  0.13370  0.23820  Biso   1.000  H
  H37      1.0000 0.92210  0.36630  0.73820  Biso   1.000  H
  H38      1.0000 0.07790  0.36630  0.76180  Biso   1.000  H
  H39      1.0000 0.42210  0.86630  0.73820  Biso   1.000  H
  H40      1.0000 0.57790  0.86630  0.76180  Biso   1.000  H
  H41      1.0000 0.91400  0.04900  0.19800  Biso   1.000  H
  H42      1.0000 0.08600  0.04900  0.30200  Biso   1.000  H
  H43      1.0000 0.41400  0.54900  0.19800  Biso   1.000  H
  H44      1.0000 0.58600  0.54900  0.30200  Biso   1.000  H
  H45      1.0000 0.08600  0.95100  0.80200  Biso   1.000  H
  H46      1.0000 0.91400  0.95100  0.69800  Biso   1.000  H
  H47      1.0000 0.58600  0.45100  0.80200  Biso   1.000  H
  H48      1.0000 0.41400  0.45100  0.69800  Biso   1.000  H
