data_image0
_cell_length_a       14.876
_cell_length_b       13.839
_cell_length_c       7.0214
_cell_angle_alpha    90
_cell_angle_beta     108.624
_cell_angle_gamma    90

_symmetry_space_group_name_H-M    "P 1"
_symmetry_int_tables_number       1

loop_
  _symmetry_equiv_pos_as_xyz
  'x, y, z'

loop_
  _atom_site_label
  _atom_site_occupancy
  _atom_site_fract_x
  _atom_site_fract_y
  _atom_site_fract_z
  _atom_site_thermal_displace_type
  _atom_site_B_iso_or_equiv
  _atom_site_type_symbol
  Cu1      1.0000 0.50000  0.79928  0.75000  Biso   1.000  Cu
  Cu2      1.0000 0.00000  0.29928  0.75000  Biso   1.000  Cu
  Cu3      1.0000 0.50000  0.20072  0.25000  Biso   1.000  Cu
  Cu4      1.0000 0.00000  0.70072  0.25000  Biso   1.000  Cu
  S1       1.0000 0.50000  0.86073  0.25000  Biso   1.000  S
  S2       1.0000 0.00000  0.36073  0.25000  Biso   1.000  S
  S3       1.0000 0.50000  0.13927  0.75000  Biso   1.000  S
  S4       1.0000 0.00000  0.63927  0.75000  Biso   1.000  S
  O1       1.0000 0.59760  0.89706  0.75640  Biso   1.000  O
  O2       1.0000 0.40240  0.89706  0.74360  Biso   1.000  O
  O3       1.0000 0.09760  0.39706  0.75640  Biso   1.000  O
  O4       1.0000 0.90240  0.39706  0.74360  Biso   1.000  O
  O5       1.0000 0.40240  0.10294  0.24360  Biso   1.000  O
  O6       1.0000 0.59760  0.10294  0.25640  Biso   1.000  O
  O7       1.0000 0.90240  0.60294  0.24360  Biso   1.000  O
  O8       1.0000 0.09760  0.60294  0.25640  Biso   1.000  O
  O9       1.0000 0.53700  0.80183  0.11870  Biso   1.000  O
  O10      1.0000 0.46300  0.80183  0.38130  Biso   1.000  O
  O11      1.0000 0.03700  0.30183  0.11870  Biso   1.000  O
  O12      1.0000 0.96300  0.30183  0.38130  Biso   1.000  O
  O13      1.0000 0.46300  0.19817  0.88130  Biso   1.000  O
  O14      1.0000 0.53700  0.19817  0.61870  Biso   1.000  O
  O15      1.0000 0.96300  0.69817  0.88130  Biso   1.000  O
  O16      1.0000 0.03700  0.69817  0.61870  Biso   1.000  O
  O17      1.0000 0.57680  0.92400  0.37730  Biso   1.000  O
  O18      1.0000 0.42320  0.92400  0.12270  Biso   1.000  O
  O19      1.0000 0.07680  0.42400  0.37730  Biso   1.000  O
  O20      1.0000 0.92320  0.42400  0.12270  Biso   1.000  O
  O21      1.0000 0.42320  0.07600  0.62270  Biso   1.000  O
  O22      1.0000 0.57680  0.07600  0.87730  Biso   1.000  O
  O23      1.0000 0.92320  0.57600  0.62270  Biso   1.000  O
  O24      1.0000 0.07680  0.57600  0.87730  Biso   1.000  O
  N1       1.0000 0.40960  0.68980  0.73680  Biso   1.000  N
  N2       1.0000 0.59040  0.68980  0.76320  Biso   1.000  N
  N3       1.0000 0.90960  0.18980  0.73680  Biso   1.000  N
  N4       1.0000 0.09040  0.18980  0.76320  Biso   1.000  N
  N5       1.0000 0.59040  0.31020  0.26320  Biso   1.000  N
  N6       1.0000 0.40960  0.31020  0.23680  Biso   1.000  N
  N7       1.0000 0.09040  0.81020  0.26320  Biso   1.000  N
  N8       1.0000 0.90960  0.81020  0.23680  Biso   1.000  N
  C1       1.0000 0.31890  0.69270  0.72700  Biso   1.000  C
  C2       1.0000 0.68110  0.69270  0.77300  Biso   1.000  C
  C3       1.0000 0.81890  0.19270  0.72700  Biso   1.000  C
  C4       1.0000 0.18110  0.19270  0.77300  Biso   1.000  C
  C5       1.0000 0.68110  0.30730  0.27300  Biso   1.000  C
  C6       1.0000 0.31890  0.30730  0.22700  Biso   1.000  C
  C7       1.0000 0.18110  0.80730  0.27300  Biso   1.000  C
  C8       1.0000 0.81890  0.80730  0.22700  Biso   1.000  C
  H1       1.0000 0.29000  0.75250  0.72450  Biso   1.000  H
  H2       1.0000 0.71000  0.75250  0.77550  Biso   1.000  H
  H3       1.0000 0.79000  0.25250  0.72450  Biso   1.000  H
  H4       1.0000 0.21000  0.25250  0.77550  Biso   1.000  H
  H5       1.0000 0.71000  0.24750  0.27550  Biso   1.000  H
  H6       1.0000 0.29000  0.24750  0.22450  Biso   1.000  H
  H7       1.0000 0.21000  0.74750  0.27550  Biso   1.000  H
  H8       1.0000 0.79000  0.74750  0.22450  Biso   1.000  H
  C9       1.0000 0.26550  0.60900  0.72040  Biso   1.000  C
  C10      1.0000 0.73450  0.60900  0.77960  Biso   1.000  C
  C11      1.0000 0.76550  0.10900  0.72040  Biso   1.000  C
  C12      1.0000 0.23450  0.10900  0.77960  Biso   1.000  C
  C13      1.0000 0.73450  0.39100  0.27960  Biso   1.000  C
  C14      1.0000 0.26550  0.39100  0.22040  Biso   1.000  C
  C15      1.0000 0.23450  0.89100  0.27960  Biso   1.000  C
  C16      1.0000 0.76550  0.89100  0.22040  Biso   1.000  C
  H9       1.0000 0.20210  0.61340  0.71340  Biso   1.000  H
  H10      1.0000 0.79790  0.61340  0.78660  Biso   1.000  H
  H11      1.0000 0.70210  0.11340  0.71340  Biso   1.000  H
  H12      1.0000 0.29790  0.11340  0.78660  Biso   1.000  H
  H13      1.0000 0.79790  0.38660  0.28660  Biso   1.000  H
  H14      1.0000 0.20210  0.38660  0.21340  Biso   1.000  H
  H15      1.0000 0.29790  0.88660  0.28660  Biso   1.000  H
  H16      1.0000 0.70210  0.88660  0.21340  Biso   1.000  H
  C17      1.0000 0.30670  0.52100  0.72440  Biso   1.000  C
  C18      1.0000 0.69330  0.52100  0.77560  Biso   1.000  C
  C19      1.0000 0.80670  0.02100  0.72440  Biso   1.000  C
  C20      1.0000 0.19330  0.02100  0.77560  Biso   1.000  C
  C21      1.0000 0.69330  0.47900  0.27560  Biso   1.000  C
  C22      1.0000 0.30670  0.47900  0.22440  Biso   1.000  C
  C23      1.0000 0.19330  0.97900  0.27560  Biso   1.000  C
  C24      1.0000 0.80670  0.97900  0.22440  Biso   1.000  C
  H17      1.0000 0.27150  0.46500  0.71940  Biso   1.000  H
  H18      1.0000 0.72850  0.46500  0.78060  Biso   1.000  H
  H19      1.0000 0.77150  0.96500  0.71940  Biso   1.000  H
  H20      1.0000 0.22850  0.96500  0.78060  Biso   1.000  H
  H21      1.0000 0.72850  0.53500  0.28060  Biso   1.000  H
  H22      1.0000 0.27150  0.53500  0.21940  Biso   1.000  H
  H23      1.0000 0.22850  0.03500  0.28060  Biso   1.000  H
  H24      1.0000 0.77150  0.03500  0.21940  Biso   1.000  H
  C25      1.0000 0.40270  0.51480  0.73620  Biso   1.000  C
  C26      1.0000 0.59730  0.51480  0.76380  Biso   1.000  C
  C27      1.0000 0.90270  0.01480  0.73620  Biso   1.000  C
  C28      1.0000 0.09730  0.01480  0.76380  Biso   1.000  C
  C29      1.0000 0.59730  0.48520  0.26380  Biso   1.000  C
  C30      1.0000 0.40270  0.48520  0.23620  Biso   1.000  C
  C31      1.0000 0.09730  0.98520  0.26380  Biso   1.000  C
  C32      1.0000 0.90270  0.98520  0.23620  Biso   1.000  C
  C33      1.0000 0.45110  0.60190  0.74280  Biso   1.000  C
  C34      1.0000 0.54890  0.60190  0.75720  Biso   1.000  C
  C35      1.0000 0.95110  0.10190  0.74280  Biso   1.000  C
  C36      1.0000 0.04890  0.10190  0.75720  Biso   1.000  C
  C37      1.0000 0.54890  0.39810  0.25720  Biso   1.000  C
  C38      1.0000 0.45110  0.39810  0.24280  Biso   1.000  C
  C39      1.0000 0.04890  0.89810  0.25720  Biso   1.000  C
  C40      1.0000 0.95110  0.89810  0.24280  Biso   1.000  C
  C41      1.0000 0.45420  0.42590  0.74440  Biso   1.000  C
  C42      1.0000 0.54580  0.42590  0.75560  Biso   1.000  C
  C43      1.0000 0.95420  0.92590  0.74440  Biso   1.000  C
  C44      1.0000 0.04580  0.92590  0.75560  Biso   1.000  C
  C45      1.0000 0.54580  0.57410  0.25560  Biso   1.000  C
  C46      1.0000 0.45420  0.57410  0.24440  Biso   1.000  C
  C47      1.0000 0.04580  0.07410  0.25560  Biso   1.000  C
  C48      1.0000 0.95420  0.07410  0.24440  Biso   1.000  C
  H25      1.0000 0.42320  0.36730  0.74200  Biso   1.000  H
  H26      1.0000 0.57680  0.36730  0.75800  Biso   1.000  H
  H27      1.0000 0.92320  0.86730  0.74200  Biso   1.000  H
  H28      1.0000 0.07680  0.86730  0.75800  Biso   1.000  H
  H29      1.0000 0.57680  0.63270  0.25800  Biso   1.000  H
  H30      1.0000 0.42320  0.63270  0.24200  Biso   1.000  H
  H31      1.0000 0.07680  0.13270  0.25800  Biso   1.000  H
  H32      1.0000 0.92320  0.13270  0.24200  Biso   1.000  H
