data_image0
_cell_length_a       14.883
_cell_length_b       13.843
_cell_length_c       7.019
_cell_angle_alpha    90
_cell_angle_beta     108.6
_cell_angle_gamma    90

_symmetry_space_group_name_H-M    "P 1"
_symmetry_int_tables_number       1

loop_
  _symmetry_equiv_pos_as_xyz
  'x, y, z'

loop_
  _atom_site_label
  _atom_site_occupancy
  _atom_site_fract_x
  _atom_site_fract_y
  _atom_site_fract_z
  _atom_site_thermal_displace_type
  _atom_site_B_iso_or_equiv
  _atom_site_type_symbol
  S1       1.0000 0.00000  0.13935  0.75000  Biso   1.000  S
  S2       1.0000 0.50000  0.63935  0.75000  Biso   1.000  S
  S3       1.0000 0.00000  0.86065  0.25000  Biso   1.000  S
  S4       1.0000 0.50000  0.36065  0.25000  Biso   1.000  S
  Cu1      1.0000 0.00000  0.20066  0.25000  Biso   1.000  Cu
  Cu2      1.0000 0.50000  0.70066  0.25000  Biso   1.000  Cu
  Cu3      1.0000 0.00000  0.79934  0.75000  Biso   1.000  Cu
  Cu4      1.0000 0.50000  0.29934  0.75000  Biso   1.000  Cu
  C1       1.0000 0.04870  0.39820  0.25760  Biso   1.000  C
  C2       1.0000 0.54870  0.89820  0.25760  Biso   1.000  C
  C3       1.0000 0.95130  0.39820  0.24240  Biso   1.000  C
  C4       1.0000 0.45130  0.89820  0.24240  Biso   1.000  C
  C5       1.0000 0.95130  0.60180  0.74240  Biso   1.000  C
  C6       1.0000 0.45130  0.10180  0.74240  Biso   1.000  C
  C7       1.0000 0.04870  0.60180  0.75760  Biso   1.000  C
  C8       1.0000 0.54870  0.10180  0.75760  Biso   1.000  C
  N1       1.0000 0.09040  0.31020  0.26290  Biso   1.000  N
  N2       1.0000 0.59040  0.81020  0.26290  Biso   1.000  N
  N3       1.0000 0.90960  0.31020  0.23710  Biso   1.000  N
  N4       1.0000 0.40960  0.81020  0.23710  Biso   1.000  N
  N5       1.0000 0.90960  0.68980  0.73710  Biso   1.000  N
  N6       1.0000 0.40960  0.18980  0.73710  Biso   1.000  N
  N7       1.0000 0.09040  0.68980  0.76290  Biso   1.000  N
  N8       1.0000 0.59040  0.18980  0.76290  Biso   1.000  N
  C9       1.0000 0.04620  0.57410  0.25610  Biso   1.000  C
  C10      1.0000 0.54620  0.07410  0.25610  Biso   1.000  C
  C11      1.0000 0.95380  0.57410  0.24390  Biso   1.000  C
  C12      1.0000 0.45380  0.07410  0.24390  Biso   1.000  C
  C13      1.0000 0.95380  0.42590  0.74390  Biso   1.000  C
  C14      1.0000 0.45380  0.92590  0.74390  Biso   1.000  C
  C15      1.0000 0.04620  0.42590  0.75610  Biso   1.000  C
  C16      1.0000 0.54620  0.92590  0.75610  Biso   1.000  C
  C17      1.0000 0.18110  0.30750  0.27370  Biso   1.000  C
  C18      1.0000 0.68110  0.80750  0.27370  Biso   1.000  C
  C19      1.0000 0.81890  0.30750  0.22630  Biso   1.000  C
  C20      1.0000 0.31890  0.80750  0.22630  Biso   1.000  C
  C21      1.0000 0.81890  0.69250  0.72630  Biso   1.000  C
  C22      1.0000 0.31890  0.19250  0.72630  Biso   1.000  C
  C23      1.0000 0.18110  0.69250  0.77370  Biso   1.000  C
  C24      1.0000 0.68110  0.19250  0.77370  Biso   1.000  C
  H1       1.0000 0.07800  0.63500  0.25800  Biso   1.000  H
  H2       1.0000 0.57800  0.13500  0.25800  Biso   1.000  H
  H3       1.0000 0.92200  0.63500  0.24200  Biso   1.000  H
  H4       1.0000 0.42200  0.13500  0.24200  Biso   1.000  H
  H5       1.0000 0.92200  0.36500  0.74200  Biso   1.000  H
  H6       1.0000 0.42200  0.86500  0.74200  Biso   1.000  H
  H7       1.0000 0.07800  0.36500  0.75800  Biso   1.000  H
  H8       1.0000 0.57800  0.86500  0.75800  Biso   1.000  H
  H9       1.0000 0.20500  0.24500  0.26900  Biso   1.000  H
  H10      1.0000 0.70500  0.74500  0.26900  Biso   1.000  H
  H11      1.0000 0.79500  0.24500  0.23100  Biso   1.000  H
  H12      1.0000 0.29500  0.74500  0.23100  Biso   1.000  H
  H13      1.0000 0.79500  0.75500  0.73100  Biso   1.000  H
  H14      1.0000 0.29500  0.25500  0.73100  Biso   1.000  H
  H15      1.0000 0.20500  0.75500  0.76900  Biso   1.000  H
  H16      1.0000 0.70500  0.25500  0.76900  Biso   1.000  H
  C25      1.0000 0.23470  0.39140  0.28010  Biso   1.000  C
  C26      1.0000 0.73470  0.89140  0.28010  Biso   1.000  C
  C27      1.0000 0.76530  0.39140  0.21990  Biso   1.000  C
  C28      1.0000 0.26530  0.89140  0.21990  Biso   1.000  C
  C29      1.0000 0.76530  0.60860  0.71990  Biso   1.000  C
  C30      1.0000 0.26530  0.10860  0.71990  Biso   1.000  C
  C31      1.0000 0.23470  0.60860  0.78010  Biso   1.000  C
  C32      1.0000 0.73470  0.10860  0.78010  Biso   1.000  C
  O1       1.0000 0.03710  0.19840  0.61870  Biso   1.000  O
  O2       1.0000 0.53710  0.69840  0.61870  Biso   1.000  O
  O3       1.0000 0.96290  0.19840  0.88130  Biso   1.000  O
  O4       1.0000 0.46290  0.69840  0.88130  Biso   1.000  O
  O5       1.0000 0.96290  0.80160  0.38130  Biso   1.000  O
  O6       1.0000 0.46290  0.30160  0.38130  Biso   1.000  O
  O7       1.0000 0.03710  0.80160  0.11870  Biso   1.000  O
  O8       1.0000 0.53710  0.30160  0.11870  Biso   1.000  O
  H17      1.0000 0.29200  0.38800  0.29100  Biso   1.000  H
  H18      1.0000 0.79200  0.88800  0.29100  Biso   1.000  H
  H19      1.0000 0.70800  0.38800  0.20900  Biso   1.000  H
  H20      1.0000 0.20800  0.88800  0.20900  Biso   1.000  H
  H21      1.0000 0.70800  0.61200  0.70900  Biso   1.000  H
  H22      1.0000 0.20800  0.11200  0.70900  Biso   1.000  H
  H23      1.0000 0.29200  0.61200  0.79100  Biso   1.000  H
  H24      1.0000 0.79200  0.11200  0.79100  Biso   1.000  H
  O9       1.0000 0.07680  0.07570  0.87710  Biso   1.000  O
  O10      1.0000 0.57680  0.57570  0.87710  Biso   1.000  O
  O11      1.0000 0.92320  0.07570  0.62290  Biso   1.000  O
  O12      1.0000 0.42320  0.57570  0.62290  Biso   1.000  O
  O13      1.0000 0.92320  0.92430  0.12290  Biso   1.000  O
  O14      1.0000 0.42320  0.42430  0.12290  Biso   1.000  O
  O15      1.0000 0.07680  0.92430  0.37710  Biso   1.000  O
  O16      1.0000 0.57680  0.42430  0.37710  Biso   1.000  O
  C33      1.0000 0.19330  0.47920  0.27550  Biso   1.000  C
  C34      1.0000 0.69330  0.97920  0.27550  Biso   1.000  C
  C35      1.0000 0.80670  0.47920  0.22450  Biso   1.000  C
  C36      1.0000 0.30670  0.97920  0.22450  Biso   1.000  C
  C37      1.0000 0.80670  0.52080  0.72450  Biso   1.000  C
  C38      1.0000 0.30670  0.02080  0.72450  Biso   1.000  C
  C39      1.0000 0.19330  0.52080  0.77550  Biso   1.000  C
  C40      1.0000 0.69330  0.02080  0.77550  Biso   1.000  C
  O17      1.0000 0.90210  0.10380  0.24360  Biso   1.000  O
  O18      1.0000 0.40210  0.60380  0.24360  Biso   1.000  O
  O19      1.0000 0.09790  0.10380  0.25640  Biso   1.000  O
  O20      1.0000 0.59790  0.60380  0.25640  Biso   1.000  O
  O21      1.0000 0.09790  0.89620  0.75640  Biso   1.000  O
  O22      1.0000 0.59790  0.39620  0.75640  Biso   1.000  O
  O23      1.0000 0.90210  0.89620  0.74360  Biso   1.000  O
  O24      1.0000 0.40210  0.39620  0.74360  Biso   1.000  O
  H25      1.0000 0.23100  0.53400  0.28500  Biso   1.000  H
  H26      1.0000 0.73100  0.03400  0.28500  Biso   1.000  H
  H27      1.0000 0.76900  0.53400  0.21500  Biso   1.000  H
  H28      1.0000 0.26900  0.03400  0.21500  Biso   1.000  H
  H29      1.0000 0.76900  0.46600  0.71500  Biso   1.000  H
  H30      1.0000 0.26900  0.96600  0.71500  Biso   1.000  H
  H31      1.0000 0.23100  0.46600  0.78500  Biso   1.000  H
  H32      1.0000 0.73100  0.96600  0.78500  Biso   1.000  H
  H33      1.0000 0.91300  0.09100  0.37500  Biso   1.000  H
  H34      1.0000 0.41300  0.59100  0.37500  Biso   1.000  H
  H35      1.0000 0.08700  0.09100  0.12500  Biso   1.000  H
  H36      1.0000 0.58700  0.59100  0.12500  Biso   1.000  H
  H37      1.0000 0.08700  0.90900  0.62500  Biso   1.000  H
  H38      1.0000 0.58700  0.40900  0.62500  Biso   1.000  H
  H39      1.0000 0.91300  0.90900  0.87500  Biso   1.000  H
  H40      1.0000 0.41300  0.40900  0.87500  Biso   1.000  H
  C41      1.0000 0.09730  0.48550  0.26330  Biso   1.000  C
  C42      1.0000 0.59730  0.98550  0.26330  Biso   1.000  C
  C43      1.0000 0.90270  0.48550  0.23670  Biso   1.000  C
  C44      1.0000 0.40270  0.98550  0.23670  Biso   1.000  C
  C45      1.0000 0.90270  0.51450  0.73670  Biso   1.000  C
  C46      1.0000 0.40270  0.01450  0.73670  Biso   1.000  C
  C47      1.0000 0.09730  0.51450  0.76330  Biso   1.000  C
  C48      1.0000 0.59730  0.01450  0.76330  Biso   1.000  C
  H41      1.0000 0.91500  0.05200  0.19700  Biso   1.000  H
  H42      1.0000 0.41500  0.55200  0.19700  Biso   1.000  H
  H43      1.0000 0.08500  0.05200  0.30300  Biso   1.000  H
  H44      1.0000 0.58500  0.55200  0.30300  Biso   1.000  H
  H45      1.0000 0.08500  0.94800  0.80300  Biso   1.000  H
  H46      1.0000 0.58500  0.44800  0.80300  Biso   1.000  H
  H47      1.0000 0.91500  0.94800  0.69700  Biso   1.000  H
  H48      1.0000 0.41500  0.44800  0.69700  Biso   1.000  H
