data_image0
_cell_length_a       14.832
_cell_length_b       13.791
_cell_length_c       6.9914
_cell_angle_alpha    90
_cell_angle_beta     109.525
_cell_angle_gamma    90

_symmetry_space_group_name_H-M    "P 1"
_symmetry_int_tables_number       1

loop_
  _symmetry_equiv_pos_as_xyz
  'x, y, z'

loop_
  _atom_site_label
  _atom_site_occupancy
  _atom_site_fract_x
  _atom_site_fract_y
  _atom_site_fract_z
  _atom_site_thermal_displace_type
  _atom_site_B_iso_or_equiv
  _atom_site_type_symbol
  Cu1      1.0000 0.00000  0.20155  0.25000  Biso   1.000  Cu
  Cu2      1.0000 0.50000  0.70155  0.25000  Biso   1.000  Cu
  Cu3      1.0000 0.00000  0.79845  0.75000  Biso   1.000  Cu
  Cu4      1.0000 0.50000  0.29845  0.75000  Biso   1.000  Cu
  S1       1.0000 0.00000  0.13900  0.75000  Biso   1.000  S
  S2       1.0000 0.50000  0.63900  0.75000  Biso   1.000  S
  S3       1.0000 0.00000  0.86100  0.25000  Biso   1.000  S
  S4       1.0000 0.50000  0.36100  0.25000  Biso   1.000  S
  O1       1.0000 0.09886  0.10438  0.26100  Biso   1.000  O
  O2       1.0000 0.90114  0.10438  0.23900  Biso   1.000  O
  O3       1.0000 0.59886  0.60438  0.26100  Biso   1.000  O
  O4       1.0000 0.40114  0.60438  0.23900  Biso   1.000  O
  O5       1.0000 0.90114  0.89562  0.73900  Biso   1.000  O
  O6       1.0000 0.09886  0.89562  0.76100  Biso   1.000  O
  O7       1.0000 0.40114  0.39562  0.73900  Biso   1.000  O
  O8       1.0000 0.59886  0.39562  0.76100  Biso   1.000  O
  H1       1.0000 0.09100  0.04870  0.30200  Biso   1.000  H
  H2       1.0000 0.90900  0.04870  0.19800  Biso   1.000  H
  H3       1.0000 0.59100  0.54870  0.30200  Biso   1.000  H
  H4       1.0000 0.40900  0.54870  0.19800  Biso   1.000  H
  H5       1.0000 0.90900  0.95130  0.69800  Biso   1.000  H
  H6       1.0000 0.09100  0.95130  0.80200  Biso   1.000  H
  H7       1.0000 0.40900  0.45130  0.69800  Biso   1.000  H
  H8       1.0000 0.59100  0.45130  0.80200  Biso   1.000  H
  H9       1.0000 0.09100  0.09700  0.13600  Biso   1.000  H
  H10      1.0000 0.90900  0.09700  0.36400  Biso   1.000  H
  H11      1.0000 0.59100  0.59700  0.13600  Biso   1.000  H
  H12      1.0000 0.40900  0.59700  0.36400  Biso   1.000  H
  H13      1.0000 0.90900  0.90300  0.86400  Biso   1.000  H
  H14      1.0000 0.09100  0.90300  0.63600  Biso   1.000  H
  H15      1.0000 0.40900  0.40300  0.86400  Biso   1.000  H
  H16      1.0000 0.59100  0.40300  0.63600  Biso   1.000  H
  O9       1.0000 0.96272  0.19805  0.88070  Biso   1.000  O
  O10      1.0000 0.03728  0.19805  0.61930  Biso   1.000  O
  O11      1.0000 0.46272  0.69805  0.88070  Biso   1.000  O
  O12      1.0000 0.53728  0.69805  0.61930  Biso   1.000  O
  O13      1.0000 0.03728  0.80195  0.11930  Biso   1.000  O
  O14      1.0000 0.96272  0.80195  0.38070  Biso   1.000  O
  O15      1.0000 0.53728  0.30195  0.11930  Biso   1.000  O
  O16      1.0000 0.46272  0.30195  0.38070  Biso   1.000  O
  O17      1.0000 0.92242  0.07497  0.61970  Biso   1.000  O
  O18      1.0000 0.07758  0.07497  0.88030  Biso   1.000  O
  O19      1.0000 0.42242  0.57497  0.61970  Biso   1.000  O
  O20      1.0000 0.57758  0.57497  0.88030  Biso   1.000  O
  O21      1.0000 0.07758  0.92503  0.38030  Biso   1.000  O
  O22      1.0000 0.92242  0.92503  0.11970  Biso   1.000  O
  O23      1.0000 0.57758  0.42503  0.38030  Biso   1.000  O
  O24      1.0000 0.42242  0.42503  0.11970  Biso   1.000  O
  N1       1.0000 0.90895  0.31098  0.23640  Biso   1.000  N
  N2       1.0000 0.09105  0.31098  0.26360  Biso   1.000  N
  N3       1.0000 0.40895  0.81098  0.23640  Biso   1.000  N
  N4       1.0000 0.59105  0.81098  0.26360  Biso   1.000  N
  N5       1.0000 0.09105  0.68902  0.76360  Biso   1.000  N
  N6       1.0000 0.90895  0.68902  0.73640  Biso   1.000  N
  N7       1.0000 0.59105  0.18902  0.76360  Biso   1.000  N
  N8       1.0000 0.40895  0.18902  0.73640  Biso   1.000  N
  C1       1.0000 0.95083  0.39936  0.24290  Biso   1.000  C
  C2       1.0000 0.04917  0.39936  0.25710  Biso   1.000  C
  C3       1.0000 0.45083  0.89936  0.24290  Biso   1.000  C
  C4       1.0000 0.54917  0.89936  0.25710  Biso   1.000  C
  C5       1.0000 0.04917  0.60064  0.75710  Biso   1.000  C
  C6       1.0000 0.95083  0.60064  0.74290  Biso   1.000  C
  C7       1.0000 0.54917  0.10064  0.75710  Biso   1.000  C
  C8       1.0000 0.45083  0.10064  0.74290  Biso   1.000  C
  C9       1.0000 0.81826  0.30811  0.22680  Biso   1.000  C
  C10      1.0000 0.18174  0.30811  0.27320  Biso   1.000  C
  C11      1.0000 0.31826  0.80811  0.22680  Biso   1.000  C
  C12      1.0000 0.68174  0.80811  0.27320  Biso   1.000  C
  C13      1.0000 0.18174  0.69189  0.77320  Biso   1.000  C
  C14      1.0000 0.81826  0.69189  0.72680  Biso   1.000  C
  C15      1.0000 0.68174  0.19189  0.77320  Biso   1.000  C
  C16      1.0000 0.31826  0.19189  0.72680  Biso   1.000  C
  H17      1.0000 0.78870  0.24670  0.22350  Biso   1.000  H
  H18      1.0000 0.21130  0.24670  0.27650  Biso   1.000  H
  H19      1.0000 0.28870  0.74670  0.22350  Biso   1.000  H
  H20      1.0000 0.71130  0.74670  0.27650  Biso   1.000  H
  H21      1.0000 0.21130  0.75330  0.77650  Biso   1.000  H
  H22      1.0000 0.78870  0.75330  0.72350  Biso   1.000  H
  H23      1.0000 0.71130  0.25330  0.77650  Biso   1.000  H
  H24      1.0000 0.28870  0.25330  0.72350  Biso   1.000  H
  C17      1.0000 0.76433  0.39201  0.22140  Biso   1.000  C
  C18      1.0000 0.23567  0.39201  0.27860  Biso   1.000  C
  C19      1.0000 0.26433  0.89201  0.22140  Biso   1.000  C
  C20      1.0000 0.73567  0.89201  0.27860  Biso   1.000  C
  C21      1.0000 0.23567  0.60799  0.77860  Biso   1.000  C
  C22      1.0000 0.76433  0.60799  0.72140  Biso   1.000  C
  C23      1.0000 0.73567  0.10799  0.77860  Biso   1.000  C
  C24      1.0000 0.26433  0.10799  0.72140  Biso   1.000  C
  H25      1.0000 0.69940  0.38730  0.21460  Biso   1.000  H
  H26      1.0000 0.30060  0.38730  0.28540  Biso   1.000  H
  H27      1.0000 0.19940  0.88730  0.21460  Biso   1.000  H
  H28      1.0000 0.80060  0.88730  0.28540  Biso   1.000  H
  H29      1.0000 0.30060  0.61270  0.78540  Biso   1.000  H
  H30      1.0000 0.69940  0.61270  0.71460  Biso   1.000  H
  H31      1.0000 0.80060  0.11270  0.78540  Biso   1.000  H
  H32      1.0000 0.19940  0.11270  0.71460  Biso   1.000  H
  C25      1.0000 0.80600  0.48071  0.22600  Biso   1.000  C
  C26      1.0000 0.19400  0.48071  0.27400  Biso   1.000  C
  C27      1.0000 0.30600  0.98071  0.22600  Biso   1.000  C
  C28      1.0000 0.69400  0.98071  0.27400  Biso   1.000  C
  C29      1.0000 0.19400  0.51929  0.77400  Biso   1.000  C
  C30      1.0000 0.80600  0.51929  0.72600  Biso   1.000  C
  C31      1.0000 0.69400  0.01929  0.77400  Biso   1.000  C
  C32      1.0000 0.30600  0.01929  0.72600  Biso   1.000  C
  H33      1.0000 0.76990  0.53810  0.22110  Biso   1.000  H
  H34      1.0000 0.23010  0.53810  0.27890  Biso   1.000  H
  H35      1.0000 0.26990  0.03810  0.22110  Biso   1.000  H
  H36      1.0000 0.73010  0.03810  0.27890  Biso   1.000  H
  H37      1.0000 0.23010  0.46190  0.77890  Biso   1.000  H
  H38      1.0000 0.76990  0.46190  0.72110  Biso   1.000  H
  H39      1.0000 0.73010  0.96190  0.77890  Biso   1.000  H
  H40      1.0000 0.26990  0.96190  0.72110  Biso   1.000  H
  C33      1.0000 0.90252  0.48689  0.23800  Biso   1.000  C
  C34      1.0000 0.09748  0.48689  0.26200  Biso   1.000  C
  C35      1.0000 0.40252  0.98689  0.23800  Biso   1.000  C
  C36      1.0000 0.59748  0.98689  0.26200  Biso   1.000  C
  C37      1.0000 0.09748  0.51311  0.76200  Biso   1.000  C
  C38      1.0000 0.90252  0.51311  0.73800  Biso   1.000  C
  C39      1.0000 0.59748  0.01311  0.76200  Biso   1.000  C
  C40      1.0000 0.40252  0.01311  0.73800  Biso   1.000  C
  C41      1.0000 0.95356  0.57579  0.24490  Biso   1.000  C
  C42      1.0000 0.04644  0.57579  0.25510  Biso   1.000  C
  C43      1.0000 0.45356  0.07579  0.24490  Biso   1.000  C
  C44      1.0000 0.54644  0.07579  0.25510  Biso   1.000  C
  C45      1.0000 0.04644  0.42421  0.75510  Biso   1.000  C
  C46      1.0000 0.95356  0.42421  0.74490  Biso   1.000  C
  C47      1.0000 0.54644  0.92421  0.75510  Biso   1.000  C
  C48      1.0000 0.45356  0.92421  0.74490  Biso   1.000  C
  H41      1.0000 0.92170  0.63580  0.24220  Biso   1.000  H
  H42      1.0000 0.07830  0.63580  0.25780  Biso   1.000  H
  H43      1.0000 0.42170  0.13580  0.24220  Biso   1.000  H
  H44      1.0000 0.57830  0.13580  0.25780  Biso   1.000  H
  H45      1.0000 0.07830  0.36420  0.75780  Biso   1.000  H
  H46      1.0000 0.92170  0.36420  0.74220  Biso   1.000  H
  H47      1.0000 0.57830  0.86420  0.75780  Biso   1.000  H
  H48      1.0000 0.42170  0.86420  0.74220  Biso   1.000  H
