data_image0
_cell_length_a       7.0081
_cell_length_b       13.8198
_cell_length_c       14.2897
_cell_angle_alpha    90
_cell_angle_beta     99.282
_cell_angle_gamma    90

_symmetry_space_group_name_H-M    "P 1"
_symmetry_int_tables_number       1

loop_
  _symmetry_equiv_pos_as_xyz
  'x, y, z'

loop_
  _atom_site_label
  _atom_site_occupancy
  _atom_site_fract_x
  _atom_site_fract_y
  _atom_site_fract_z
  _atom_site_thermal_displace_type
  _atom_site_B_iso_or_equiv
  _atom_site_type_symbol
  Cu1      1.0000 0.00000  0.54937  0.25000  Biso   1.000  Cu
  Cu2      1.0000 0.50000  0.04937  0.75000  Biso   1.000  Cu
  Cu3      1.0000 1.00000  0.45063  0.75000  Biso   1.000  Cu
  Cu4      1.0000 0.50000  0.95063  0.25000  Biso   1.000  Cu
  O1       1.0000 0.66857  0.55168  0.28700  Biso   1.000  O
  O2       1.0000 0.16857  0.05168  0.78700  Biso   1.000  O
  O3       1.0000 0.33143  0.55168  0.21300  Biso   1.000  O
  O4       1.0000 0.83143  0.05168  0.71300  Biso   1.000  O
  O5       1.0000 0.33143  0.44832  0.71300  Biso   1.000  O
  O6       1.0000 0.83143  0.94832  0.21300  Biso   1.000  O
  O7       1.0000 0.66857  0.44832  0.78700  Biso   1.000  O
  O8       1.0000 0.16857  0.94832  0.28700  Biso   1.000  O
  S1       1.0000 0.50000  0.61063  0.25000  Biso   1.000  S
  S2       1.0000 1.00000  0.11063  0.75000  Biso   1.000  S
  S3       1.0000 0.50000  0.38937  0.75000  Biso   1.000  S
  S4       1.0000 0.00000  0.88937  0.25000  Biso   1.000  S
  O9       1.0000 0.54990  0.67416  0.17315  Biso   1.000  O
  O10      1.0000 0.04990  0.17416  0.67315  Biso   1.000  O
  O11      1.0000 0.45010  0.67416  0.32685  Biso   1.000  O
  O12      1.0000 0.95010  0.17416  0.82685  Biso   1.000  O
  O13      1.0000 0.45010  0.32584  0.82685  Biso   1.000  O
  O14      1.0000 0.95010  0.82584  0.32685  Biso   1.000  O
  O15      1.0000 0.54990  0.32584  0.67315  Biso   1.000  O
  O16      1.0000 0.04990  0.82584  0.17315  Biso   1.000  O
  O17      1.0000 0.09159  0.64655  0.34787  Biso   1.000  O
  O18      1.0000 0.59159  0.14655  0.84787  Biso   1.000  O
  O19      1.0000 0.90841  0.64655  0.15213  Biso   1.000  O
  O20      1.0000 0.40841  0.14655  0.65213  Biso   1.000  O
  O21      1.0000 0.90841  0.35345  0.65213  Biso   1.000  O
  O22      1.0000 0.40841  0.85345  0.15213  Biso   1.000  O
  O23      1.0000 0.09159  0.35345  0.84787  Biso   1.000  O
  O24      1.0000 0.59159  0.85345  0.34787  Biso   1.000  O
  N1       1.0000 0.92303  0.43982  0.15978  Biso   1.000  N
  N2       1.0000 0.42303  0.93982  0.65978  Biso   1.000  N
  N3       1.0000 0.07697  0.43982  0.34022  Biso   1.000  N
  N4       1.0000 0.57697  0.93982  0.84022  Biso   1.000  N
  N5       1.0000 0.07697  0.56018  0.84022  Biso   1.000  N
  N6       1.0000 0.57697  0.06018  0.34022  Biso   1.000  N
  N7       1.0000 0.92303  0.56018  0.65978  Biso   1.000  N
  N8       1.0000 0.42303  0.06018  0.15978  Biso   1.000  N
  C1       1.0000 0.95831  0.35214  0.20117  Biso   1.000  C
  C2       1.0000 0.45831  0.85214  0.70117  Biso   1.000  C
  C3       1.0000 0.04169  0.35214  0.29883  Biso   1.000  C
  C4       1.0000 0.54169  0.85214  0.79883  Biso   1.000  C
  C5       1.0000 0.04169  0.64786  0.79883  Biso   1.000  C
  C6       1.0000 0.54169  0.14786  0.29883  Biso   1.000  C
  C7       1.0000 0.95831  0.64786  0.70117  Biso   1.000  C
  C8       1.0000 0.45831  0.14786  0.20117  Biso   1.000  C
  C9       1.0000 0.91601  0.26451  0.15311  Biso   1.000  C
  C10      1.0000 0.41601  0.76451  0.65311  Biso   1.000  C
  C11      1.0000 0.08399  0.26451  0.34689  Biso   1.000  C
  C12      1.0000 0.58399  0.76451  0.84689  Biso   1.000  C
  C13      1.0000 0.08399  0.73549  0.84689  Biso   1.000  C
  C14      1.0000 0.58399  0.23549  0.34689  Biso   1.000  C
  C15      1.0000 0.91601  0.73549  0.65311  Biso   1.000  C
  C16      1.0000 0.41601  0.23549  0.15311  Biso   1.000  C
  C17      1.0000 0.83250  0.27090  0.05694  Biso   1.000  C
  C18      1.0000 0.33250  0.77090  0.55694  Biso   1.000  C
  C19      1.0000 0.16750  0.27090  0.44306  Biso   1.000  C
  C20      1.0000 0.66750  0.77090  0.94306  Biso   1.000  C
  C21      1.0000 0.16750  0.72910  0.94306  Biso   1.000  C
  C22      1.0000 0.66750  0.22910  0.44306  Biso   1.000  C
  C23      1.0000 0.83250  0.72910  0.55694  Biso   1.000  C
  C24      1.0000 0.33250  0.22910  0.05694  Biso   1.000  C
  C25      1.0000 0.79560  0.35913  0.01553  Biso   1.000  C
  C26      1.0000 0.29560  0.85913  0.51553  Biso   1.000  C
  C27      1.0000 0.20440  0.35913  0.48447  Biso   1.000  C
  C28      1.0000 0.70440  0.85913  0.98447  Biso   1.000  C
  C29      1.0000 0.20440  0.64087  0.98447  Biso   1.000  C
  C30      1.0000 0.70440  0.14087  0.48447  Biso   1.000  C
  C31      1.0000 0.79560  0.64087  0.51553  Biso   1.000  C
  C32      1.0000 0.29560  0.14087  0.01553  Biso   1.000  C
  C33      1.0000 0.84280  0.44304  0.06912  Biso   1.000  C
  C34      1.0000 0.34280  0.94304  0.56912  Biso   1.000  C
  C35      1.0000 0.15720  0.44304  0.43088  Biso   1.000  C
  C36      1.0000 0.65720  0.94304  0.93088  Biso   1.000  C
  C37      1.0000 0.15720  0.55696  0.93088  Biso   1.000  C
  C38      1.0000 0.65720  0.05696  0.43088  Biso   1.000  C
  C39      1.0000 0.84280  0.55696  0.56912  Biso   1.000  C
  C40      1.0000 0.34280  0.05696  0.06912  Biso   1.000  C
  C41      1.0000 0.95960  0.17606  0.20395  Biso   1.000  C
  C42      1.0000 0.45960  0.67606  0.70395  Biso   1.000  C
  C43      1.0000 0.04040  0.17606  0.29605  Biso   1.000  C
  C44      1.0000 0.54040  0.67606  0.79605  Biso   1.000  C
  C45      1.0000 0.04040  0.82394  0.79605  Biso   1.000  C
  C46      1.0000 0.54040  0.32394  0.29605  Biso   1.000  C
  C47      1.0000 0.95960  0.82394  0.70395  Biso   1.000  C
  C48      1.0000 0.45960  0.32394  0.20395  Biso   1.000  C
  H1       1.0000 0.80160  0.21350  0.02210  Biso   1.000  H
  H2       1.0000 0.30160  0.71350  0.52210  Biso   1.000  H
  H3       1.0000 0.19840  0.21350  0.47790  Biso   1.000  H
  H4       1.0000 0.69840  0.71350  0.97790  Biso   1.000  H
  H5       1.0000 0.19840  0.78650  0.97790  Biso   1.000  H
  H6       1.0000 0.69840  0.28650  0.47790  Biso   1.000  H
  H7       1.0000 0.80160  0.78650  0.52210  Biso   1.000  H
  H8       1.0000 0.30160  0.28650  0.02210  Biso   1.000  H
  H9       1.0000 0.73930  0.36590  0.95050  Biso   1.000  H
  H10      1.0000 0.23930  0.86590  0.45050  Biso   1.000  H
  H11      1.0000 0.26070  0.36590  0.54950  Biso   1.000  H
  H12      1.0000 0.76070  0.86590  0.04950  Biso   1.000  H
  H13      1.0000 0.26070  0.63410  0.04950  Biso   1.000  H
  H14      1.0000 0.76070  0.13410  0.54950  Biso   1.000  H
  H15      1.0000 0.73930  0.63410  0.45050  Biso   1.000  H
  H16      1.0000 0.23930  0.13410  0.95050  Biso   1.000  H
  H17      1.0000 0.81680  0.50590  0.04180  Biso   1.000  H
  H18      1.0000 0.31680  0.00590  0.54180  Biso   1.000  H
  H19      1.0000 0.18320  0.50590  0.45820  Biso   1.000  H
  H20      1.0000 0.68320  0.00590  0.95820  Biso   1.000  H
  H21      1.0000 0.18320  0.49410  0.95820  Biso   1.000  H
  H22      1.0000 0.68320  0.99410  0.45820  Biso   1.000  H
  H23      1.0000 0.81680  0.49410  0.54180  Biso   1.000  H
  H24      1.0000 0.31680  0.99410  0.04180  Biso   1.000  H
  H25      1.0000 0.92890  0.11610  0.17050  Biso   1.000  H
  H26      1.0000 0.42890  0.61610  0.67050  Biso   1.000  H
  H27      1.0000 0.07110  0.11610  0.32950  Biso   1.000  H
  H28      1.0000 0.57110  0.61610  0.82950  Biso   1.000  H
  H29      1.0000 0.07110  0.88390  0.82950  Biso   1.000  H
  H30      1.0000 0.57110  0.38390  0.32950  Biso   1.000  H
  H31      1.0000 0.92890  0.88390  0.67050  Biso   1.000  H
  H32      1.0000 0.42890  0.38390  0.17050  Biso   1.000  H
  H33      1.0000 0.20900  0.65930  0.34450  Biso   1.000  H
  H34      1.0000 0.70900  0.15930  0.84450  Biso   1.000  H
  H35      1.0000 0.79100  0.65930  0.15550  Biso   1.000  H
  H36      1.0000 0.29100  0.15930  0.65550  Biso   1.000  H
  H37      1.0000 0.79100  0.34070  0.65550  Biso   1.000  H
  H38      1.0000 0.29100  0.84070  0.15550  Biso   1.000  H
  H39      1.0000 0.20900  0.34070  0.84450  Biso   1.000  H
  H40      1.0000 0.70900  0.84070  0.34450  Biso   1.000  H
  H41      1.0000 0.03510  0.69950  0.34270  Biso   1.000  H
  H42      1.0000 0.53510  0.19950  0.84270  Biso   1.000  H
  H43      1.0000 0.96490  0.69950  0.15730  Biso   1.000  H
  H44      1.0000 0.46490  0.19950  0.65730  Biso   1.000  H
  H45      1.0000 0.96490  0.30050  0.65730  Biso   1.000  H
  H46      1.0000 0.46490  0.80050  0.15730  Biso   1.000  H
  H47      1.0000 0.03510  0.30050  0.84270  Biso   1.000  H
  H48      1.0000 0.53510  0.80050  0.34270  Biso   1.000  H
