data_image0
_cell_length_a       10.863
_cell_length_b       12.074
_cell_length_c       14.802
_cell_angle_alpha    90
_cell_angle_beta     90
_cell_angle_gamma    90

_symmetry_space_group_name_H-M    "P 1"
_symmetry_int_tables_number       1

loop_
  _symmetry_equiv_pos_as_xyz
  'x, y, z'

loop_
  _atom_site_label
  _atom_site_occupancy
  _atom_site_fract_x
  _atom_site_fract_y
  _atom_site_fract_z
  _atom_site_thermal_displace_type
  _atom_site_B_iso_or_equiv
  _atom_site_type_symbol
  Cu1      1.0000 0.35250  0.39640  0.70830  Biso   1.000  Cu
  Cu2      1.0000 0.85250  0.10360  0.29170  Biso   1.000  Cu
  Cu3      1.0000 0.64750  0.89640  0.79170  Biso   1.000  Cu
  Cu4      1.0000 0.14750  0.60360  0.20830  Biso   1.000  Cu
  Cu5      1.0000 0.86040  0.46540  0.67040  Biso   1.000  Cu
  Cu6      1.0000 0.36040  0.03460  0.32960  Biso   1.000  Cu
  Cu7      1.0000 0.13960  0.96540  0.82960  Biso   1.000  Cu
  Cu8      1.0000 0.63960  0.53460  0.17040  Biso   1.000  Cu
  N1       1.0000 0.39970  0.38560  0.57820  Biso   1.000  N
  N2       1.0000 0.89970  0.11440  0.42180  Biso   1.000  N
  N3       1.0000 0.60030  0.88560  0.92180  Biso   1.000  N
  N4       1.0000 0.10030  0.61440  0.07820  Biso   1.000  N
  N5       1.0000 0.34080  0.56370  0.69580  Biso   1.000  N
  N6       1.0000 0.84080  0.93630  0.30420  Biso   1.000  N
  N7       1.0000 0.65920  0.06370  0.80420  Biso   1.000  N
  N8       1.0000 0.15920  0.43630  0.19580  Biso   1.000  N
  O1       1.0000 0.90360  0.47860  0.54140  Biso   1.000  O
  O2       1.0000 0.40360  0.02140  0.45860  Biso   1.000  O
  O3       1.0000 0.09640  0.97860  0.95860  Biso   1.000  O
  O4       1.0000 0.59640  0.52140  0.04140  Biso   1.000  O
  O5       1.0000 0.74020  0.62560  0.65080  Biso   1.000  O
  O6       1.0000 0.24020  0.87440  0.34920  Biso   1.000  O
  O7       1.0000 0.25980  0.12560  0.84920  Biso   1.000  O
  O8       1.0000 0.75980  0.37440  0.15080  Biso   1.000  O
  O9       1.0000 0.79500  0.44920  0.79550  Biso   1.000  O
  O10      1.0000 0.29500  0.05080  0.20450  Biso   1.000  O
  O11      1.0000 0.20500  0.94920  0.70450  Biso   1.000  O
  O12      1.0000 0.70500  0.55080  0.29550  Biso   1.000  O
  O13      1.0000 0.98110  0.24430  0.67080  Biso   1.000  O
  O14      1.0000 0.48110  0.25570  0.32920  Biso   1.000  O
  O15      1.0000 0.01890  0.74430  0.82920  Biso   1.000  O
  O16      1.0000 0.51890  0.75570  0.17080  Biso   1.000  O
  O17      1.0000 0.32130  0.23640  0.69520  Biso   1.000  O
  O18      1.0000 0.82130  0.26360  0.30480  Biso   1.000  O
  O19      1.0000 0.67870  0.73640  0.80480  Biso   1.000  O
  O20      1.0000 0.17870  0.76360  0.19520  Biso   1.000  O
  O21      1.0000 0.25770  0.11950  0.59020  Biso   1.000  O
  O22      1.0000 0.75770  0.38050  0.40980  Biso   1.000  O
  O23      1.0000 0.74230  0.61950  0.90980  Biso   1.000  O
  O24      1.0000 0.24230  0.88050  0.09020  Biso   1.000  O
  O25      1.0000 0.34560  0.42280  0.83840  Biso   1.000  O
  O26      1.0000 0.84560  0.07720  0.16160  Biso   1.000  O
  O27      1.0000 0.65440  0.92280  0.66160  Biso   1.000  O
  O28      1.0000 0.15440  0.57720  0.33840  Biso   1.000  O
  O29      1.0000 0.40320  0.55600  0.93500  Biso   1.000  O
  O30      1.0000 0.90320  0.94400  0.06500  Biso   1.000  O
  O31      1.0000 0.59680  0.05600  0.56500  Biso   1.000  O
  O32      1.0000 0.09680  0.44400  0.43500  Biso   1.000  O
  O33      1.0000 0.57290  0.40260  0.72100  Biso   1.000  O
  O34      1.0000 0.07290  0.09740  0.27900  Biso   1.000  O
  O35      1.0000 0.42710  0.90260  0.77900  Biso   1.000  O
  O36      1.0000 0.92710  0.59740  0.22100  Biso   1.000  O
  O37      1.0000 0.72710  0.37560  0.62220  Biso   1.000  O
  O38      1.0000 0.22710  0.12440  0.37780  Biso   1.000  O
  O39      1.0000 0.27290  0.87560  0.87780  Biso   1.000  O
  O40      1.0000 0.77290  0.62440  0.12220  Biso   1.000  O
  O41      1.0000 0.14120  0.41800  0.67440  Biso   1.000  O
  O42      1.0000 0.64120  0.08200  0.32560  Biso   1.000  O
  O43      1.0000 0.85880  0.91800  0.82560  Biso   1.000  O
  O44      1.0000 0.35880  0.58200  0.17440  Biso   1.000  O
  O45      1.0000 0.00510  0.55110  0.70630  Biso   1.000  O
  O46      1.0000 0.50510  0.94890  0.29370  Biso   1.000  O
  O47      1.0000 0.99490  0.05110  0.79370  Biso   1.000  O
  O48      1.0000 0.49490  0.44890  0.20630  Biso   1.000  O
  C1       1.0000 0.38240  0.50140  0.53800  Biso   1.000  C
  C2       1.0000 0.88240  0.99860  0.46200  Biso   1.000  C
  C3       1.0000 0.61760  0.00140  0.96200  Biso   1.000  C
  C4       1.0000 0.11760  0.49860  0.03800  Biso   1.000  C
  C5       1.0000 0.31600  0.30020  0.54080  Biso   1.000  C
  C6       1.0000 0.81600  0.19980  0.45920  Biso   1.000  C
  C7       1.0000 0.68400  0.80020  0.95920  Biso   1.000  C
  C8       1.0000 0.18400  0.69980  0.04080  Biso   1.000  C
  C9       1.0000 0.29740  0.21010  0.61360  Biso   1.000  C
  C10      1.0000 0.79740  0.28990  0.38640  Biso   1.000  C
  C11      1.0000 0.70260  0.71010  0.88640  Biso   1.000  C
  C12      1.0000 0.20260  0.78990  0.11360  Biso   1.000  C
  C13      1.0000 0.41430  0.58810  0.61060  Biso   1.000  C
  C14      1.0000 0.91430  0.91190  0.38940  Biso   1.000  C
  C15      1.0000 0.58570  0.08810  0.88940  Biso   1.000  C
  C16      1.0000 0.08570  0.41190  0.11060  Biso   1.000  C
  C17      1.0000 0.40550  0.59990  0.77990  Biso   1.000  C
  C18      1.0000 0.90550  0.90010  0.22010  Biso   1.000  C
  C19      1.0000 0.59450  0.09990  0.72010  Biso   1.000  C
  C20      1.0000 0.09450  0.40010  0.27990  Biso   1.000  C
  C21      1.0000 0.38290  0.52130  0.85790  Biso   1.000  C
  C22      1.0000 0.88290  0.97870  0.14210  Biso   1.000  C
  C23      1.0000 0.61710  0.02130  0.64210  Biso   1.000  C
  C24      1.0000 0.11710  0.47870  0.35790  Biso   1.000  C
  C25      1.0000 0.40560  0.70800  0.57700  Biso   1.000  C
  C26      1.0000 0.90560  0.79200  0.42300  Biso   1.000  C
  C27      1.0000 0.59440  0.20800  0.92300  Biso   1.000  C
  C28      1.0000 0.09440  0.29200  0.07700  Biso   1.000  C
  C29      1.0000 0.52900  0.34130  0.56900  Biso   1.000  C
  C30      1.0000 0.02900  0.15870  0.43100  Biso   1.000  C
  C31      1.0000 0.47100  0.84130  0.93100  Biso   1.000  C
  C32      1.0000 0.97100  0.65870  0.06900  Biso   1.000  C
  C33      1.0000 0.61370  0.37890  0.64340  Biso   1.000  C
  C34      1.0000 0.11370  0.12110  0.35660  Biso   1.000  C
  C35      1.0000 0.38630  0.87890  0.85660  Biso   1.000  C
  C36      1.0000 0.88630  0.62110  0.14340  Biso   1.000  C
  C37      1.0000 0.48040  0.72340  0.49130  Biso   1.000  C
  C38      1.0000 0.98040  0.77660  0.50870  Biso   1.000  C
  C39      1.0000 0.51960  0.22340  0.00870  Biso   1.000  C
  C40      1.0000 0.01960  0.27660  0.99130  Biso   1.000  C
  C41      1.0000 0.21180  0.60360  0.69420  Biso   1.000  C
  C42      1.0000 0.71180  0.89640  0.30580  Biso   1.000  C
  C43      1.0000 0.78820  0.10360  0.80580  Biso   1.000  C
  C44      1.0000 0.28820  0.39640  0.19420  Biso   1.000  C
  C45      1.0000 0.11460  0.51570  0.69300  Biso   1.000  C
  C46      1.0000 0.61460  0.98430  0.30700  Biso   1.000  C
  C47      1.0000 0.88540  0.01570  0.80700  Biso   1.000  C
  C48      1.0000 0.38540  0.48430  0.19300  Biso   1.000  C
  C49      1.0000 0.43850  0.64360  0.42090  Biso   1.000  C
  C50      1.0000 0.93850  0.85640  0.57910  Biso   1.000  C
  C51      1.0000 0.56150  0.14360  0.07910  Biso   1.000  C
  C52      1.0000 0.06150  0.35640  0.92090  Biso   1.000  C
  C53      1.0000 0.45050  0.52090  0.45150  Biso   1.000  C
  C54      1.0000 0.95050  0.97910  0.54850  Biso   1.000  C
  C55      1.0000 0.54950  0.02090  0.04850  Biso   1.000  C
  C56      1.0000 0.04950  0.47910  0.95150  Biso   1.000  C
  H1       1.0000 0.28500  0.49900  0.53300  Biso   1.000  H
  H2       1.0000 0.78500  0.00100  0.46700  Biso   1.000  H
  H3       1.0000 0.71500  0.99900  0.96700  Biso   1.000  H
  H4       1.0000 0.21500  0.50100  0.03300  Biso   1.000  H
  H5       1.0000 0.33200  0.27700  0.48900  Biso   1.000  H
  H6       1.0000 0.83200  0.22300  0.51100  Biso   1.000  H
  H7       1.0000 0.66800  0.77700  0.01100  Biso   1.000  H
  H8       1.0000 0.16800  0.72300  0.98900  Biso   1.000  H
  H9       1.0000 0.24400  0.32000  0.53700  Biso   1.000  H
  H10      1.0000 0.74400  0.18000  0.46300  Biso   1.000  H
  H11      1.0000 0.75600  0.82000  0.96300  Biso   1.000  H
  H12      1.0000 0.25600  0.68000  0.03700  Biso   1.000  H
  H13      1.0000 0.50800  0.56700  0.61800  Biso   1.000  H
  H14      1.0000 0.00800  0.93300  0.38200  Biso   1.000  H
  H15      1.0000 0.49200  0.06700  0.88200  Biso   1.000  H
  H16      1.0000 0.99200  0.43300  0.11800  Biso   1.000  H
  H17      1.0000 0.35200  0.68500  0.79400  Biso   1.000  H
  H18      1.0000 0.85200  0.81500  0.20600  Biso   1.000  H
  H19      1.0000 0.64800  0.18500  0.70600  Biso   1.000  H
  H20      1.0000 0.14800  0.31500  0.29400  Biso   1.000  H
  H21      1.0000 0.48700  0.59800  0.77100  Biso   1.000  H
  H22      1.0000 0.98700  0.90200  0.22900  Biso   1.000  H
  H23      1.0000 0.51300  0.09800  0.72900  Biso   1.000  H
  H24      1.0000 0.01300  0.40200  0.27100  Biso   1.000  H
  H25      1.0000 0.30700  0.71800  0.56600  Biso   1.000  H
  H26      1.0000 0.80700  0.78200  0.43400  Biso   1.000  H
  H27      1.0000 0.69300  0.21800  0.93400  Biso   1.000  H
  H28      1.0000 0.19300  0.28200  0.06600  Biso   1.000  H
  H29      1.0000 0.43300  0.75600  0.63400  Biso   1.000  H
  H30      1.0000 0.93300  0.74400  0.36600  Biso   1.000  H
  H31      1.0000 0.56700  0.25600  0.86600  Biso   1.000  H
  H32      1.0000 0.06700  0.24400  0.13400  Biso   1.000  H
  H33      1.0000 0.56000  0.34200  0.50100  Biso   1.000  H
  H34      1.0000 0.06000  0.15800  0.49900  Biso   1.000  H
  H35      1.0000 0.44000  0.84200  0.99900  Biso   1.000  H
  H36      1.0000 0.94000  0.65800  0.00100  Biso   1.000  H
  H37      1.0000 0.52700  0.27200  0.57400  Biso   1.000  H
  H38      1.0000 0.02700  0.22800  0.42600  Biso   1.000  H
  H39      1.0000 0.47300  0.77200  0.92600  Biso   1.000  H
  H40      1.0000 0.97300  0.72800  0.07400  Biso   1.000  H
  H41      1.0000 0.58200  0.70000  0.50200  Biso   1.000  H
  H42      1.0000 0.08200  0.80000  0.49800  Biso   1.000  H
  H43      1.0000 0.41800  0.20000  0.99800  Biso   1.000  H
  H44      1.0000 0.91800  0.30000  0.00200  Biso   1.000  H
  H45      1.0000 0.47700  0.79400  0.47100  Biso   1.000  H
  H46      1.0000 0.97700  0.70600  0.52900  Biso   1.000  H
  H47      1.0000 0.52300  0.29400  0.02900  Biso   1.000  H
  H48      1.0000 0.02300  0.20600  0.97100  Biso   1.000  H
  H49      1.0000 0.19700  0.65400  0.75200  Biso   1.000  H
  H50      1.0000 0.69700  0.84600  0.24800  Biso   1.000  H
  H51      1.0000 0.80300  0.15400  0.74800  Biso   1.000  H
  H52      1.0000 0.30300  0.34600  0.25200  Biso   1.000  H
  H53      1.0000 0.20100  0.65200  0.63300  Biso   1.000  H
  H54      1.0000 0.70100  0.84800  0.36700  Biso   1.000  H
  H55      1.0000 0.79900  0.15200  0.86700  Biso   1.000  H
  H56      1.0000 0.29900  0.34800  0.13300  Biso   1.000  H
  H57      1.0000 0.46500  0.66900  0.36500  Biso   1.000  H
  H58      1.0000 0.96500  0.83100  0.63500  Biso   1.000  H
  H59      1.0000 0.53500  0.16900  0.13500  Biso   1.000  H
  H60      1.0000 0.03500  0.33100  0.86500  Biso   1.000  H
  H61      1.0000 0.34100  0.65600  0.41400  Biso   1.000  H
  H62      1.0000 0.84100  0.84400  0.58600  Biso   1.000  H
  H63      1.0000 0.65900  0.15600  0.08600  Biso   1.000  H
  H64      1.0000 0.15900  0.34400  0.91400  Biso   1.000  H
  H65      1.0000 0.55400  0.51700  0.46200  Biso   1.000  H
  H66      1.0000 0.05400  0.98300  0.53800  Biso   1.000  H
  H67      1.0000 0.44600  0.01700  0.03800  Biso   1.000  H
  H68      1.0000 0.94600  0.48300  0.96200  Biso   1.000  H
  H69      1.0000 0.41600  0.45600  0.40000  Biso   1.000  H
  H70      1.0000 0.91600  0.04400  0.60000  Biso   1.000  H
  H71      1.0000 0.58400  0.95600  0.10000  Biso   1.000  H
  H72      1.0000 0.08400  0.54400  0.90000  Biso   1.000  H
