data_image0
_cell_length_a       7.7824
_cell_length_b       9.7506
_cell_length_c       12.4885
_cell_angle_alpha    98.867
_cell_angle_beta     107.027
_cell_angle_gamma    102.425

_symmetry_space_group_name_H-M    "P 1"
_symmetry_int_tables_number       1

loop_
  _symmetry_equiv_pos_as_xyz
  'x, y, z'

loop_
  _atom_site_label
  _atom_site_occupancy
  _atom_site_fract_x
  _atom_site_fract_y
  _atom_site_fract_z
  _atom_site_thermal_displace_type
  _atom_site_B_iso_or_equiv
  _atom_site_type_symbol
  Mo1      1.0000 0.62946  0.55382  0.14904  Biso   1.000  Mo
  Mo2      1.0000 0.37054  0.44618  0.85096  Biso   1.000  Mo
  Mo3      1.0000 0.71098  0.25257  0.97105  Biso   1.000  Mo
  Mo4      1.0000 0.28902  0.74743  0.02895  Biso   1.000  Mo
  Te1      1.0000 0.75835  0.79157  0.98320  Biso   1.000  Te
  Te2      1.0000 0.24165  0.20843  0.01680  Biso   1.000  Te
  Mo5      1.0000 0.63753  0.05109  0.15635  Biso   1.000  Mo
  Mo6      1.0000 0.36247  0.94891  0.84365  Biso   1.000  Mo
  Cu1      1.0000 0.47202  0.31416  0.31192  Biso   1.000  Cu
  Cu2      1.0000 0.52798  0.68584  0.68808  Biso   1.000  Cu
  O1       1.0000 0.79740  0.14480  0.07740  Biso   1.000  O
  O2       1.0000 0.20260  0.85520  0.92260  Biso   1.000  O
  O3       1.0000 0.73000  0.40250  0.09000  Biso   1.000  O
  O4       1.0000 0.27000  0.59750  0.91000  Biso   1.000  O
  O5       1.0000 0.55230  0.87160  0.98670  Biso   1.000  O
  O6       1.0000 0.44770  0.12840  0.01330  Biso   1.000  O
  O7       1.0000 0.46670  0.67540  0.13370  Biso   1.000  O
  O8       1.0000 0.53330  0.32460  0.86630  Biso   1.000  O
  N1       1.0000 0.36810  0.17410  0.39160  Biso   1.000  N
  N2       1.0000 0.63190  0.82590  0.60840  Biso   1.000  N
  O9       1.0000 0.63340  0.60280  0.98540  Biso   1.000  O
  O10      1.0000 0.36660  0.39720  0.01460  Biso   1.000  O
  O11      1.0000 0.57350  0.47670  0.25540  Biso   1.000  O
  O12      1.0000 0.42650  0.52330  0.74460  Biso   1.000  O
  O13      1.0000 0.66470  0.19410  0.26520  Biso   1.000  O
  O14      1.0000 0.33530  0.80590  0.73480  Biso   1.000  O
  O15      1.0000 0.78710  0.96030  0.21860  Biso   1.000  O
  O16      1.0000 0.21290  0.03970  0.78140  Biso   1.000  O
  O17      1.0000 0.59480  0.07110  0.85440  Biso   1.000  O
  O18      1.0000 0.40520  0.92890  0.14560  Biso   1.000  O
  O19      1.0000 0.90710  0.31130  0.93880  Biso   1.000  O
  O20      1.0000 0.09290  0.68870  0.06120  Biso   1.000  O
  O21      1.0000 0.73250  0.76940  0.83120  Biso   1.000  O
  O22      1.0000 0.26750  0.23060  0.16880  Biso   1.000  O
  N3       1.0000 0.64190  0.40820  0.47300  Biso   1.000  N
  N4       1.0000 0.35810  0.59180  0.52700  Biso   1.000  N
  O23      1.0000 0.83730  0.67730  0.22110  Biso   1.000  O
  O24      1.0000 0.16270  0.32270  0.77890  Biso   1.000  O
  C1       1.0000 0.22600  0.05380  0.34050  Biso   1.000  C
  C2       1.0000 0.77400  0.94620  0.65950  Biso   1.000  C
  H1       1.0000 0.16960  0.03170  0.26090  Biso   1.000  H
  H2       1.0000 0.83040  0.96830  0.73910  Biso   1.000  H
  C3       1.0000 0.45180  0.20510  0.50690  Biso   1.000  C
  C4       1.0000 0.54820  0.79490  0.49310  Biso   1.000  C
  C5       1.0000 0.16060  0.96160  0.40280  Biso   1.000  C
  C6       1.0000 0.83940  0.03840  0.59720  Biso   1.000  C
  H3       1.0000 0.06380  0.87770  0.36580  Biso   1.000  H
  H4       1.0000 0.93620  0.12230  0.63420  Biso   1.000  H
  C7       1.0000 0.24220  0.99730  0.52010  Biso   1.000  C
  C8       1.0000 0.75780  0.00270  0.47990  Biso   1.000  C
  H5       1.0000 0.19720  0.93920  0.56390  Biso   1.000  H
  H6       1.0000 0.80280  0.06080  0.43610  Biso   1.000  H
  C9       1.0000 0.39040  0.11870  0.57370  Biso   1.000  C
  C10      1.0000 0.60960  0.88130  0.42630  Biso   1.000  C
  H7       1.0000 0.44810  0.14210  0.65330  Biso   1.000  H
  H8       1.0000 0.55190  0.85790  0.34670  Biso   1.000  H
  C11      1.0000 0.61180  0.33710  0.55320  Biso   1.000  C
  C12      1.0000 0.38820  0.66290  0.44680  Biso   1.000  C
  C13      1.0000 0.89890  0.58200  0.61770  Biso   1.000  C
  C14      1.0000 0.10110  0.41800  0.38230  Biso   1.000  C
  H9       1.0000 0.99640  0.66590  0.63800  Biso   1.000  H
  H10      1.0000 0.00360  0.33410  0.36200  Biso   1.000  H
  C15      1.0000 0.78410  0.52860  0.50530  Biso   1.000  C
  C16      1.0000 0.21590  0.47140  0.49470  Biso   1.000  C
  H11      1.0000 0.80550  0.57710  0.44990  Biso   1.000  H
  H12      1.0000 0.19450  0.42290  0.55010  Biso   1.000  H
  C17      1.0000 0.72300  0.38620  0.66740  Biso   1.000  C
  C18      1.0000 0.27700  0.61380  0.33260  Biso   1.000  C
  H13      1.0000 0.70040  0.33630  0.72190  Biso   1.000  H
  H14      1.0000 0.29960  0.66370  0.27810  Biso   1.000  H
  C19      1.0000 0.86900  0.51110  0.69980  Biso   1.000  C
  C20      1.0000 0.13100  0.48890  0.30020  Biso   1.000  C
  H15      1.0000 0.94570  0.54620  0.77630  Biso   1.000  H
  H16      1.0000 0.05430  0.45380  0.22370  Biso   1.000  H
