data_image0
_cell_length_a       7.5551
_cell_length_b       19.2146
_cell_length_c       20.4013
_cell_angle_alpha    90
_cell_angle_beta     90
_cell_angle_gamma    90

_symmetry_space_group_name_H-M    "P 1"
_symmetry_int_tables_number       1

loop_
  _symmetry_equiv_pos_as_xyz
  'x, y, z'

loop_
  _atom_site_label
  _atom_site_occupancy
  _atom_site_fract_x
  _atom_site_fract_y
  _atom_site_fract_z
  _atom_site_thermal_displace_type
  _atom_site_B_iso_or_equiv
  _atom_site_type_symbol
  C1       1.0000 0.71270  0.89367  0.80839  Biso   1.000  C
  C2       1.0000 0.78730  0.10633  0.30839  Biso   1.000  C
  C3       1.0000 0.21270  0.60633  0.19161  Biso   1.000  C
  C4       1.0000 0.28730  0.39367  0.69161  Biso   1.000  C
  C5       1.0000 0.76150  0.91180  0.87263  Biso   1.000  C
  C6       1.0000 0.73850  0.08820  0.37263  Biso   1.000  C
  C7       1.0000 0.26150  0.58820  0.12737  Biso   1.000  C
  C8       1.0000 0.23850  0.41180  0.62737  Biso   1.000  C
  C9       1.0000 0.81510  0.98030  0.88610  Biso   1.000  C
  C10      1.0000 0.68490  0.01970  0.38610  Biso   1.000  C
  C11      1.0000 0.31510  0.51970  0.11390  Biso   1.000  C
  C12      1.0000 0.18490  0.48030  0.61390  Biso   1.000  C
  H1       1.0000 0.84520  0.99170  0.92900  Biso   1.000  H
  H2       1.0000 0.65480  0.00830  0.42900  Biso   1.000  H
  H3       1.0000 0.34520  0.50830  0.07100  Biso   1.000  H
  H4       1.0000 0.15480  0.49170  0.57100  Biso   1.000  H
  C13      1.0000 0.82520  0.03140  0.83910  Biso   1.000  C
  C14      1.0000 0.67480  0.96860  0.33910  Biso   1.000  C
  C15      1.0000 0.32520  0.46860  0.16090  Biso   1.000  C
  C16      1.0000 0.17480  0.53140  0.66090  Biso   1.000  C
  C17      1.0000 0.76850  0.01350  0.77690  Biso   1.000  C
  C18      1.0000 0.73150  0.98650  0.27690  Biso   1.000  C
  C19      1.0000 0.26850  0.48650  0.22310  Biso   1.000  C
  C20      1.0000 0.23150  0.51350  0.72310  Biso   1.000  C
  H5       1.0000 0.76910  0.04750  0.74450  Biso   1.000  H
  H6       1.0000 0.73090  0.95250  0.24450  Biso   1.000  H
  H7       1.0000 0.26910  0.45250  0.25550  Biso   1.000  H
  H8       1.0000 0.23090  0.54750  0.75550  Biso   1.000  H
  C21      1.0000 0.71000  0.94653  0.76032  Biso   1.000  C
  C22      1.0000 0.79000  0.05347  0.26032  Biso   1.000  C
  C23      1.0000 0.21000  0.55347  0.23968  Biso   1.000  C
  C24      1.0000 0.29000  0.44653  0.73968  Biso   1.000  C
  C25      1.0000 0.62930  0.93840  0.69700  Biso   1.000  C
  C26      1.0000 0.87070  0.06160  0.19700  Biso   1.000  C
  C27      1.0000 0.12930  0.56160  0.30300  Biso   1.000  C
  C28      1.0000 0.37070  0.43840  0.80300  Biso   1.000  C
  H9       1.0000 0.62240  0.97840  0.67150  Biso   1.000  H
  H10      1.0000 0.87760  0.02160  0.17150  Biso   1.000  H
  H11      1.0000 0.12240  0.52160  0.32850  Biso   1.000  H
  H12      1.0000 0.37760  0.47840  0.82850  Biso   1.000  H
  C29      1.0000 0.46810  0.89350  0.60930  Biso   1.000  C
  C30      1.0000 0.03190  0.10650  0.10930  Biso   1.000  C
  C31      1.0000 0.96810  0.60650  0.39070  Biso   1.000  C
  C32      1.0000 0.53190  0.39350  0.89070  Biso   1.000  C
  H13      1.0000 0.50510  0.93730  0.58990  Biso   1.000  H
  H14      1.0000 0.99490  0.06270  0.08990  Biso   1.000  H
  H15      1.0000 0.00510  0.56270  0.41010  Biso   1.000  H
  H16      1.0000 0.49490  0.43730  0.91010  Biso   1.000  H
  H17      1.0000 0.34270  0.89710  0.61900  Biso   1.000  H
  H18      1.0000 0.15730  0.10290  0.11900  Biso   1.000  H
  H19      1.0000 0.84270  0.60290  0.38100  Biso   1.000  H
  H20      1.0000 0.65730  0.39710  0.88100  Biso   1.000  H
  C33      1.0000 0.49540  0.83650  0.56030  Biso   1.000  C
  C34      1.0000 0.00460  0.16350  0.06030  Biso   1.000  C
  C35      1.0000 0.99540  0.66350  0.43970  Biso   1.000  C
  C36      1.0000 0.50460  0.33650  0.93970  Biso   1.000  C
  H21      1.0000 0.44240  0.85050  0.51910  Biso   1.000  H
  H22      1.0000 0.05760  0.14950  0.01910  Biso   1.000  H
  H23      1.0000 0.94240  0.64950  0.48090  Biso   1.000  H
  H24      1.0000 0.55760  0.35050  0.98090  Biso   1.000  H
  H25      1.0000 0.62150  0.83100  0.55300  Biso   1.000  H
  H26      1.0000 0.87850  0.16900  0.05300  Biso   1.000  H
  H27      1.0000 0.12150  0.66900  0.44700  Biso   1.000  H
  H28      1.0000 0.37850  0.33100  0.94700  Biso   1.000  H
  C37      1.0000 0.42110  0.76870  0.57950  Biso   1.000  C
  C38      1.0000 0.07890  0.23130  0.07950  Biso   1.000  C
  C39      1.0000 0.92110  0.73130  0.42050  Biso   1.000  C
  C40      1.0000 0.57890  0.26870  0.92050  Biso   1.000  C
  H29      1.0000 0.42080  0.73810  0.54170  Biso   1.000  H
  H30      1.0000 0.07920  0.26190  0.04170  Biso   1.000  H
  H31      1.0000 0.92080  0.76190  0.45830  Biso   1.000  H
  H32      1.0000 0.57920  0.23810  0.95830  Biso   1.000  H
  H33      1.0000 0.29930  0.77520  0.59330  Biso   1.000  H
  H34      1.0000 0.20070  0.22480  0.09330  Biso   1.000  H
  H35      1.0000 0.79930  0.72480  0.40670  Biso   1.000  H
  H36      1.0000 0.70070  0.27520  0.90670  Biso   1.000  H
  C41      1.0000 0.54570  0.66960  0.62860  Biso   1.000  C
  C42      1.0000 0.95430  0.33040  0.12860  Biso   1.000  C
  C43      1.0000 0.04570  0.83040  0.37140  Biso   1.000  C
  C44      1.0000 0.45430  0.16960  0.87140  Biso   1.000  C
  H37      1.0000 0.50750  0.64950  0.58960  Biso   1.000  H
  H38      1.0000 0.99250  0.35050  0.08960  Biso   1.000  H
  H39      1.0000 0.00750  0.85050  0.41040  Biso   1.000  H
  H40      1.0000 0.49250  0.14950  0.91040  Biso   1.000  H
  C45      1.0000 0.62320  0.62270  0.67489  Biso   1.000  C
  C46      1.0000 0.87680  0.37730  0.17489  Biso   1.000  C
  C47      1.0000 0.12320  0.87730  0.32511  Biso   1.000  C
  C48      1.0000 0.37680  0.12270  0.82511  Biso   1.000  C
  C49      1.0000 0.64570  0.55370  0.65400  Biso   1.000  C
  C50      1.0000 0.85430  0.44630  0.15400  Biso   1.000  C
  C51      1.0000 0.14570  0.94630  0.34600  Biso   1.000  C
  C52      1.0000 0.35430  0.05370  0.84600  Biso   1.000  C
  H41      1.0000 0.61220  0.54190  0.61160  Biso   1.000  H
  H42      1.0000 0.88780  0.45810  0.11160  Biso   1.000  H
  H43      1.0000 0.11220  0.95810  0.38840  Biso   1.000  H
  H44      1.0000 0.38780  0.04190  0.88840  Biso   1.000  H
  C53      1.0000 0.71530  0.50250  0.69380  Biso   1.000  C
  C54      1.0000 0.78470  0.49750  0.19380  Biso   1.000  C
  C55      1.0000 0.21530  0.99750  0.30620  Biso   1.000  C
  C56      1.0000 0.28470  0.00250  0.80620  Biso   1.000  C
  C57      1.0000 0.76340  0.52130  0.75620  Biso   1.000  C
  C58      1.0000 0.73660  0.47870  0.25620  Biso   1.000  C
  C59      1.0000 0.26340  0.97870  0.24380  Biso   1.000  C
  C60      1.0000 0.23660  0.02130  0.74380  Biso   1.000  C
  H45      1.0000 0.81200  0.48770  0.78350  Biso   1.000  H
  H46      1.0000 0.68800  0.51230  0.28350  Biso   1.000  H
  H47      1.0000 0.31200  0.01230  0.21650  Biso   1.000  H
  H48      1.0000 0.18800  0.98770  0.71650  Biso   1.000  H
  C61      1.0000 0.74240  0.58925  0.78055  Biso   1.000  C
  C62      1.0000 0.75760  0.41075  0.28055  Biso   1.000  C
  C63      1.0000 0.24240  0.91075  0.21945  Biso   1.000  C
  C64      1.0000 0.25760  0.08925  0.71945  Biso   1.000  C
  C65      1.0000 0.67390  0.64130  0.73894  Biso   1.000  C
  C66      1.0000 0.82610  0.35870  0.23894  Biso   1.000  C
  C67      1.0000 0.17390  0.85870  0.26106  Biso   1.000  C
  C68      1.0000 0.32610  0.14130  0.76106  Biso   1.000  C
  C69      1.0000 0.80270  0.60190  0.84660  Biso   1.000  C
  C70      1.0000 0.69730  0.39810  0.34660  Biso   1.000  C
  C71      1.0000 0.30270  0.89810  0.15340  Biso   1.000  C
  C72      1.0000 0.19730  0.10190  0.65340  Biso   1.000  C
  H49      1.0000 0.86230  0.56590  0.86760  Biso   1.000  H
  H50      1.0000 0.63770  0.43410  0.36760  Biso   1.000  H
  H51      1.0000 0.36230  0.93410  0.13240  Biso   1.000  H
  H52      1.0000 0.13770  0.06590  0.63240  Biso   1.000  H
  C73      1.0000 0.75790  0.65270  0.99220  Biso   1.000  C
  C74      1.0000 0.74210  0.34730  0.49220  Biso   1.000  C
  C75      1.0000 0.25790  0.84730  0.00780  Biso   1.000  C
  C76      1.0000 0.24210  0.15270  0.50780  Biso   1.000  C
  H53      1.0000 0.82540  0.65530  0.03260  Biso   1.000  H
  H54      1.0000 0.67460  0.34470  0.53260  Biso   1.000  H
  H55      1.0000 0.32540  0.84470  0.96740  Biso   1.000  H
  H56      1.0000 0.17460  0.15530  0.46740  Biso   1.000  H
  H57      1.0000 0.70000  0.60760  0.99100  Biso   1.000  H
  H58      1.0000 0.80000  0.39240  0.49100  Biso   1.000  H
  H59      1.0000 0.20000  0.89240  0.00900  Biso   1.000  H
  H60      1.0000 0.30000  0.10760  0.50900  Biso   1.000  H
  C77      1.0000 0.62010  0.70810  0.99290  Biso   1.000  C
  C78      1.0000 0.87990  0.29190  0.49290  Biso   1.000  C
  C79      1.0000 0.12010  0.79190  0.00710  Biso   1.000  C
  C80      1.0000 0.37990  0.20810  0.50710  Biso   1.000  C
  H61      1.0000 0.54180  0.70190  0.95570  Biso   1.000  H
  H62      1.0000 0.95820  0.29810  0.45570  Biso   1.000  H
  H63      1.0000 0.04180  0.79810  0.04430  Biso   1.000  H
  H64      1.0000 0.45820  0.20190  0.54430  Biso   1.000  H
  H65      1.0000 0.55000  0.70400  0.03250  Biso   1.000  H
  H66      1.0000 0.95000  0.29600  0.53250  Biso   1.000  H
  H67      1.0000 0.05000  0.79600  0.96750  Biso   1.000  H
  H68      1.0000 0.45000  0.20400  0.46750  Biso   1.000  H
  C81      1.0000 0.74480  0.86610  0.92808  Biso   1.000  C
  C82      1.0000 0.75520  0.13390  0.42808  Biso   1.000  C
  C83      1.0000 0.24480  0.63390  0.07192  Biso   1.000  C
  C84      1.0000 0.25520  0.36610  0.57192  Biso   1.000  C
  H69      1.0000 0.76280  0.88550  0.96930  Biso   1.000  H
  H70      1.0000 0.73720  0.11450  0.46930  Biso   1.000  H
  H71      1.0000 0.26280  0.61450  0.03070  Biso   1.000  H
  H72      1.0000 0.23720  0.38550  0.53070  Biso   1.000  H
  C85      1.0000 0.88770  0.10400  0.85520  Biso   1.000  C
  C86      1.0000 0.61230  0.89600  0.35520  Biso   1.000  C
  C87      1.0000 0.38770  0.39600  0.14480  Biso   1.000  C
  C88      1.0000 0.11230  0.60400  0.64480  Biso   1.000  C
  H73      1.0000 0.92020  0.10630  0.90060  Biso   1.000  H
  H74      1.0000 0.57980  0.89370  0.40060  Biso   1.000  H
  H75      1.0000 0.42020  0.39370  0.09940  Biso   1.000  H
  H76      1.0000 0.07980  0.60630  0.59940  Biso   1.000  H
  H77      1.0000 0.79420  0.13660  0.84660  Biso   1.000  H
  H78      1.0000 0.70580  0.86340  0.34660  Biso   1.000  H
  H79      1.0000 0.29420  0.36340  0.15340  Biso   1.000  H
  H80      1.0000 0.20580  0.63660  0.65340  Biso   1.000  H
  H81      1.0000 0.98850  0.11520  0.82850  Biso   1.000  H
  H82      1.0000 0.51150  0.88480  0.32850  Biso   1.000  H
  H83      1.0000 0.48850  0.38480  0.17150  Biso   1.000  H
  H84      1.0000 0.01150  0.61520  0.67150  Biso   1.000  H
  C89      1.0000 0.74190  0.42860  0.66920  Biso   1.000  C
  C90      1.0000 0.75810  0.57140  0.16920  Biso   1.000  C
  C91      1.0000 0.24190  0.07140  0.33080  Biso   1.000  C
  C92      1.0000 0.25810  0.92860  0.83080  Biso   1.000  C
  H85      1.0000 0.70050  0.42510  0.62490  Biso   1.000  H
  H86      1.0000 0.79950  0.57490  0.12490  Biso   1.000  H
  H87      1.0000 0.20050  0.07490  0.37510  Biso   1.000  H
  H88      1.0000 0.29950  0.92510  0.87510  Biso   1.000  H
  H89      1.0000 0.67650  0.39700  0.69640  Biso   1.000  H
  H90      1.0000 0.82350  0.60300  0.19640  Biso   1.000  H
  H91      1.0000 0.17650  0.10300  0.30360  Biso   1.000  H
  H92      1.0000 0.32350  0.89700  0.80360  Biso   1.000  H
  H93      1.0000 0.86540  0.41700  0.67090  Biso   1.000  H
  H94      1.0000 0.63460  0.58300  0.17090  Biso   1.000  H
  H95      1.0000 0.36540  0.08300  0.32910  Biso   1.000  H
  H96      1.0000 0.13460  0.91700  0.82910  Biso   1.000  H
  N1       1.0000 0.56590  0.88303  0.67133  Biso   1.000  N
  N2       1.0000 0.93410  0.11697  0.17133  Biso   1.000  N
  N3       1.0000 0.06590  0.61697  0.32867  Biso   1.000  N
  N4       1.0000 0.43410  0.38303  0.82867  Biso   1.000  N
  N5       1.0000 0.52140  0.73520  0.63318  Biso   1.000  N
  N6       1.0000 0.97860  0.26480  0.13318  Biso   1.000  N
  N7       1.0000 0.02140  0.76480  0.36682  Biso   1.000  N
  N8       1.0000 0.47860  0.23520  0.86682  Biso   1.000  N
  N9       1.0000 0.78100  0.65779  0.87801  Biso   1.000  N
  N10      1.0000 0.71900  0.34221  0.37801  Biso   1.000  N
  N11      1.0000 0.28100  0.84221  0.12199  Biso   1.000  N
  N12      1.0000 0.21900  0.15779  0.62199  Biso   1.000  N
  N13      1.0000 0.70740  0.80112  0.92608  Biso   1.000  N
  N14      1.0000 0.79260  0.19888  0.42608  Biso   1.000  N
  N15      1.0000 0.20740  0.69888  0.07392  Biso   1.000  N
  N16      1.0000 0.29260  0.30112  0.57392  Biso   1.000  N
  O1       1.0000 0.25300  0.76380  0.75024  Biso   1.000  O
  O2       1.0000 0.24700  0.23620  0.25024  Biso   1.000  O
  O3       1.0000 0.75300  0.73620  0.24976  Biso   1.000  O
  O4       1.0000 0.74700  0.26380  0.74976  Biso   1.000  O
  O5       1.0000 0.34500  0.75170  0.85820  Biso   1.000  O
  O6       1.0000 0.15500  0.24830  0.35820  Biso   1.000  O
  O7       1.0000 0.84500  0.74830  0.14180  Biso   1.000  O
  O8       1.0000 0.65500  0.25170  0.64180  Biso   1.000  O
  O9       1.0000 0.35240  0.57850  0.91520  Biso   1.000  O
  O10      1.0000 0.14760  0.42150  0.41520  Biso   1.000  O
  O11      1.0000 0.85240  0.92150  0.08480  Biso   1.000  O
  O12      1.0000 0.64760  0.07850  0.58480  Biso   1.000  O
  O13      1.0000 0.17730  0.66417  0.80970  Biso   1.000  O
  O14      1.0000 0.32270  0.33583  0.30970  Biso   1.000  O
  O15      1.0000 0.67730  0.83583  0.19030  Biso   1.000  O
  O16      1.0000 0.82270  0.16417  0.69030  Biso   1.000  O
  O17      1.0000 0.04880  0.77135  0.83468  Biso   1.000  O
  O18      1.0000 0.45120  0.22865  0.33468  Biso   1.000  O
  O19      1.0000 0.54880  0.72865  0.16532  Biso   1.000  O
  O20      1.0000 0.95120  0.27135  0.66532  Biso   1.000  O
  O21      1.0000 0.99370  0.36530  0.95750  Biso   1.000  O
  O22      1.0000 0.50630  0.63470  0.45750  Biso   1.000  O
  O23      1.0000 0.49370  0.13470  0.04250  Biso   1.000  O
  O24      1.0000 0.00630  0.86530  0.54250  Biso   1.000  O
  O25      1.0000 0.14940  0.45300  0.98510  Biso   1.000  O
  O26      1.0000 0.35060  0.54700  0.48510  Biso   1.000  O
  O27      1.0000 0.64940  0.04700  0.01490  Biso   1.000  O
  O28      1.0000 0.85060  0.95300  0.51490  Biso   1.000  O
  O29      1.0000 0.85460  0.46790  0.98020  Biso   1.000  O
  O30      1.0000 0.64540  0.53210  0.48020  Biso   1.000  O
  O31      1.0000 0.35460  0.03210  0.01980  Biso   1.000  O
  O32      1.0000 0.14540  0.96790  0.51980  Biso   1.000  O
  O33      1.0000 0.01450  0.45080  0.88680  Biso   1.000  O
  O34      1.0000 0.48550  0.54920  0.38680  Biso   1.000  O
  O35      1.0000 0.51450  0.04920  0.11320  Biso   1.000  O
  O36      1.0000 0.98550  0.95080  0.61320  Biso   1.000  O
  O37      1.0000 0.87640  0.65748  0.93818  Biso   1.000  O
  O38      1.0000 0.62360  0.34252  0.43818  Biso   1.000  O
  O39      1.0000 0.37640  0.84252  0.06182  Biso   1.000  O
  O40      1.0000 0.12360  0.15748  0.56182  Biso   1.000  O
  O41      1.0000 0.69740  0.77468  0.99014  Biso   1.000  O
  O42      1.0000 0.80260  0.22532  0.49014  Biso   1.000  O
  O43      1.0000 0.19740  0.72532  0.00986  Biso   1.000  O
  O44      1.0000 0.30260  0.27468  0.50986  Biso   1.000  O
  O45      1.0000 0.66300  0.82904  0.79346  Biso   1.000  O
  O46      1.0000 0.83700  0.17096  0.29346  Biso   1.000  O
  O47      1.0000 0.16300  0.67096  0.20654  Biso   1.000  O
  O48      1.0000 0.33700  0.32904  0.70654  Biso   1.000  O
  O49      1.0000 0.65740  0.70675  0.75941  Biso   1.000  O
  O50      1.0000 0.84260  0.29325  0.25941  Biso   1.000  O
  O51      1.0000 0.15740  0.79325  0.24059  Biso   1.000  O
  O52      1.0000 0.34260  0.20675  0.74059  Biso   1.000  O
  O53      1.0000 0.90910  0.79130  0.67280  Biso   1.000  O
  O54      1.0000 0.59090  0.20870  0.17280  Biso   1.000  O
  O55      1.0000 0.40910  0.70870  0.32720  Biso   1.000  O
  O56      1.0000 0.09090  0.29130  0.82720  Biso   1.000  O
  Cl1      1.0000 0.20553  0.73725  0.81299  Biso   1.000  Cl
  Cl2      1.0000 0.29447  0.26275  0.31299  Biso   1.000  Cl
  Cl3      1.0000 0.70553  0.76275  0.18701  Biso   1.000  Cl
  Cl4      1.0000 0.79447  0.23725  0.68701  Biso   1.000  Cl
  Cl5      1.0000 0.00570  0.43757  0.95265  Biso   1.000  Cl
  Cl6      1.0000 0.49430  0.56243  0.45265  Biso   1.000  Cl
  Cl7      1.0000 0.50570  0.06243  0.04735  Biso   1.000  Cl
  Cl8      1.0000 0.99430  0.93757  0.54735  Biso   1.000  Cl
  Cu1      1.0000 0.69988  0.74596  0.84549  Biso   1.000  Cu
  Cu2      1.0000 0.80012  0.25404  0.34549  Biso   1.000  Cu
  Cu3      1.0000 0.19988  0.75404  0.15451  Biso   1.000  Cu
  Cu4      1.0000 0.30012  0.24596  0.65451  Biso   1.000  Cu
  Cu5      1.0000 0.60736  0.79045  0.70714  Biso   1.000  Cu
  Cu6      1.0000 0.89264  0.20955  0.20714  Biso   1.000  Cu
  Cu7      1.0000 0.10736  0.70955  0.29286  Biso   1.000  Cu
  Cu8      1.0000 0.39264  0.29045  0.79286  Biso   1.000  Cu
  H97      1.0000 0.98600  0.79800  0.70200  Biso   1.000  H
  H98      1.0000 0.51400  0.20200  0.20200  Biso   1.000  H
  H99      1.0000 0.48600  0.70200  0.29800  Biso   1.000  H
  H100     1.0000 0.01400  0.29800  0.79800  Biso   1.000  H
  H101     1.0000 0.92400  0.82000  0.64200  Biso   1.000  H
  H102     1.0000 0.57600  0.18000  0.14200  Biso   1.000  H
  H103     1.0000 0.42400  0.68000  0.35800  Biso   1.000  H
  H104     1.0000 0.07600  0.32000  0.85800  Biso   1.000  H
