data_image0
_cell_length_a       12.1133
_cell_length_b       12.7626
_cell_length_c       12.9724
_cell_angle_alpha    83.839
_cell_angle_beta     67.379
_cell_angle_gamma    81.747

_symmetry_space_group_name_H-M    "P 1"
_symmetry_int_tables_number       1

loop_
  _symmetry_equiv_pos_as_xyz
  'x, y, z'

loop_
  _atom_site_label
  _atom_site_occupancy
  _atom_site_fract_x
  _atom_site_fract_y
  _atom_site_fract_z
  _atom_site_thermal_displace_type
  _atom_site_B_iso_or_equiv
  _atom_site_type_symbol
  Cu1      1.0000 0.13170  0.89667  0.91504  Biso   1.000  Cu
  Cu2      1.0000 0.86830  0.10333  0.08496  Biso   1.000  Cu
  N1       1.0000 0.17180  0.79820  0.79500  Biso   1.000  N
  N2       1.0000 0.82820  0.20180  0.20500  Biso   1.000  N
  N3       1.0000 0.21330  0.82630  0.67990  Biso   1.000  N
  N4       1.0000 0.78670  0.17370  0.32010  Biso   1.000  N
  N5       1.0000 0.19140  0.65660  0.70590  Biso   1.000  N
  N6       1.0000 0.80860  0.34340  0.29410  Biso   1.000  N
  N7       1.0000 0.99480  0.19140  0.99000  Biso   1.000  N
  N8       1.0000 0.00520  0.80860  0.01000  Biso   1.000  N
  N9       1.0000 0.07930  0.22100  0.02850  Biso   1.000  N
  N10      1.0000 0.92070  0.77900  0.97150  Biso   1.000  N
  N11      1.0000 0.10650  0.29630  0.86150  Biso   1.000  N
  N12      1.0000 0.89350  0.70370  0.13850  Biso   1.000  N
  N13      1.0000 0.28010  0.96570  0.82710  Biso   1.000  N
  N14      1.0000 0.71990  0.03430  0.17290  Biso   1.000  N
  N15      1.0000 0.28990  0.06970  0.83720  Biso   1.000  N
  N16      1.0000 0.71010  0.93030  0.16280  Biso   1.000  N
  N17      1.0000 0.46990  0.98340  0.75620  Biso   1.000  N
  N18      1.0000 0.53010  0.01660  0.24380  Biso   1.000  N
  N19      1.0000 0.88170  0.03710  0.94690  Biso   1.000  N
  N20      1.0000 0.11830  0.96290  0.05310  Biso   1.000  N
  N21      1.0000 0.99310  0.00320  0.86610  Biso   1.000  N
  N22      1.0000 0.00690  0.99680  0.13390  Biso   1.000  N
  N23      1.0000 0.84880  0.99000  0.80850  Biso   1.000  N
  N24      1.0000 0.15120  0.01000  0.19150  Biso   1.000  N
  C1       1.0000 0.15930  0.69680  0.80650  Biso   1.000  C
  C2       1.0000 0.84070  0.30320  0.19350  Biso   1.000  C
  H1       1.0000 0.13190  0.65750  0.87540  Biso   1.000  H
  H2       1.0000 0.86810  0.34250  0.12460  Biso   1.000  H
  C3       1.0000 0.22400  0.74070  0.62950  Biso   1.000  C
  C4       1.0000 0.77600  0.25930  0.37050  Biso   1.000  C
  H3       1.0000 0.25040  0.73690  0.55160  Biso   1.000  H
  H4       1.0000 0.74960  0.26310  0.44840  Biso   1.000  H
  C5       1.0000 0.01440  0.23780  0.88900  Biso   1.000  C
  C6       1.0000 0.98560  0.76220  0.11100  Biso   1.000  C
  H5       1.0000 0.97100  0.23080  0.84410  Biso   1.000  H
  H6       1.0000 0.02900  0.76920  0.15590  Biso   1.000  H
  C7       1.0000 0.14390  0.28250  0.94890  Biso   1.000  C
  C8       1.0000 0.85610  0.71750  0.05110  Biso   1.000  C
  H7       1.0000 0.20850  0.31370  0.95120  Biso   1.000  H
  H8       1.0000 0.79150  0.68630  0.04880  Biso   1.000  H
  C9       1.0000 0.20180  0.54510  0.67780  Biso   1.000  C
  C10      1.0000 0.79820  0.45490  0.32220  Biso   1.000  C
  C11      1.0000 0.33320  0.50820  0.61720  Biso   1.000  C
  C12      1.0000 0.66680  0.49180  0.38280  Biso   1.000  C
  H9       1.0000 0.37810  0.51390  0.66470  Biso   1.000  H
  H10      1.0000 0.62190  0.48610  0.33530  Biso   1.000  H
  H11      1.0000 0.36630  0.55280  0.54850  Biso   1.000  H
  H12      1.0000 0.63370  0.44720  0.45150  Biso   1.000  H
  C13      1.0000 0.34610  0.39030  0.58790  Biso   1.000  C
  C14      1.0000 0.65390  0.60970  0.41210  Biso   1.000  C
  H13      1.0000 0.43200  0.36480  0.54880  Biso   1.000  H
  H14      1.0000 0.56800  0.63520  0.45120  Biso   1.000  H
  C15      1.0000 0.29290  0.32220  0.69570  Biso   1.000  C
  C16      1.0000 0.70710  0.67780  0.30430  Biso   1.000  C
  H15      1.0000 0.33660  0.32610  0.74470  Biso   1.000  H
  H16      1.0000 0.66340  0.67390  0.25530  Biso   1.000  H
  H17      1.0000 0.30060  0.24800  0.67830  Biso   1.000  H
  H18      1.0000 0.69940  0.75200  0.32170  Biso   1.000  H
  C17      1.0000 0.15890  0.36300  0.75520  Biso   1.000  C
  C18      1.0000 0.84110  0.63700  0.24480  Biso   1.000  C
  C19      1.0000 0.14800  0.47710  0.78570  Biso   1.000  C
  C20      1.0000 0.85200  0.52290  0.21430  Biso   1.000  C
  H19      1.0000 0.19130  0.48080  0.83510  Biso   1.000  H
  H20      1.0000 0.80870  0.51920  0.16490  Biso   1.000  H
  H21      1.0000 0.06320  0.50310  0.82500  Biso   1.000  H
  H22      1.0000 0.93680  0.49690  0.17500  Biso   1.000  H
  C21      1.0000 0.13100  0.54170  0.60170  Biso   1.000  C
  C22      1.0000 0.86900  0.45830  0.39830  Biso   1.000  C
  H23      1.0000 0.16340  0.58700  0.53350  Biso   1.000  H
  H24      1.0000 0.83660  0.41300  0.46650  Biso   1.000  H
  H25      1.0000 0.04590  0.56700  0.64070  Biso   1.000  H
  H26      1.0000 0.95410  0.43300  0.35930  Biso   1.000  H
  C23      1.0000 0.14450  0.42460  0.57220  Biso   1.000  C
  C24      1.0000 0.85550  0.57540  0.42780  Biso   1.000  C
  H27      1.0000 0.10140  0.41990  0.52200  Biso   1.000  H
  H28      1.0000 0.89860  0.58010  0.47800  Biso   1.000  H
  C25      1.0000 0.09050  0.35510  0.67930  Biso   1.000  C
  C26      1.0000 0.90950  0.64490  0.32070  Biso   1.000  C
  H29      1.0000 0.00500  0.37940  0.71750  Biso   1.000  H
  H30      1.0000 0.99500  0.62060  0.28250  Biso   1.000  H
  H31      1.0000 0.09770  0.28120  0.66100  Biso   1.000  H
  H32      1.0000 0.90230  0.71880  0.33900  Biso   1.000  H
  C27      1.0000 0.27790  0.38530  0.51300  Biso   1.000  C
  C28      1.0000 0.72210  0.61470  0.48700  Biso   1.000  C
  H33      1.0000 0.28580  0.31200  0.49260  Biso   1.000  H
  H34      1.0000 0.71420  0.68800  0.50740  Biso   1.000  H
  H35      1.0000 0.31230  0.42920  0.44400  Biso   1.000  H
  H36      1.0000 0.68770  0.57080  0.55600  Biso   1.000  H
  C29      1.0000 0.38740  0.91620  0.77830  Biso   1.000  C
  C30      1.0000 0.61260  0.08380  0.22170  Biso   1.000  C
  H37      1.0000 0.40410  0.84450  0.76130  Biso   1.000  H
  H38      1.0000 0.59590  0.15550  0.23870  Biso   1.000  H
  C31      1.0000 0.40610  0.07810  0.79300  Biso   1.000  C
  C32      1.0000 0.59390  0.92190  0.20700  Biso   1.000  C
  H39      1.0000 0.44050  0.14100  0.78750  Biso   1.000  H
  H40      1.0000 0.55950  0.85900  0.21250  Biso   1.000  H
  C33      1.0000 0.79860  0.02950  0.90840  Biso   1.000  C
  C34      1.0000 0.20140  0.97050  0.09160  Biso   1.000  C
  H41      1.0000 0.71580  0.04910  0.94580  Biso   1.000  H
  H42      1.0000 0.28420  0.95090  0.05420  Biso   1.000  H
  C35      1.0000 0.97030  0.97600  0.78480  Biso   1.000  C
  C36      1.0000 0.02970  0.02400  0.21520  Biso   1.000  C
  H43      1.0000 0.02870  0.95010  0.71810  Biso   1.000  H
  H44      1.0000 0.97130  0.04990  0.28190  Biso   1.000  H
  C37      1.0000 0.60210  0.96020  0.70180  Biso   1.000  C
  C38      1.0000 0.39790  0.03980  0.29820  Biso   1.000  C
  C39      1.0000 0.64840  0.03030  0.59340  Biso   1.000  C
  C40      1.0000 0.35160  0.96970  0.40660  Biso   1.000  C
  H45      1.0000 0.62690  0.10540  0.60980  Biso   1.000  H
  H46      1.0000 0.37310  0.89460  0.39020  Biso   1.000  H
  H47      1.0000 0.61230  0.01560  0.54140  Biso   1.000  H
  H48      1.0000 0.38770  0.98440  0.45860  Biso   1.000  H
  C41      1.0000 0.78760  0.00460  0.54080  Biso   1.000  C
  C42      1.0000 0.21240  0.99540  0.45920  Biso   1.000  C
  H49      1.0000 0.81940  0.04820  0.47010  Biso   1.000  H
  H50      1.0000 0.18060  0.95180  0.52990  Biso   1.000  H
  C43      1.0000 0.84060  0.03250  0.62170  Biso   1.000  C
  C44      1.0000 0.15940  0.96750  0.37830  Biso   1.000  C
  H51      1.0000 0.81820  0.10780  0.63670  Biso   1.000  H
  H52      1.0000 0.18180  0.89220  0.36330  Biso   1.000  H
  H53      1.0000 0.92860  0.01970  0.58850  Biso   1.000  H
  H54      1.0000 0.07140  0.98030  0.41150  Biso   1.000  H
  C45      1.0000 0.79320  0.96460  0.73130  Biso   1.000  C
  C46      1.0000 0.20680  0.03540  0.26870  Biso   1.000  C
  C47      1.0000 0.65570  0.98760  0.78430  Biso   1.000  C
  C48      1.0000 0.34430  0.01240  0.21570  Biso   1.000  C
  H55      1.0000 0.63300  0.06260  0.80060  Biso   1.000  H
  H56      1.0000 0.36700  0.93740  0.19940  Biso   1.000  H
  H57      1.0000 0.62460  0.94480  0.85460  Biso   1.000  H
  H58      1.0000 0.37540  0.05520  0.14540  Biso   1.000  H
  C49      1.0000 0.63670  0.84450  0.67880  Biso   1.000  C
  C50      1.0000 0.36330  0.15550  0.32120  Biso   1.000  C
  H59      1.0000 0.60110  0.82610  0.62790  Biso   1.000  H
  H60      1.0000 0.39890  0.17390  0.37210  Biso   1.000  H
  H61      1.0000 0.60550  0.80130  0.74880  Biso   1.000  H
  H62      1.0000 0.39450  0.19870  0.25120  Biso   1.000  H
  C51      1.0000 0.77450  0.82060  0.62610  Biso   1.000  C
  C52      1.0000 0.22550  0.17940  0.37390  Biso   1.000  C
  H63      1.0000 0.79610  0.74450  0.61050  Biso   1.000  H
  H64      1.0000 0.20390  0.25550  0.38950  Biso   1.000  H
  C53      1.0000 0.82830  0.84620  0.70590  Biso   1.000  C
  C54      1.0000 0.17170  0.15380  0.29410  Biso   1.000  C
  H65      1.0000 0.91610  0.83110  0.67280  Biso   1.000  H
  H66      1.0000 0.08390  0.16890  0.32720  Biso   1.000  H
  H67      1.0000 0.79870  0.80200  0.77540  Biso   1.000  H
  H68      1.0000 0.20130  0.19800  0.22460  Biso   1.000  H
  C55      1.0000 0.82060  0.88810  0.51620  Biso   1.000  C
  C56      1.0000 0.17940  0.11190  0.48380  Biso   1.000  C
  H69      1.0000 0.90820  0.87280  0.48020  Biso   1.000  H
  H70      1.0000 0.09180  0.12720  0.51980  Biso   1.000  H
  H71      1.0000 0.78440  0.87110  0.46510  Biso   1.000  H
  H72      1.0000 0.21560  0.12890  0.53490  Biso   1.000  H
  Mo1      1.0000 0.46749  0.54314  0.87800  Biso   1.000  Mo
  Mo2      1.0000 0.53251  0.45686  0.12200  Biso   1.000  Mo
  Mo3      1.0000 0.52981  0.71656  0.00315  Biso   1.000  Mo
  Mo4      1.0000 0.47019  0.28344  0.99685  Biso   1.000  Mo
  Mo5      1.0000 0.30997  0.66321  0.23756  Biso   1.000  Mo
  Mo6      1.0000 0.69003  0.33679  0.76244  Biso   1.000  Mo
  Mo7      1.0000 0.24740  0.48742  0.10638  Biso   1.000  Mo
  Mo8      1.0000 0.75260  0.51258  0.89362  Biso   1.000  Mo
  O1       1.0000 0.54940  0.47420  0.75750  Biso   1.000  O
  O2       1.0000 0.45060  0.52580  0.24250  Biso   1.000  O
  O3       1.0000 0.37790  0.63830  0.83690  Biso   1.000  O
  O4       1.0000 0.62210  0.36170  0.16310  Biso   1.000  O
  O5       1.0000 0.58720  0.41960  0.95040  Biso   1.000  O
  O6       1.0000 0.41280  0.58040  0.04960  Biso   1.000  O
  O7       1.0000 0.59290  0.62630  0.87110  Biso   1.000  O
  O8       1.0000 0.40710  0.37370  0.12890  Biso   1.000  O
  O9       1.0000 0.35780  0.43680  0.95610  Biso   1.000  O
  O10      1.0000 0.64220  0.56320  0.04390  Biso   1.000  O
  O11      1.0000 0.43320  0.80540  0.96180  Biso   1.000  O
  O12      1.0000 0.56680  0.19460  0.03820  Biso   1.000  O
  O13      1.0000 0.65140  0.78240  0.97610  Biso   1.000  O
  O14      1.0000 0.34860  0.21760  0.02390  Biso   1.000  O
  O15      1.0000 0.45900  0.72420  0.16140  Biso   1.000  O
  O16      1.0000 0.54100  0.27580  0.83860  Biso   1.000  O
  O17      1.0000 0.21820  0.75560  0.19490  Biso   1.000  O
  O18      1.0000 0.78180  0.24440  0.80510  Biso   1.000  O
  O19      1.0000 0.27830  0.68790  0.37340  Biso   1.000  O
  O20      1.0000 0.72170  0.31210  0.62660  Biso   1.000  O
  O21      1.0000 0.23140  0.54320  0.24360  Biso   1.000  O
  O22      1.0000 0.76860  0.45680  0.75640  Biso   1.000  O
  O23      1.0000 0.16050  0.38670  0.15690  Biso   1.000  O
  O24      1.0000 0.83950  0.61330  0.84310  Biso   1.000  O
  O25      1.0000 0.16360  0.58060  0.05550  Biso   1.000  O
  O26      1.0000 0.83640  0.41940  0.94450  Biso   1.000  O
