data_image0
_cell_length_a       11.481
_cell_length_b       18.094
_cell_length_c       8.5198
_cell_angle_alpha    90
_cell_angle_beta     102.26
_cell_angle_gamma    90

_symmetry_space_group_name_H-M    "P 1"
_symmetry_int_tables_number       1

loop_
  _symmetry_equiv_pos_as_xyz
  'x, y, z'

loop_
  _atom_site_label
  _atom_site_occupancy
  _atom_site_fract_x
  _atom_site_fract_y
  _atom_site_fract_z
  _atom_site_thermal_displace_type
  _atom_site_B_iso_or_equiv
  _atom_site_type_symbol
  Cu1      1.0000 0.32990  0.86560  0.59364  Biso   1.000  Cu
  Cu2      1.0000 0.67010  0.36560  0.90636  Biso   1.000  Cu
  Cu3      1.0000 0.67010  0.13440  0.40636  Biso   1.000  Cu
  Cu4      1.0000 0.32990  0.63440  0.09364  Biso   1.000  Cu
  S1       1.0000 0.09052  0.86883  0.34250  Biso   1.000  S
  S2       1.0000 0.90948  0.36883  0.15750  Biso   1.000  S
  S3       1.0000 0.90948  0.13117  0.65750  Biso   1.000  S
  S4       1.0000 0.09052  0.63117  0.84250  Biso   1.000  S
  C1       1.0000 0.35560  0.76040  0.37310  Biso   1.000  C
  C2       1.0000 0.64440  0.26040  0.12690  Biso   1.000  C
  C3       1.0000 0.64440  0.23960  0.62690  Biso   1.000  C
  C4       1.0000 0.35560  0.73960  0.87310  Biso   1.000  C
  C5       1.0000 0.22630  0.75272  0.38650  Biso   1.000  C
  C6       1.0000 0.77370  0.25272  0.11350  Biso   1.000  C
  C7       1.0000 0.77370  0.24728  0.61350  Biso   1.000  C
  C8       1.0000 0.22630  0.74728  0.88650  Biso   1.000  C
  H1       1.0000 0.17660  0.74460  0.28080  Biso   1.000  H
  H2       1.0000 0.82340  0.24460  0.21920  Biso   1.000  H
  H3       1.0000 0.82340  0.25540  0.71920  Biso   1.000  H
  H4       1.0000 0.17660  0.75540  0.78080  Biso   1.000  H
  H5       1.0000 0.21800  0.71030  0.45300  Biso   1.000  H
  H6       1.0000 0.78200  0.21030  0.04700  Biso   1.000  H
  H7       1.0000 0.78200  0.28970  0.54700  Biso   1.000  H
  H8       1.0000 0.21800  0.78970  0.95300  Biso   1.000  H
  C9       1.0000 0.94850  0.83563  0.36190  Biso   1.000  C
  C10      1.0000 0.05150  0.33563  0.13810  Biso   1.000  C
  C11      1.0000 0.05150  0.16437  0.63810  Biso   1.000  C
  C12      1.0000 0.94850  0.66437  0.86190  Biso   1.000  C
  C13      1.0000 0.90100  0.77132  0.28610  Biso   1.000  C
  C14      1.0000 0.09900  0.27132  0.21390  Biso   1.000  C
  C15      1.0000 0.09900  0.22868  0.71390  Biso   1.000  C
  C16      1.0000 0.90100  0.72868  0.78610  Biso   1.000  C
  H9       1.0000 0.94340  0.74370  0.22500  Biso   1.000  H
  H10      1.0000 0.05660  0.24370  0.27500  Biso   1.000  H
  H11      1.0000 0.05660  0.25630  0.77500  Biso   1.000  H
  H12      1.0000 0.94340  0.75630  0.72500  Biso   1.000  H
  C17      1.0000 0.78890  0.74898  0.30320  Biso   1.000  C
  C18      1.0000 0.21110  0.24898  0.19680  Biso   1.000  C
  C19      1.0000 0.21110  0.25102  0.69680  Biso   1.000  C
  C20      1.0000 0.78890  0.75102  0.80320  Biso   1.000  C
  H13      1.0000 0.75490  0.70570  0.25500  Biso   1.000  H
  H14      1.0000 0.24510  0.20570  0.24500  Biso   1.000  H
  H15      1.0000 0.24510  0.29430  0.74500  Biso   1.000  H
  H16      1.0000 0.75490  0.79430  0.75500  Biso   1.000  H
  C21      1.0000 0.72880  0.79229  0.39340  Biso   1.000  C
  C22      1.0000 0.27120  0.29229  0.10660  Biso   1.000  C
  C23      1.0000 0.27120  0.20771  0.60660  Biso   1.000  C
  C24      1.0000 0.72880  0.70771  0.89340  Biso   1.000  C
  H17      1.0000 0.65310  0.77730  0.40290  Biso   1.000  H
  H18      1.0000 0.34690  0.27730  0.09710  Biso   1.000  H
  H19      1.0000 0.34690  0.22270  0.59710  Biso   1.000  H
  H20      1.0000 0.65310  0.72270  0.90290  Biso   1.000  H
  C25      1.0000 0.88140  0.87565  0.45120  Biso   1.000  C
  C26      1.0000 0.11860  0.37565  0.04880  Biso   1.000  C
  C27      1.0000 0.11860  0.12435  0.54880  Biso   1.000  C
  C28      1.0000 0.88140  0.62435  0.95120  Biso   1.000  C
  H21      1.0000 0.91350  0.91890  0.50130  Biso   1.000  H
  H22      1.0000 0.08650  0.41890  0.99870  Biso   1.000  H
  H23      1.0000 0.08650  0.08110  0.49870  Biso   1.000  H
  H24      1.0000 0.91350  0.58110  0.00130  Biso   1.000  H
  C29      1.0000 0.14700  0.92963  0.76700  Biso   1.000  C
  C30      1.0000 0.85300  0.42963  0.73300  Biso   1.000  C
  C31      1.0000 0.85300  0.07037  0.23300  Biso   1.000  C
  C32      1.0000 0.14700  0.57037  0.26700  Biso   1.000  C
  H25      1.0000 0.09750  0.89010  0.72800  Biso   1.000  H
  H26      1.0000 0.90250  0.39010  0.77200  Biso   1.000  H
  H27      1.0000 0.90250  0.10990  0.27200  Biso   1.000  H
  H28      1.0000 0.09750  0.60990  0.22800  Biso   1.000  H
  C33      1.0000 0.10620  0.98319  0.86020  Biso   1.000  C
  C34      1.0000 0.89380  0.48319  0.63980  Biso   1.000  C
  C35      1.0000 0.89380  0.01681  0.13980  Biso   1.000  C
  C36      1.0000 0.10620  0.51681  0.36020  Biso   1.000  C
  H29      1.0000 0.03060  0.97890  0.88260  Biso   1.000  H
  H30      1.0000 0.96940  0.47890  0.61740  Biso   1.000  H
  H31      1.0000 0.96940  0.02110  0.11740  Biso   1.000  H
  H32      1.0000 0.03060  0.52110  0.38260  Biso   1.000  H
  C37      1.0000 0.17700  0.04186  0.91870  Biso   1.000  C
  C38      1.0000 0.82300  0.54186  0.58130  Biso   1.000  C
  C39      1.0000 0.82300  0.95814  0.08130  Biso   1.000  C
  C40      1.0000 0.17700  0.45814  0.41870  Biso   1.000  C
  H33      1.0000 0.14990  0.07780  0.98020  Biso   1.000  H
  H34      1.0000 0.85010  0.57780  0.51980  Biso   1.000  H
  H35      1.0000 0.85010  0.92220  0.01980  Biso   1.000  H
  H36      1.0000 0.14990  0.42220  0.48020  Biso   1.000  H
  C41      1.0000 0.29100  0.04736  0.88490  Biso   1.000  C
  C42      1.0000 0.70900  0.54736  0.61510  Biso   1.000  C
  C43      1.0000 0.70900  0.95264  0.11510  Biso   1.000  C
  C44      1.0000 0.29100  0.45264  0.38490  Biso   1.000  C
  C45      1.0000 0.37410  0.10588  0.93930  Biso   1.000  C
  C46      1.0000 0.62590  0.60588  0.56070  Biso   1.000  C
  C47      1.0000 0.62590  0.89412  0.06070  Biso   1.000  C
  C48      1.0000 0.37410  0.39412  0.43930  Biso   1.000  C
  H37      1.0000 0.35280  0.14360  0.00190  Biso   1.000  H
  H38      1.0000 0.64720  0.64360  0.49810  Biso   1.000  H
  H39      1.0000 0.64720  0.85640  0.99810  Biso   1.000  H
  H40      1.0000 0.35280  0.35640  0.50190  Biso   1.000  H
  C49      1.0000 0.48230  0.10743  0.90150  Biso   1.000  C
  C50      1.0000 0.51770  0.60743  0.59850  Biso   1.000  C
  C51      1.0000 0.51770  0.89257  0.09850  Biso   1.000  C
  C52      1.0000 0.48230  0.39257  0.40150  Biso   1.000  C
  H41      1.0000 0.53320  0.14680  0.93660  Biso   1.000  H
  H42      1.0000 0.46680  0.64680  0.56340  Biso   1.000  H
  H43      1.0000 0.46680  0.85320  0.06340  Biso   1.000  H
  H44      1.0000 0.53320  0.35320  0.43660  Biso   1.000  H
  C53      1.0000 0.52070  0.05003  0.80880  Biso   1.000  C
  C54      1.0000 0.47930  0.55003  0.69120  Biso   1.000  C
  C55      1.0000 0.47930  0.94997  0.19120  Biso   1.000  C
  C56      1.0000 0.52070  0.44997  0.30880  Biso   1.000  C
  C57      1.0000 0.63360  0.04593  0.77060  Biso   1.000  C
  C58      1.0000 0.36640  0.54593  0.72940  Biso   1.000  C
  C59      1.0000 0.36640  0.95407  0.22940  Biso   1.000  C
  C60      1.0000 0.63360  0.45407  0.27060  Biso   1.000  C
  H45      1.0000 0.68980  0.08270  0.80470  Biso   1.000  H
  H46      1.0000 0.31020  0.58270  0.69530  Biso   1.000  H
  H47      1.0000 0.31020  0.91730  0.19530  Biso   1.000  H
  H48      1.0000 0.68980  0.41730  0.30470  Biso   1.000  H
  C61      1.0000 0.66020  0.98717  0.68250  Biso   1.000  C
  C62      1.0000 0.33980  0.48717  0.81750  Biso   1.000  C
  C63      1.0000 0.33980  0.01283  0.31750  Biso   1.000  C
  C64      1.0000 0.66020  0.51283  0.18250  Biso   1.000  C
  H49      1.0000 0.73500  0.98370  0.65770  Biso   1.000  H
  H50      1.0000 0.26500  0.48370  0.84230  Biso   1.000  H
  H51      1.0000 0.26500  0.01630  0.34230  Biso   1.000  H
  H52      1.0000 0.73500  0.51630  0.15770  Biso   1.000  H
  C65      1.0000 0.57480  0.93274  0.63040  Biso   1.000  C
  C66      1.0000 0.42520  0.43274  0.86960  Biso   1.000  C
  C67      1.0000 0.42520  0.06726  0.36960  Biso   1.000  C
  C68      1.0000 0.57480  0.56726  0.13040  Biso   1.000  C
  H53      1.0000 0.59390  0.89350  0.56990  Biso   1.000  H
  H54      1.0000 0.40610  0.39350  0.93010  Biso   1.000  H
  H55      1.0000 0.40610  0.10650  0.43010  Biso   1.000  H
  H56      1.0000 0.59390  0.60650  0.06990  Biso   1.000  H
  C69      1.0000 0.44070  0.99257  0.75310  Biso   1.000  C
  C70      1.0000 0.55930  0.49257  0.74690  Biso   1.000  C
  C71      1.0000 0.55930  0.00743  0.24690  Biso   1.000  C
  C72      1.0000 0.44070  0.50743  0.25310  Biso   1.000  C
  C73      1.0000 0.32540  0.99134  0.79090  Biso   1.000  C
  C74      1.0000 0.67460  0.49134  0.70910  Biso   1.000  C
  C75      1.0000 0.67460  0.00866  0.20910  Biso   1.000  C
  C76      1.0000 0.32540  0.50866  0.29090  Biso   1.000  C
  N1       1.0000 0.18680  0.82020  0.45810  Biso   1.000  N
  N2       1.0000 0.81320  0.32020  0.04190  Biso   1.000  N
  N3       1.0000 0.81320  0.17980  0.54190  Biso   1.000  N
  N4       1.0000 0.18680  0.67980  0.95810  Biso   1.000  N
  N5       1.0000 0.25390  0.93324  0.73220  Biso   1.000  N
  N6       1.0000 0.74610  0.43324  0.76780  Biso   1.000  N
  N7       1.0000 0.74610  0.06676  0.26780  Biso   1.000  N
  N8       1.0000 0.25390  0.56676  0.23220  Biso   1.000  N
  N9       1.0000 0.46690  0.93507  0.66430  Biso   1.000  N
  N10      1.0000 0.53310  0.43507  0.83570  Biso   1.000  N
  N11      1.0000 0.53310  0.06493  0.33570  Biso   1.000  N
  N12      1.0000 0.46690  0.56493  0.16430  Biso   1.000  N
  N13      1.0000 0.77310  0.85472  0.46820  Biso   1.000  N
  N14      1.0000 0.22690  0.35472  0.03180  Biso   1.000  N
  N15      1.0000 0.22690  0.14528  0.53180  Biso   1.000  N
  N16      1.0000 0.77310  0.64528  0.96820  Biso   1.000  N
  O1       1.0000 0.41566  0.81176  0.45520  Biso   1.000  O
  O2       1.0000 0.58434  0.31176  0.04480  Biso   1.000  O
  O3       1.0000 0.58434  0.18824  0.54480  Biso   1.000  O
  O4       1.0000 0.41566  0.68824  0.95520  Biso   1.000  O
  O5       1.0000 0.39812  0.71648  0.28790  Biso   1.000  O
  O6       1.0000 0.60188  0.21648  0.21210  Biso   1.000  O
  O7       1.0000 0.60188  0.28352  0.71210  Biso   1.000  O
  O8       1.0000 0.39812  0.78352  0.78790  Biso   1.000  O
  O9       1.0000 0.09220  0.85927  0.17460  Biso   1.000  O
  O10      1.0000 0.90780  0.35927  0.32540  Biso   1.000  O
  O11      1.0000 0.90780  0.14073  0.82540  Biso   1.000  O
  O12      1.0000 0.09220  0.64073  0.67460  Biso   1.000  O
  O13      1.0000 0.09800  0.94354  0.40350  Biso   1.000  O
  O14      1.0000 0.90200  0.44354  0.09650  Biso   1.000  O
  O15      1.0000 0.90200  0.05646  0.59650  Biso   1.000  O
  O16      1.0000 0.09800  0.55646  0.90350  Biso   1.000  O
