data_image0
_cell_length_a       7.7444
_cell_length_b       8.2359
_cell_length_c       8.8697
_cell_angle_alpha    66.62
_cell_angle_beta     71.005
_cell_angle_gamma    82.957

_symmetry_space_group_name_H-M    "P 1"
_symmetry_int_tables_number       1

loop_
  _symmetry_equiv_pos_as_xyz
  'x, y, z'

loop_
  _atom_site_label
  _atom_site_occupancy
  _atom_site_fract_x
  _atom_site_fract_y
  _atom_site_fract_z
  _atom_site_thermal_displace_type
  _atom_site_B_iso_or_equiv
  _atom_site_type_symbol
  Cu1      1.0000 0.50000  0.00000  0.00000  Biso   1.000  Cu
  O1       1.0000 0.41860  0.63120  0.63470  Biso   1.000  O
  O2       1.0000 0.58140  0.36880  0.36530  Biso   1.000  O
  H1       1.0000 0.45380  0.70610  0.53660  Biso   1.000  H
  H2       1.0000 0.54620  0.29390  0.46340  Biso   1.000  H
  O3       1.0000 0.46580  0.88930  0.32090  Biso   1.000  O
  O4       1.0000 0.53420  0.11070  0.67910  Biso   1.000  O
  O5       1.0000 0.32930  0.10410  0.15800  Biso   1.000  O
  O6       1.0000 0.67070  0.89590  0.84200  Biso   1.000  O
  N1       1.0000 0.70010  0.16690  0.95000  Biso   1.000  N
  N2       1.0000 0.29990  0.83310  0.05000  Biso   1.000  N
  N3       1.0000 0.25230  0.56270  0.66020  Biso   1.000  N
  N4       1.0000 0.74770  0.43730  0.33980  Biso   1.000  N
  C1       1.0000 0.80390  0.12460  0.05400  Biso   1.000  C
  C2       1.0000 0.19610  0.87540  0.94600  Biso   1.000  C
  H3       1.0000 0.76850  0.02870  0.15850  Biso   1.000  H
  H4       1.0000 0.23150  0.97130  0.84150  Biso   1.000  H
  C3       1.0000 0.96080  0.21520  0.01540  Biso   1.000  C
  C4       1.0000 0.03920  0.78480  0.98460  Biso   1.000  C
  H5       1.0000 0.02770  0.18160  0.09300  Biso   1.000  H
  H6       1.0000 0.97230  0.81840  0.90700  Biso   1.000  H
  C5       1.0000 0.01760  0.35720  0.85900  Biso   1.000  C
  C6       1.0000 0.98240  0.64280  0.14100  Biso   1.000  C
  C7       1.0000 0.90470  0.40650  0.75490  Biso   1.000  C
  C8       1.0000 0.09530  0.59350  0.24510  Biso   1.000  C
  H7       1.0000 0.93420  0.50510  0.65210  Biso   1.000  H
  H8       1.0000 0.06580  0.49490  0.34790  Biso   1.000  H
  C9       1.0000 0.75050  0.31090  0.80260  Biso   1.000  C
  C10      1.0000 0.24950  0.68910  0.19740  Biso   1.000  C
  H9       1.0000 0.67720  0.34650  0.73040  Biso   1.000  H
  H10      1.0000 0.32280  0.65350  0.26960  Biso   1.000  H
  C11      1.0000 0.19220  0.44580  0.81070  Biso   1.000  C
  C12      1.0000 0.80780  0.55420  0.18930  Biso   1.000  C
  H11      1.0000 0.25750  0.41670  0.88910  Biso   1.000  H
  H12      1.0000 0.74250  0.58330  0.11090  Biso   1.000  H
  C13      1.0000 0.35540  0.01410  0.30240  Biso   1.000  C
  C14      1.0000 0.64460  0.98590  0.69760  Biso   1.000  C
  C15      1.0000 0.25070  0.06640  0.45320  Biso   1.000  C
  C16      1.0000 0.74930  0.93360  0.54680  Biso   1.000  C
  H13      1.0000 0.29840  0.17860  0.43470  Biso   1.000  H
  H14      1.0000 0.70160  0.82140  0.56530  Biso   1.000  H
  H15      1.0000 0.27170  0.97860  0.55730  Biso   1.000  H
  H16      1.0000 0.72830  0.02140  0.44270  Biso   1.000  H
  C17      1.0000 0.04620  0.08360  0.48020  Biso   1.000  C
  C18      1.0000 0.95380  0.91640  0.51980  Biso   1.000  C
  H17      1.0000 0.99050  0.12380  0.57420  Biso   1.000  H
  H18      1.0000 0.00950  0.87620  0.42580  Biso   1.000  H
  H19      1.0000 0.02540  0.17340  0.37700  Biso   1.000  H
  H20      1.0000 0.97460  0.82660  0.62300  Biso   1.000  H
