data_image0
_cell_length_a       7.843
_cell_length_b       9.986
_cell_length_c       12.32
_cell_angle_alpha    67.609
_cell_angle_beta     78.65
_cell_angle_gamma    68.577

_symmetry_space_group_name_H-M    "P 1"
_symmetry_int_tables_number       1

loop_
  _symmetry_equiv_pos_as_xyz
  'x, y, z'

loop_
  _atom_site_label
  _atom_site_occupancy
  _atom_site_fract_x
  _atom_site_fract_y
  _atom_site_fract_z
  _atom_site_thermal_displace_type
  _atom_site_B_iso_or_equiv
  _atom_site_type_symbol
  Cu1      1.0000 0.96305  0.68241  0.90984  Biso   1.000  Cu
  Cu2      1.0000 0.03695  0.31759  0.09016  Biso   1.000  Cu
  Cu3      1.0000 0.55528  0.96142  0.27515  Biso   1.000  Cu
  Cu4      1.0000 0.44472  0.03858  0.72485  Biso   1.000  Cu
  Cu5      1.0000 0.20240  0.86757  0.96765  Biso   1.000  Cu
  Cu6      1.0000 0.79760  0.13243  0.03235  Biso   1.000  Cu
  Cu7      1.0000 0.50000  0.00000  0.00000  Biso   1.000  Cu
  Cu8      1.0000 0.00000  0.50000  0.50000  Biso   1.000  Cu
  O1       1.0000 0.86970  0.61320  0.81370  Biso   1.000  O
  O2       1.0000 0.13030  0.38680  0.18630  Biso   1.000  O
  O3       1.0000 0.68950  0.83660  0.69980  Biso   1.000  O
  O4       1.0000 0.31050  0.16340  0.30020  Biso   1.000  O
  O5       1.0000 0.82220  0.70440  0.48470  Biso   1.000  O
  O6       1.0000 0.17780  0.29560  0.51530  Biso   1.000  O
  O7       1.0000 0.53000  0.84180  0.44250  Biso   1.000  O
  O8       1.0000 0.47000  0.15820  0.55750  Biso   1.000  O
  O9       1.0000 0.14030  0.53350  0.59150  Biso   1.000  O
  O10      1.0000 0.85970  0.46650  0.40850  Biso   1.000  O
  O11      1.0000 0.18490  0.32440  0.75550  Biso   1.000  O
  O12      1.0000 0.81510  0.67560  0.24450  Biso   1.000  O
  O13      1.0000 0.16550  0.43040  0.95220  Biso   1.000  O
  O14      1.0000 0.83450  0.56960  0.04780  Biso   1.000  O
  O15      1.0000 0.43770  0.25880  0.00810  Biso   1.000  O
  O16      1.0000 0.56230  0.74120  0.99190  Biso   1.000  O
  O17      1.0000 0.67090  0.97390  0.10950  Biso   1.000  O
  O18      1.0000 0.32910  0.02610  0.89050  Biso   1.000  O
  H1       1.0000 0.76790  0.87280  0.11740  Biso   1.000  H
  H2       1.0000 0.23210  0.12720  0.88260  Biso   1.000  H
  O19      1.0000 0.05030  0.74190  0.01410  Biso   1.000  O
  O20      1.0000 0.94970  0.25810  0.98590  Biso   1.000  O
  H3       1.0000 0.08790  0.66550  0.07360  Biso   1.000  H
  H4       1.0000 0.91210  0.33450  0.92640  Biso   1.000  H
  N1       1.0000 0.08340  0.81460  0.78010  Biso   1.000  N
  N2       1.0000 0.91660  0.18540  0.21990  Biso   1.000  N
  N3       1.0000 0.18900  0.87470  0.80640  Biso   1.000  N
  N4       1.0000 0.81100  0.12530  0.19360  Biso   1.000  N
  N5       1.0000 0.26430  0.95410  0.71000  Biso   1.000  N
  N6       1.0000 0.73570  0.04590  0.29000  Biso   1.000  N
  N7       1.0000 0.36400  0.89640  0.24430  Biso   1.000  N
  N8       1.0000 0.63600  0.10360  0.75570  Biso   1.000  N
  N9       1.0000 0.34240  0.92350  0.13280  Biso   1.000  N
  N10      1.0000 0.65760  0.07650  0.86720  Biso   1.000  N
  N11      1.0000 0.21100  0.87170  0.12630  Biso   1.000  N
  N12      1.0000 0.78900  0.12830  0.87370  Biso   1.000  N
  C1       1.0000 0.20600  0.94670  0.61760  Biso   1.000  C
  C2       1.0000 0.79400  0.05330  0.38240  Biso   1.000  C
  H5       1.0000 0.23720  0.99360  0.53690  Biso   1.000  H
  H6       1.0000 0.76280  0.00640  0.46310  Biso   1.000  H
  C3       1.0000 0.09290  0.85870  0.66220  Biso   1.000  C
  C4       1.0000 0.90710  0.14130  0.33780  Biso   1.000  C
  H7       1.0000 0.03160  0.83310  0.61750  Biso   1.000  H
  H8       1.0000 0.96840  0.16690  0.38250  Biso   1.000  H
  H9       1.0000 0.05240  0.76440  0.25960  Biso   1.000  H
  H10      1.0000 0.94760  0.23560  0.74040  Biso   1.000  H
  H11      1.0000 0.22160  0.79630  0.39510  Biso   1.000  H
  H12      1.0000 0.77840  0.20370  0.60490  Biso   1.000  H
  C5       1.0000 0.14600  0.81070  0.23720  Biso   1.000  C
  C6       1.0000 0.85400  0.18930  0.76280  Biso   1.000  C
  C7       1.0000 0.23990  0.82730  0.31190  Biso   1.000  C
  C8       1.0000 0.76010  0.17270  0.68810  Biso   1.000  C
  C9       1.0000 0.62700  0.60900  0.73090  Biso   1.000  C
  C10      1.0000 0.37300  0.39100  0.26910  Biso   1.000  C
  C11      1.0000 0.57730  0.63750  0.61920  Biso   1.000  C
  C12      1.0000 0.42270  0.36250  0.38080  Biso   1.000  C
  C13      1.0000 0.44700  0.57750  0.61200  Biso   1.000  C
  C14      1.0000 0.55300  0.42250  0.38800  Biso   1.000  C
  H13      1.0000 0.41280  0.59630  0.53650  Biso   1.000  H
  H14      1.0000 0.58720  0.40370  0.46350  Biso   1.000  H
  C15      1.0000 0.36480  0.49150  0.71000  Biso   1.000  C
  C16      1.0000 0.63520  0.50850  0.29000  Biso   1.000  C
  C17      1.0000 0.42220  0.45760  0.82190  Biso   1.000  C
  C18      1.0000 0.57780  0.54240  0.17810  Biso   1.000  C
  C19      1.0000 0.55490  0.51560  0.82840  Biso   1.000  C
  C20      1.0000 0.44510  0.48440  0.17160  Biso   1.000  C
  H15      1.0000 0.59760  0.48970  0.90310  Biso   1.000  H
  H16      1.0000 0.40240  0.51030  0.09690  Biso   1.000  H
  C21      1.0000 0.73800  0.69530  0.74710  Biso   1.000  C
  C22      1.0000 0.26200  0.30470  0.25290  Biso   1.000  C
  C23      1.0000 0.65040  0.73590  0.50760  Biso   1.000  C
  C24      1.0000 0.34960  0.26410  0.49240  Biso   1.000  C
  C25      1.0000 0.21870  0.44150  0.68850  Biso   1.000  C
  C26      1.0000 0.78130  0.55850  0.31150  Biso   1.000  C
  C27      1.0000 0.33940  0.37200  0.93590  Biso   1.000  C
  C28      1.0000 0.66060  0.62800  0.06410  Biso   1.000  C
