data_image0
_cell_length_a       8.6725
_cell_length_b       8.8145
_cell_length_c       13.398
_cell_angle_alpha    78.991
_cell_angle_beta     73.52
_cell_angle_gamma    82.909

_symmetry_space_group_name_H-M    "P 1"
_symmetry_int_tables_number       1

loop_
  _symmetry_equiv_pos_as_xyz
  'x, y, z'

loop_
  _atom_site_label
  _atom_site_occupancy
  _atom_site_fract_x
  _atom_site_fract_y
  _atom_site_fract_z
  _atom_site_thermal_displace_type
  _atom_site_B_iso_or_equiv
  _atom_site_type_symbol
  Cu1      1.0000 0.27201  0.52948  0.24032  Biso   1.000  Cu
  Cu2      1.0000 0.72799  0.47052  0.75968  Biso   1.000  Cu
  Cu3      1.0000 0.14176  0.36953  0.07062  Biso   1.000  Cu
  Cu4      1.0000 0.85824  0.63047  0.92938  Biso   1.000  Cu
  Cu5      1.0000 0.50000  0.50000  0.00000  Biso   1.000  Cu
  Cu6      1.0000 0.00000  0.50000  0.50000  Biso   1.000  Cu
  O1       1.0000 0.32890  0.40800  0.11880  Biso   1.000  O
  O2       1.0000 0.67110  0.59200  0.88120  Biso   1.000  O
  H1       1.0000 0.37430  0.30590  0.14510  Biso   1.000  H
  H2       1.0000 0.62570  0.69410  0.85490  Biso   1.000  H
  N1       1.0000 0.48380  0.62020  0.18910  Biso   1.000  N
  N2       1.0000 0.51620  0.37980  0.81090  Biso   1.000  N
  N3       1.0000 0.56730  0.60570  0.09150  Biso   1.000  N
  N4       1.0000 0.43270  0.39430  0.90850  Biso   1.000  N
  N5       1.0000 0.70870  0.66570  0.06920  Biso   1.000  N
  N6       1.0000 0.29130  0.33430  0.93080  Biso   1.000  N
  N7       1.0000 0.95550  0.42780  0.37800  Biso   1.000  N
  N8       1.0000 0.04450  0.57220  0.62200  Biso   1.000  N
  N9       1.0000 0.06130  0.43790  0.28320  Biso   1.000  N
  N10      1.0000 0.93870  0.56210  0.71680  Biso   1.000  N
  N11      1.0000 0.00430  0.37640  0.21880  Biso   1.000  N
  N12      1.0000 0.99570  0.62360  0.78120  Biso   1.000  N
  N13      1.0000 0.02780  0.71630  0.96140  Biso   1.000  N
  N14      1.0000 0.97220  0.28370  0.03860  Biso   1.000  N
  N15      1.0000 0.14030  0.61420  0.00540  Biso   1.000  N
  N16      1.0000 0.85970  0.38580  0.99460  Biso   1.000  N
  N17      1.0000 0.27470  0.69800  0.99620  Biso   1.000  N
  N18      1.0000 0.72530  0.30200  0.00380  Biso   1.000  N
  C1       1.0000 0.24530  0.85200  0.94650  Biso   1.000  C
  C2       1.0000 0.75470  0.14800  0.05350  Biso   1.000  C
  H3       1.0000 0.31390  0.93140  0.93070  Biso   1.000  H
  H4       1.0000 0.68610  0.06860  0.06930  Biso   1.000  H
  C3       1.0000 0.09280  0.86330  0.92490  Biso   1.000  C
  C4       1.0000 0.90720  0.13670  0.07510  Biso   1.000  C
  H5       1.0000 0.04400  0.95150  0.89260  Biso   1.000  H
  H6       1.0000 0.95600  0.04850  0.10740  Biso   1.000  H
  N19      1.0000 0.19720  0.85420  0.27030  Biso   1.000  N
  N20      1.0000 0.80280  0.14580  0.72970  Biso   1.000  N
  N21      1.0000 0.17510  0.70760  0.31420  Biso   1.000  N
  N22      1.0000 0.82490  0.29240  0.68580  Biso   1.000  N
  N23      1.0000 0.06680  0.69840  0.40900  Biso   1.000  N
  N24      1.0000 0.93320  0.30160  0.59100  Biso   1.000  N
  O3       1.0000 0.43510  0.19200  0.24720  Biso   1.000  O
  O4       1.0000 0.56490  0.80800  0.75280  Biso   1.000  O
  O5       1.0000 0.34850  0.35750  0.35590  Biso   1.000  O
  O6       1.0000 0.65150  0.64250  0.64410  Biso   1.000  O
  C5       1.0000 0.40980  0.22980  0.33420  Biso   1.000  C
  C6       1.0000 0.59020  0.77020  0.66580  Biso   1.000  C
  C7       1.0000 0.45720  0.10930  0.42100  Biso   1.000  C
  C8       1.0000 0.54280  0.89070  0.57900  Biso   1.000  C
  C9       1.0000 0.41480  0.13790  0.52410  Biso   1.000  C
  C10      1.0000 0.58520  0.86210  0.47590  Biso   1.000  C
  H7       1.0000 0.35760  0.23040  0.54040  Biso   1.000  H
  H8       1.0000 0.64240  0.76960  0.45960  Biso   1.000  H
  C11      1.0000 0.54230  0.97130  0.39730  Biso   1.000  C
  C12      1.0000 0.45770  0.02870  0.60270  Biso   1.000  C
  H9       1.0000 0.57080  0.95190  0.32840  Biso   1.000  H
  H10      1.0000 0.42920  0.04810  0.67160  Biso   1.000  H
  C13      1.0000 0.71650  0.71840  0.15430  Biso   1.000  C
  C14      1.0000 0.28350  0.28160  0.84570  Biso   1.000  C
  H11      1.0000 0.80270  0.76450  0.16160  Biso   1.000  H
  H12      1.0000 0.19730  0.23550  0.83840  Biso   1.000  H
  C15      1.0000 0.57270  0.69140  0.22950  Biso   1.000  C
  C16      1.0000 0.42730  0.30860  0.77050  Biso   1.000  C
  H13      1.0000 0.54310  0.71820  0.29660  Biso   1.000  H
  H14      1.0000 0.45690  0.28180  0.70340  Biso   1.000  H
  C17      1.0000 0.85710  0.32800  0.27370  Biso   1.000  C
  C18      1.0000 0.14290  0.67200  0.72630  Biso   1.000  C
  H15      1.0000 0.78820  0.28170  0.24850  Biso   1.000  H
  H16      1.0000 0.21180  0.71830  0.75150  Biso   1.000  H
  C19      1.0000 0.82920  0.36040  0.37320  Biso   1.000  C
  C20      1.0000 0.17080  0.63960  0.62680  Biso   1.000  C
  H17      1.0000 0.73750  0.33890  0.42840  Biso   1.000  H
  H18      1.0000 0.26250  0.66110  0.57160  Biso   1.000  H
  C21      1.0000 0.01790  0.84310  0.42490  Biso   1.000  C
  C22      1.0000 0.98210  0.15690  0.57510  Biso   1.000  C
  H19      1.0000 0.94250  0.87250  0.48400  Biso   1.000  H
  H20      1.0000 0.05750  0.12750  0.51600  Biso   1.000  H
  C23      1.0000 0.09860  0.94120  0.33840  Biso   1.000  C
  C24      1.0000 0.90140  0.05880  0.66160  Biso   1.000  C
  H21      1.0000 0.08720  0.04890  0.32860  Biso   1.000  H
  H22      1.0000 0.91280  0.95110  0.67140  Biso   1.000  H
  O7       1.0000 0.36290  0.08390  0.10630  Biso   1.000  O
  O8       1.0000 0.63710  0.91610  0.89370  Biso   1.000  O
  N25      1.0000 0.02460  0.71390  0.96110  Biso   1.000  N
  N26      1.0000 0.97540  0.28610  0.03890  Biso   1.000  N
  N27      1.0000 0.10920  0.62270  0.03090  Biso   1.000  N
  N28      1.0000 0.89080  0.37730  0.96910  Biso   1.000  N
  N29      1.0000 0.20970  0.72000  0.05330  Biso   1.000  N
  N30      1.0000 0.79030  0.28000  0.94670  Biso   1.000  N
  C25      1.0000 0.18720  0.87140  0.99730  Biso   1.000  C
  C26      1.0000 0.81280  0.12860  0.00270  Biso   1.000  C
  H23      1.0000 0.23840  0.95780  0.99790  Biso   1.000  H
  H24      1.0000 0.76160  0.04220  0.00210  Biso   1.000  H
  C27      1.0000 0.07280  0.86760  0.94040  Biso   1.000  C
  C28      1.0000 0.92720  0.13240  0.05960  Biso   1.000  C
  H25      1.0000 0.03590  0.95100  0.89700  Biso   1.000  H
  H26      1.0000 0.96410  0.04900  0.10300  Biso   1.000  H
  O9       1.0000 0.38550  0.31900  0.31440  Biso   1.000  O
  O10      1.0000 0.61450  0.68100  0.68560  Biso   1.000  O
  O11      1.0000 0.26950  0.37460  0.47080  Biso   1.000  O
  O12      1.0000 0.73050  0.62540  0.52920  Biso   1.000  O
  C29      1.0000 0.35590  0.28930  0.41120  Biso   1.000  C
  C30      1.0000 0.64410  0.71070  0.58880  Biso   1.000  C
  C31      1.0000 0.43100  0.13830  0.45770  Biso   1.000  C
  C32      1.0000 0.56900  0.86170  0.54230  Biso   1.000  C
  C33      1.0000 0.39430  0.09260  0.56610  Biso   1.000  C
  C34      1.0000 0.60570  0.90740  0.43390  Biso   1.000  C
  H27      1.0000 0.32330  0.15490  0.61040  Biso   1.000  H
  H28      1.0000 0.67670  0.84510  0.38960  Biso   1.000  H
  C35      1.0000 0.53690  0.04560  0.39140  Biso   1.000  C
  C36      1.0000 0.46310  0.95440  0.60860  Biso   1.000  C
  H29      1.0000 0.56150  0.07640  0.31860  Biso   1.000  H
  H30      1.0000 0.43850  0.92360  0.68140  Biso   1.000  H
  O13      1.0000 0.43380  0.99530  0.09010  Biso   1.000  O
  O14      1.0000 0.56620  0.00470  0.90990  Biso   1.000  O
  O15      1.0000 0.46100  0.53200  0.47480  Biso   1.000  O
  O16      1.0000 0.53900  0.46800  0.52520  Biso   1.000  O
