data_image0
_cell_length_a       8.387
_cell_length_b       8.4427
_cell_length_c       10.0939
_cell_angle_alpha    113.94
_cell_angle_beta     94.123
_cell_angle_gamma    95.509

_symmetry_space_group_name_H-M    "P 1"
_symmetry_int_tables_number       1

loop_
  _symmetry_equiv_pos_as_xyz
  'x, y, z'

loop_
  _atom_site_label
  _atom_site_occupancy
  _atom_site_fract_x
  _atom_site_fract_y
  _atom_site_fract_z
  _atom_site_thermal_displace_type
  _atom_site_B_iso_or_equiv
  _atom_site_type_symbol
  Cu1      1.0000 0.29259  0.23314  0.61551  Biso   1.000  Cu
  Cu2      1.0000 0.70741  0.76686  0.38449  Biso   1.000  Cu
  Cu3      1.0000 0.11009  0.85323  0.49238  Biso   1.000  Cu
  Cu4      1.0000 0.88991  0.14677  0.50762  Biso   1.000  Cu
  Cu5      1.0000 0.50000  0.50000  0.50000  Biso   1.000  Cu
  O1       1.0000 0.29190  0.84020  0.61780  Biso   1.000  O
  O2       1.0000 0.70810  0.15980  0.38220  Biso   1.000  O
  O3       1.0000 0.41360  0.11980  0.71387  Biso   1.000  O
  O4       1.0000 0.58640  0.88020  0.28613  Biso   1.000  O
  O5       1.0000 0.73820  0.06530  0.61454  Biso   1.000  O
  O6       1.0000 0.26180  0.93470  0.38546  Biso   1.000  O
  O7       1.0000 0.84130  0.26890  0.83380  Biso   1.000  O
  O8       1.0000 0.15870  0.73110  0.16620  Biso   1.000  O
  O9       1.0000 0.48700  0.35910  0.60660  Biso   1.000  O
  O10      1.0000 0.51300  0.64090  0.39340  Biso   1.000  O
  H1       1.0000 0.56090  0.29750  0.60310  Biso   1.000  H
  H2       1.0000 0.43910  0.70250  0.39690  Biso   1.000  H
  O11      1.0000 0.07890  0.13400  0.62684  Biso   1.000  O
  O12      1.0000 0.92110  0.86600  0.37316  Biso   1.000  O
  H3       1.0000 0.06270  0.16370  0.71430  Biso   1.000  H
  H4       1.0000 0.93730  0.83630  0.28570  Biso   1.000  H
  N1       1.0000 0.26520  0.42080  0.42980  Biso   1.000  N
  N2       1.0000 0.73480  0.57920  0.57020  Biso   1.000  N
  N3       1.0000 0.18730  0.32680  0.48890  Biso   1.000  N
  N4       1.0000 0.81270  0.67320  0.51110  Biso   1.000  N
  N5       1.0000 0.03400  0.27920  0.42910  Biso   1.000  N
  N6       1.0000 0.96600  0.72080  0.57090  Biso   1.000  N
  C1       1.0000 0.01430  0.34550  0.32900  Biso   1.000  C
  C2       1.0000 0.98570  0.65450  0.67100  Biso   1.000  C
  H5       1.0000 0.91730  0.33260  0.26870  Biso   1.000  H
  H6       1.0000 0.08270  0.66740  0.73130  Biso   1.000  H
  C3       1.0000 0.15980  0.43480  0.33020  Biso   1.000  C
  C4       1.0000 0.84020  0.56520  0.66980  Biso   1.000  C
  H7       1.0000 0.18200  0.49580  0.27110  Biso   1.000  H
  H8       1.0000 0.81800  0.50420  0.72890  Biso   1.000  H
  C5       1.0000 0.52990  0.91770  0.78140  Biso   1.000  C
  C6       1.0000 0.47010  0.08230  0.21860  Biso   1.000  C
  C7       1.0000 0.68740  0.01050  0.82180  Biso   1.000  C
  C8       1.0000 0.31260  0.98950  0.17820  Biso   1.000  C
  C9       1.0000 0.79130  0.98300  0.92090  Biso   1.000  C
  C10      1.0000 0.20870  0.01700  0.07910  Biso   1.000  C
  H9       1.0000 0.89620  0.04830  0.95150  Biso   1.000  H
  H10      1.0000 0.10380  0.95170  0.04850  Biso   1.000  H
  C11      1.0000 0.74520  0.86180  0.97680  Biso   1.000  C
  C12      1.0000 0.25480  0.13820  0.02320  Biso   1.000  C
  H11      1.0000 0.81820  0.84490  0.04480  Biso   1.000  H
  H12      1.0000 0.18180  0.15510  0.95520  Biso   1.000  H
  C13      1.0000 0.59230  0.76570  0.93270  Biso   1.000  C
  C14      1.0000 0.40770  0.23430  0.06730  Biso   1.000  C
  H13      1.0000 0.56080  0.68080  0.96860  Biso   1.000  H
  H14      1.0000 0.43920  0.31920  0.03140  Biso   1.000  H
  C15      1.0000 0.48630  0.79460  0.83610  Biso   1.000  C
  C16      1.0000 0.51370  0.20540  0.16390  Biso   1.000  C
  H15      1.0000 0.38150  0.72920  0.80640  Biso   1.000  H
  H16      1.0000 0.61850  0.27080  0.19360  Biso   1.000  H
  C17      1.0000 0.40310  0.96290  0.69600  Biso   1.000  C
  C18      1.0000 0.59690  0.03710  0.30400  Biso   1.000  C
  C19      1.0000 0.75750  0.12760  0.75410  Biso   1.000  C
  C20      1.0000 0.24250  0.87240  0.24590  Biso   1.000  C
  O13      1.0000 0.83110  0.51490  0.12500  Biso   1.000  O
  O14      1.0000 0.16890  0.48510  0.87500  Biso   1.000  O
  H17      1.0000 0.81220  0.43490  0.04010  Biso   1.000  H
  H18      1.0000 0.18780  0.56510  0.95990  Biso   1.000  H
  H19      1.0000 0.92570  0.56580  0.13760  Biso   1.000  H
  H20      1.0000 0.07430  0.43420  0.86240  Biso   1.000  H
