data_image0
_cell_length_a       16.578
_cell_length_b       15.421
_cell_length_c       11.988
_cell_angle_alpha    90
_cell_angle_beta     90
_cell_angle_gamma    90

_symmetry_space_group_name_H-M    "P 1"
_symmetry_int_tables_number       1

loop_
  _symmetry_equiv_pos_as_xyz
  'x, y, z'

loop_
  _atom_site_label
  _atom_site_occupancy
  _atom_site_fract_x
  _atom_site_fract_y
  _atom_site_fract_z
  _atom_site_thermal_displace_type
  _atom_site_B_iso_or_equiv
  _atom_site_type_symbol
  Cu1      1.0000 0.76481  0.84915  0.45679  Biso   1.000  Cu
  Cu2      1.0000 0.23519  0.15085  0.95679  Biso   1.000  Cu
  Cu3      1.0000 0.26481  0.65085  0.45679  Biso   1.000  Cu
  Cu4      1.0000 0.73519  0.34915  0.95679  Biso   1.000  Cu
  Cu5      1.0000 0.75795  0.86990  0.94236  Biso   1.000  Cu
  Cu6      1.0000 0.24205  0.13010  0.44236  Biso   1.000  Cu
  Cu7      1.0000 0.25795  0.63010  0.94236  Biso   1.000  Cu
  Cu8      1.0000 0.74205  0.36990  0.44236  Biso   1.000  Cu
  O1       1.0000 0.92200  0.87750  0.95610  Biso   1.000  O
  O2       1.0000 0.07800  0.12250  0.45610  Biso   1.000  O
  O3       1.0000 0.42200  0.62250  0.95610  Biso   1.000  O
  O4       1.0000 0.57800  0.37750  0.45610  Biso   1.000  O
  O5       1.0000 0.83401  0.87890  0.81880  Biso   1.000  O
  O6       1.0000 0.16599  0.12110  0.31880  Biso   1.000  O
  O7       1.0000 0.33401  0.62110  0.81880  Biso   1.000  O
  O8       1.0000 0.66599  0.37890  0.31880  Biso   1.000  O
  C1       1.0000 0.90510  0.88410  0.85680  Biso   1.000  C
  C2       1.0000 0.09490  0.11590  0.35680  Biso   1.000  C
  C3       1.0000 0.40510  0.61590  0.85680  Biso   1.000  C
  C4       1.0000 0.59490  0.38410  0.35680  Biso   1.000  C
  C5       1.0000 0.96950  0.90330  0.77240  Biso   1.000  C
  C6       1.0000 0.03050  0.09670  0.27240  Biso   1.000  C
  C7       1.0000 0.46950  0.59670  0.77240  Biso   1.000  C
  C8       1.0000 0.53050  0.40330  0.27240  Biso   1.000  C
  C9       1.0000 0.04880  0.90950  0.80900  Biso   1.000  C
  C10      1.0000 0.95120  0.09050  0.30900  Biso   1.000  C
  C11      1.0000 0.54880  0.59050  0.80900  Biso   1.000  C
  C12      1.0000 0.45120  0.40950  0.30900  Biso   1.000  C
  H1       1.0000 0.06080  0.90000  0.88380  Biso   1.000  H
  H2       1.0000 0.93920  0.10000  0.38380  Biso   1.000  H
  H3       1.0000 0.56080  0.60000  0.88380  Biso   1.000  H
  H4       1.0000 0.43920  0.40000  0.38380  Biso   1.000  H
  C13      1.0000 0.10930  0.92940  0.73550  Biso   1.000  C
  C14      1.0000 0.89070  0.07060  0.23550  Biso   1.000  C
  C15      1.0000 0.60930  0.57060  0.73550  Biso   1.000  C
  C16      1.0000 0.39070  0.42940  0.23550  Biso   1.000  C
  H5       1.0000 0.16230  0.93220  0.76060  Biso   1.000  H
  H6       1.0000 0.83770  0.06780  0.26060  Biso   1.000  H
  H7       1.0000 0.66230  0.56780  0.76060  Biso   1.000  H
  H8       1.0000 0.33770  0.43220  0.26060  Biso   1.000  H
  C17      1.0000 0.09240  0.94530  0.62530  Biso   1.000  C
  C18      1.0000 0.90760  0.05470  0.12530  Biso   1.000  C
  C19      1.0000 0.59240  0.55470  0.62530  Biso   1.000  C
  C20      1.0000 0.40760  0.44530  0.12530  Biso   1.000  C
  H9       1.0000 0.13360  0.95940  0.57580  Biso   1.000  H
  H10      1.0000 0.86640  0.04060  0.07580  Biso   1.000  H
  H11      1.0000 0.63360  0.54060  0.57580  Biso   1.000  H
  H12      1.0000 0.36640  0.45940  0.07580  Biso   1.000  H
  C21      1.0000 0.01430  0.94010  0.58920  Biso   1.000  C
  C22      1.0000 0.98570  0.05990  0.08920  Biso   1.000  C
  C23      1.0000 0.51430  0.55990  0.58920  Biso   1.000  C
  C24      1.0000 0.48570  0.44010  0.08920  Biso   1.000  C
  H13      1.0000 0.00280  0.95160  0.51470  Biso   1.000  H
  H14      1.0000 0.99720  0.04840  0.01470  Biso   1.000  H
  H15      1.0000 0.50280  0.54840  0.51470  Biso   1.000  H
  H16      1.0000 0.49720  0.45160  0.01470  Biso   1.000  H
  C25      1.0000 0.95180  0.91840  0.66050  Biso   1.000  C
  C26      1.0000 0.04820  0.08160  0.16050  Biso   1.000  C
  C27      1.0000 0.45180  0.58160  0.66050  Biso   1.000  C
  C28      1.0000 0.54820  0.41840  0.16050  Biso   1.000  C
  C29      1.0000 0.86900  0.91120  0.60900  Biso   1.000  C
  C30      1.0000 0.13100  0.08880  0.10900  Biso   1.000  C
  C31      1.0000 0.36900  0.58880  0.60900  Biso   1.000  C
  C32      1.0000 0.63100  0.41120  0.10900  Biso   1.000  C
  O9       1.0000 0.82890  0.97720  0.59450  Biso   1.000  O
  O10      1.0000 0.17110  0.02280  0.09450  Biso   1.000  O
  O11      1.0000 0.32890  0.52280  0.59450  Biso   1.000  O
  O12      1.0000 0.67110  0.47720  0.09450  Biso   1.000  O
  O13      1.0000 0.85000  0.83640  0.57300  Biso   1.000  O
  O14      1.0000 0.15000  0.16360  0.07300  Biso   1.000  O
  O15      1.0000 0.35000  0.66360  0.57300  Biso   1.000  O
  O16      1.0000 0.65000  0.33640  0.07300  Biso   1.000  O
  O17      1.0000 0.65590  0.76950  0.27570  Biso   1.000  O
  O18      1.0000 0.34410  0.23050  0.77570  Biso   1.000  O
  O19      1.0000 0.15590  0.73050  0.27570  Biso   1.000  O
  O20      1.0000 0.84410  0.26950  0.77570  Biso   1.000  O
  O21      1.0000 0.68704  0.89730  0.35100  Biso   1.000  O
  O22      1.0000 0.31296  0.10270  0.85100  Biso   1.000  O
  O23      1.0000 0.18704  0.60270  0.35100  Biso   1.000  O
  O24      1.0000 0.81296  0.39730  0.85100  Biso   1.000  O
  C33      1.0000 0.64560  0.84730  0.29090  Biso   1.000  C
  C34      1.0000 0.35440  0.15270  0.79090  Biso   1.000  C
  C35      1.0000 0.14560  0.65270  0.29090  Biso   1.000  C
  C36      1.0000 0.85440  0.34730  0.79090  Biso   1.000  C
  C37      1.0000 0.57030  0.88960  0.24090  Biso   1.000  C
  C38      1.0000 0.42970  0.11040  0.74090  Biso   1.000  C
  C39      1.0000 0.07030  0.61040  0.24090  Biso   1.000  C
  C40      1.0000 0.92970  0.38960  0.74090  Biso   1.000  C
  C41      1.0000 0.51630  0.92720  0.31390  Biso   1.000  C
  C42      1.0000 0.48370  0.07280  0.81390  Biso   1.000  C
  C43      1.0000 0.01630  0.57280  0.31390  Biso   1.000  C
  C44      1.0000 0.98370  0.42720  0.81390  Biso   1.000  C
  H17      1.0000 0.52940  0.93110  0.38910  Biso   1.000  H
  H18      1.0000 0.47060  0.06890  0.88910  Biso   1.000  H
  H19      1.0000 0.02940  0.56890  0.38910  Biso   1.000  H
  H20      1.0000 0.97060  0.43110  0.88910  Biso   1.000  H
  C45      1.0000 0.44310  0.95930  0.27760  Biso   1.000  C
  C46      1.0000 0.55690  0.04070  0.77760  Biso   1.000  C
  C47      1.0000 0.94310  0.54070  0.27760  Biso   1.000  C
  C48      1.0000 0.05690  0.45930  0.77760  Biso   1.000  C
  H21      1.0000 0.40730  0.98420  0.32810  Biso   1.000  H
  H22      1.0000 0.59270  0.01580  0.82810  Biso   1.000  H
  H23      1.0000 0.90730  0.51580  0.32810  Biso   1.000  H
  H24      1.0000 0.09270  0.48420  0.82810  Biso   1.000  H
  C49      1.0000 0.42350  0.95410  0.16670  Biso   1.000  C
  C50      1.0000 0.57650  0.04590  0.66670  Biso   1.000  C
  C51      1.0000 0.92350  0.54590  0.16670  Biso   1.000  C
  C52      1.0000 0.07650  0.45410  0.66670  Biso   1.000  C
  H25      1.0000 0.37380  0.97440  0.14170  Biso   1.000  H
  H26      1.0000 0.62620  0.02560  0.64170  Biso   1.000  H
  H27      1.0000 0.87380  0.52560  0.14170  Biso   1.000  H
  H28      1.0000 0.12620  0.47440  0.64170  Biso   1.000  H
  C53      1.0000 0.47760  0.91860  0.09220  Biso   1.000  C
  C54      1.0000 0.52240  0.08140  0.59220  Biso   1.000  C
  C55      1.0000 0.97760  0.58140  0.09220  Biso   1.000  C
  C56      1.0000 0.02240  0.41860  0.59220  Biso   1.000  C
  H29      1.0000 0.46430  0.91570  0.01690  Biso   1.000  H
  H30      1.0000 0.53570  0.08430  0.51690  Biso   1.000  H
  H31      1.0000 0.96430  0.58430  0.01690  Biso   1.000  H
  H32      1.0000 0.03570  0.41570  0.51690  Biso   1.000  H
  C57      1.0000 0.55110  0.88740  0.12760  Biso   1.000  C
  C58      1.0000 0.44890  0.11260  0.62760  Biso   1.000  C
  C59      1.0000 0.05110  0.61260  0.12760  Biso   1.000  C
  C60      1.0000 0.94890  0.38740  0.62760  Biso   1.000  C
  C61      1.0000 0.61080  0.86130  0.04000  Biso   1.000  C
  C62      1.0000 0.38920  0.13870  0.54000  Biso   1.000  C
  C63      1.0000 0.11080  0.63870  0.04000  Biso   1.000  C
  C64      1.0000 0.88920  0.36130  0.54000  Biso   1.000  C
  O25      1.0000 0.58890  0.84370  0.94520  Biso   1.000  O
  O26      1.0000 0.41110  0.15630  0.44520  Biso   1.000  O
  O27      1.0000 0.08890  0.65630  0.94520  Biso   1.000  O
  O28      1.0000 0.91110  0.34370  0.44520  Biso   1.000  O
  O29      1.0000 0.68504  0.86800  0.06930  Biso   1.000  O
  O30      1.0000 0.31496  0.13200  0.56930  Biso   1.000  O
  O31      1.0000 0.18504  0.63200  0.06930  Biso   1.000  O
  O32      1.0000 0.81496  0.36800  0.56930  Biso   1.000  O
  N1       1.0000 0.76850  0.74210  0.94190  Biso   1.000  N
  N2       1.0000 0.23150  0.25790  0.44190  Biso   1.000  N
  N3       1.0000 0.26850  0.75790  0.94190  Biso   1.000  N
  N4       1.0000 0.73150  0.24210  0.44190  Biso   1.000  N
  C65      1.0000 0.81150  0.69100  0.87060  Biso   1.000  C
  C66      1.0000 0.18850  0.30900  0.37060  Biso   1.000  C
  C67      1.0000 0.31150  0.80900  0.87060  Biso   1.000  C
  C68      1.0000 0.68850  0.19100  0.37060  Biso   1.000  C
  H33      1.0000 0.84420  0.71060  0.81280  Biso   1.000  H
  H34      1.0000 0.15580  0.28940  0.31280  Biso   1.000  H
  H35      1.0000 0.34420  0.78940  0.81280  Biso   1.000  H
  H36      1.0000 0.65580  0.21060  0.31280  Biso   1.000  H
  C69      1.0000 0.79860  0.60760  0.89780  Biso   1.000  C
  C70      1.0000 0.20140  0.39240  0.39780  Biso   1.000  C
  C71      1.0000 0.29860  0.89240  0.89780  Biso   1.000  C
  C72      1.0000 0.70140  0.10760  0.39780  Biso   1.000  C
  H37      1.0000 0.82030  0.55930  0.86250  Biso   1.000  H
  H38      1.0000 0.17970  0.44070  0.36250  Biso   1.000  H
  H39      1.0000 0.32030  0.94070  0.86250  Biso   1.000  H
  H40      1.0000 0.67970  0.05930  0.36250  Biso   1.000  H
  C73      1.0000 0.73090  0.68920  0.01000  Biso   1.000  C
  C74      1.0000 0.26910  0.31080  0.51000  Biso   1.000  C
  C75      1.0000 0.23090  0.81080  0.01000  Biso   1.000  C
  C76      1.0000 0.76910  0.18920  0.51000  Biso   1.000  C
  H41      1.0000 0.69680  0.70650  0.06740  Biso   1.000  H
  H42      1.0000 0.30320  0.29350  0.56740  Biso   1.000  H
  H43      1.0000 0.19680  0.79350  0.06740  Biso   1.000  H
  H44      1.0000 0.80320  0.20650  0.56740  Biso   1.000  H
  N5       1.0000 0.74860  0.60740  0.98540  Biso   1.000  N
  N6       1.0000 0.25140  0.39260  0.48540  Biso   1.000  N
  N7       1.0000 0.24860  0.89260  0.98540  Biso   1.000  N
  N8       1.0000 0.75140  0.10740  0.48540  Biso   1.000  N
  H45      1.0000 0.73100  0.56220  0.01970  Biso   1.000  H
  H46      1.0000 0.26900  0.43780  0.51970  Biso   1.000  H
  H47      1.0000 0.23100  0.93780  0.01970  Biso   1.000  H
  H48      1.0000 0.76900  0.06220  0.51970  Biso   1.000  H
  N9       1.0000 0.74325  0.99850  0.93640  Biso   1.000  N
  N10      1.0000 0.25675  0.00150  0.43640  Biso   1.000  N
  N11      1.0000 0.24325  0.50150  0.93640  Biso   1.000  N
  N12      1.0000 0.75675  0.49850  0.43640  Biso   1.000  N
  C77      1.0000 0.70420  0.05060  0.01170  Biso   1.000  C
  C78      1.0000 0.29580  0.94940  0.51170  Biso   1.000  C
  C79      1.0000 0.20420  0.44940  0.01170  Biso   1.000  C
  C80      1.0000 0.79580  0.55060  0.51170  Biso   1.000  C
  H49      1.0000 0.67640  0.03130  0.07420  Biso   1.000  H
  H50      1.0000 0.32360  0.96870  0.57420  Biso   1.000  H
  H51      1.0000 0.17640  0.46870  0.07420  Biso   1.000  H
  H52      1.0000 0.82360  0.53130  0.57420  Biso   1.000  H
  C81      1.0000 0.71240  0.13260  0.98140  Biso   1.000  C
  C82      1.0000 0.28760  0.86740  0.48140  Biso   1.000  C
  C83      1.0000 0.21240  0.36740  0.98140  Biso   1.000  C
  C84      1.0000 0.78760  0.63260  0.48140  Biso   1.000  C
  H53      1.0000 0.69100  0.18060  0.01770  Biso   1.000  H
  H54      1.0000 0.30900  0.81940  0.51770  Biso   1.000  H
  H55      1.0000 0.19100  0.31940  0.01770  Biso   1.000  H
  H56      1.0000 0.80900  0.68060  0.51770  Biso   1.000  H
  C85      1.0000 0.77540  0.05160  0.86150  Biso   1.000  C
  C86      1.0000 0.22460  0.94840  0.36150  Biso   1.000  C
  C87      1.0000 0.27540  0.44840  0.86150  Biso   1.000  C
  C88      1.0000 0.72460  0.55160  0.36150  Biso   1.000  C
  H57      1.0000 0.80560  0.03430  0.80010  Biso   1.000  H
  H58      1.0000 0.19440  0.96570  0.30010  Biso   1.000  H
  H59      1.0000 0.30560  0.46570  0.80010  Biso   1.000  H
  H60      1.0000 0.69440  0.53430  0.30010  Biso   1.000  H
  N13      1.0000 0.75790  0.13330  0.88730  Biso   1.000  N
  N14      1.0000 0.24210  0.86670  0.38730  Biso   1.000  N
  N15      1.0000 0.25790  0.36670  0.88730  Biso   1.000  N
  N16      1.0000 0.74210  0.63330  0.38730  Biso   1.000  N
  H61      1.0000 0.77280  0.17860  0.85090  Biso   1.000  H
  H62      1.0000 0.22720  0.82140  0.35090  Biso   1.000  H
  H63      1.0000 0.27280  0.32140  0.85090  Biso   1.000  H
  H64      1.0000 0.72720  0.67860  0.35090  Biso   1.000  H
  N17      1.0000 0.84900  0.83650  0.34230  Biso   1.000  N
  N18      1.0000 0.15100  0.16350  0.84230  Biso   1.000  N
  N19      1.0000 0.34900  0.66350  0.34230  Biso   1.000  N
  N20      1.0000 0.65100  0.33650  0.84230  Biso   1.000  N
  C89      1.0000 0.84030  0.84930  0.23370  Biso   1.000  C
  C90      1.0000 0.15970  0.15070  0.73370  Biso   1.000  C
  C91      1.0000 0.34030  0.65070  0.23370  Biso   1.000  C
  C92      1.0000 0.65970  0.34930  0.73370  Biso   1.000  C
  H65      1.0000 0.79240  0.86580  0.19930  Biso   1.000  H
  H66      1.0000 0.20760  0.13420  0.69930  Biso   1.000  H
  H67      1.0000 0.29240  0.63420  0.19930  Biso   1.000  H
  H68      1.0000 0.70760  0.36580  0.69930  Biso   1.000  H
  C93      1.0000 0.96470  0.81280  0.25630  Biso   1.000  C
  C94      1.0000 0.03530  0.18720  0.75630  Biso   1.000  C
  C95      1.0000 0.46470  0.68720  0.25630  Biso   1.000  C
  C96      1.0000 0.53530  0.31280  0.75630  Biso   1.000  C
  H69      1.0000 0.01840  0.79920  0.24240  Biso   1.000  H
  H70      1.0000 0.98160  0.20080  0.74240  Biso   1.000  H
  H71      1.0000 0.51840  0.70080  0.24240  Biso   1.000  H
  H72      1.0000 0.48160  0.29920  0.74240  Biso   1.000  H
  N21      1.0000 0.90920  0.83520  0.18060  Biso   1.000  N
  N22      1.0000 0.09080  0.16480  0.68060  Biso   1.000  N
  N23      1.0000 0.40920  0.66480  0.18060  Biso   1.000  N
  N24      1.0000 0.59080  0.33520  0.68060  Biso   1.000  N
  H73      1.0000 0.91690  0.83970  0.10990  Biso   1.000  H
  H74      1.0000 0.08310  0.16030  0.60990  Biso   1.000  H
  H75      1.0000 0.41690  0.66030  0.10990  Biso   1.000  H
  H76      1.0000 0.58310  0.33970  0.60990  Biso   1.000  H
  N25      1.0000 0.67710  0.82100  0.56290  Biso   1.000  N
  N26      1.0000 0.32290  0.17900  0.06290  Biso   1.000  N
  N27      1.0000 0.17710  0.67900  0.56290  Biso   1.000  N
  N28      1.0000 0.82290  0.32100  0.06290  Biso   1.000  N
  C97      1.0000 0.92810  0.81360  0.35540  Biso   1.000  C
  C98      1.0000 0.07190  0.18640  0.85540  Biso   1.000  C
  C99      1.0000 0.42810  0.68640  0.35540  Biso   1.000  C
  C100     1.0000 0.57190  0.31360  0.85540  Biso   1.000  C
  H77      1.0000 0.95270  0.80050  0.42310  Biso   1.000  H
  H78      1.0000 0.04730  0.19950  0.92310  Biso   1.000  H
  H79      1.0000 0.45270  0.69950  0.42310  Biso   1.000  H
  H80      1.0000 0.54730  0.30050  0.92310  Biso   1.000  H
  C101     1.0000 0.60050  0.79340  0.54380  Biso   1.000  C
  C102     1.0000 0.39950  0.20660  0.04380  Biso   1.000  C
  C103     1.0000 0.10050  0.70660  0.54380  Biso   1.000  C
  C104     1.0000 0.89950  0.29340  0.04380  Biso   1.000  C
  H81      1.0000 0.57910  0.78020  0.47410  Biso   1.000  H
  H82      1.0000 0.42090  0.21980  0.97410  Biso   1.000  H
  H83      1.0000 0.07910  0.71980  0.47410  Biso   1.000  H
  H84      1.0000 0.92090  0.28020  0.97410  Biso   1.000  H
  C105     1.0000 0.56070  0.78830  0.64040  Biso   1.000  C
  C106     1.0000 0.43930  0.21170  0.14040  Biso   1.000  C
  C107     1.0000 0.06070  0.71170  0.64040  Biso   1.000  C
  C108     1.0000 0.93930  0.28830  0.14040  Biso   1.000  C
  H85      1.0000 0.50740  0.77110  0.65050  Biso   1.000  H
  H86      1.0000 0.49260  0.22890  0.15050  Biso   1.000  H
  H87      1.0000 0.00740  0.72890  0.65050  Biso   1.000  H
  H88      1.0000 0.99260  0.27110  0.15050  Biso   1.000  H
  C109     1.0000 0.68160  0.83170  0.67120  Biso   1.000  C
  C110     1.0000 0.31840  0.16830  0.17120  Biso   1.000  C
  C111     1.0000 0.18160  0.66830  0.67120  Biso   1.000  C
  C112     1.0000 0.81840  0.33170  0.17120  Biso   1.000  C
  H89      1.0000 0.72760  0.85020  0.70870  Biso   1.000  H
  H90      1.0000 0.27240  0.14980  0.20870  Biso   1.000  H
  H91      1.0000 0.22760  0.64980  0.70870  Biso   1.000  H
  H92      1.0000 0.77240  0.35020  0.20870  Biso   1.000  H
  N29      1.0000 0.61290  0.81320  0.71980  Biso   1.000  N
  N30      1.0000 0.38710  0.18680  0.21980  Biso   1.000  N
  N31      1.0000 0.11290  0.68680  0.71980  Biso   1.000  N
  N32      1.0000 0.88710  0.31320  0.21980  Biso   1.000  N
  H93      1.0000 0.60300  0.81630  0.79010  Biso   1.000  H
  H94      1.0000 0.39700  0.18370  0.29010  Biso   1.000  H
  H95      1.0000 0.10300  0.68370  0.79010  Biso   1.000  H
  H96      1.0000 0.89700  0.31630  0.29010  Biso   1.000  H
