data_image0
_cell_length_a       11.67
_cell_length_b       11.175
_cell_length_c       14.073
_cell_angle_alpha    90
_cell_angle_beta     90
_cell_angle_gamma    90

_symmetry_space_group_name_H-M    "P 1"
_symmetry_int_tables_number       1

loop_
  _symmetry_equiv_pos_as_xyz
  'x, y, z'

loop_
  _atom_site_label
  _atom_site_occupancy
  _atom_site_fract_x
  _atom_site_fract_y
  _atom_site_fract_z
  _atom_site_thermal_displace_type
  _atom_site_B_iso_or_equiv
  _atom_site_type_symbol
  Cu1      1.0000 0.47660  0.11340  0.25000  Biso   1.000  Cu
  Cu2      1.0000 0.52340  0.88660  0.75000  Biso   1.000  Cu
  Cu3      1.0000 0.47660  0.38660  0.75000  Biso   1.000  Cu
  Cu4      1.0000 0.52340  0.61340  0.25000  Biso   1.000  Cu
  O1       1.0000 0.35820  0.13550  0.15590  Biso   1.000  O
  O2       1.0000 0.64180  0.86450  0.65590  Biso   1.000  O
  O3       1.0000 0.35820  0.36450  0.84410  Biso   1.000  O
  O4       1.0000 0.64180  0.63550  0.34410  Biso   1.000  O
  O5       1.0000 0.64180  0.86450  0.84410  Biso   1.000  O
  O6       1.0000 0.35820  0.13550  0.34410  Biso   1.000  O
  O7       1.0000 0.64180  0.63550  0.15590  Biso   1.000  O
  O8       1.0000 0.35820  0.36450  0.65590  Biso   1.000  O
  O9       1.0000 0.41770  0.31330  0.10130  Biso   1.000  O
  O10      1.0000 0.58230  0.68670  0.60130  Biso   1.000  O
  O11      1.0000 0.41770  0.18670  0.89870  Biso   1.000  O
  O12      1.0000 0.58230  0.81330  0.39870  Biso   1.000  O
  O13      1.0000 0.58230  0.68670  0.89870  Biso   1.000  O
  O14      1.0000 0.41770  0.31330  0.39870  Biso   1.000  O
  O15      1.0000 0.58230  0.81330  0.10130  Biso   1.000  O
  O16      1.0000 0.41770  0.18670  0.60130  Biso   1.000  O
  O17      1.0000 0.44880  0.89960  0.25000  Biso   1.000  O
  O18      1.0000 0.55120  0.10040  0.75000  Biso   1.000  O
  O19      1.0000 0.44880  0.60040  0.75000  Biso   1.000  O
  O20      1.0000 0.55120  0.39960  0.25000  Biso   1.000  O
  O21      1.0000 0.19610  0.93390  0.25000  Biso   1.000  O
  O22      1.0000 0.80390  0.06610  0.75000  Biso   1.000  O
  O23      1.0000 0.19610  0.56610  0.75000  Biso   1.000  O
  O24      1.0000 0.80390  0.43390  0.25000  Biso   1.000  O
  N1       1.0000 0.60580  0.09600  0.15610  Biso   1.000  N
  N2       1.0000 0.39420  0.90400  0.65610  Biso   1.000  N
  N3       1.0000 0.60580  0.40400  0.84390  Biso   1.000  N
  N4       1.0000 0.39420  0.59600  0.34390  Biso   1.000  N
  N5       1.0000 0.39420  0.90400  0.84390  Biso   1.000  N
  N6       1.0000 0.60580  0.09600  0.34390  Biso   1.000  N
  N7       1.0000 0.39420  0.59600  0.15610  Biso   1.000  N
  N8       1.0000 0.60580  0.40400  0.65610  Biso   1.000  N
  C1       1.0000 0.34740  0.23070  0.10520  Biso   1.000  C
  C2       1.0000 0.65260  0.76930  0.60520  Biso   1.000  C
  C3       1.0000 0.34740  0.26930  0.89480  Biso   1.000  C
  C4       1.0000 0.65260  0.73070  0.39480  Biso   1.000  C
  C5       1.0000 0.65260  0.76930  0.89480  Biso   1.000  C
  C6       1.0000 0.34740  0.23070  0.39480  Biso   1.000  C
  C7       1.0000 0.65260  0.73070  0.10520  Biso   1.000  C
  C8       1.0000 0.34740  0.26930  0.60520  Biso   1.000  C
  C9       1.0000 0.23820  0.23730  0.04840  Biso   1.000  C
  C10      1.0000 0.76180  0.76270  0.54840  Biso   1.000  C
  C11      1.0000 0.23820  0.26270  0.95160  Biso   1.000  C
  C12      1.0000 0.76180  0.73730  0.45160  Biso   1.000  C
  C13      1.0000 0.76180  0.76270  0.95160  Biso   1.000  C
  C14      1.0000 0.23820  0.23730  0.45160  Biso   1.000  C
  C15      1.0000 0.76180  0.73730  0.04840  Biso   1.000  C
  C16      1.0000 0.23820  0.26270  0.54840  Biso   1.000  C
  C17      1.0000 0.13460  0.22700  0.09590  Biso   1.000  C
  C18      1.0000 0.86540  0.77300  0.59590  Biso   1.000  C
  C19      1.0000 0.13460  0.27300  0.90410  Biso   1.000  C
  C20      1.0000 0.86540  0.72700  0.40410  Biso   1.000  C
  C21      1.0000 0.86540  0.77300  0.90410  Biso   1.000  C
  C22      1.0000 0.13460  0.22700  0.40410  Biso   1.000  C
  C23      1.0000 0.86540  0.72700  0.09590  Biso   1.000  C
  C24      1.0000 0.13460  0.27300  0.59590  Biso   1.000  C
  C25      1.0000 0.03080  0.23990  0.04870  Biso   1.000  C
  C26      1.0000 0.96920  0.76010  0.54870  Biso   1.000  C
  C27      1.0000 0.03080  0.26010  0.95130  Biso   1.000  C
  C28      1.0000 0.96920  0.73990  0.45130  Biso   1.000  C
  C29      1.0000 0.96920  0.76010  0.95130  Biso   1.000  C
  C30      1.0000 0.03080  0.23990  0.45130  Biso   1.000  C
  C31      1.0000 0.96920  0.73990  0.04870  Biso   1.000  C
  C32      1.0000 0.03080  0.26010  0.54870  Biso   1.000  C
  C33      1.0000 0.60250  0.09820  0.06070  Biso   1.000  C
  C34      1.0000 0.39750  0.90180  0.56070  Biso   1.000  C
  C35      1.0000 0.60250  0.40180  0.93930  Biso   1.000  C
  C36      1.0000 0.39750  0.59820  0.43930  Biso   1.000  C
  C37      1.0000 0.39750  0.90180  0.93930  Biso   1.000  C
  C38      1.0000 0.60250  0.09820  0.43930  Biso   1.000  C
  C39      1.0000 0.39750  0.59820  0.06070  Biso   1.000  C
  C40      1.0000 0.60250  0.40180  0.56070  Biso   1.000  C
  C41      1.0000 0.69970  0.07330  0.00540  Biso   1.000  C
  C42      1.0000 0.30030  0.92670  0.50540  Biso   1.000  C
  C43      1.0000 0.69970  0.42670  0.99460  Biso   1.000  C
  C44      1.0000 0.30030  0.57330  0.49460  Biso   1.000  C
  C45      1.0000 0.30030  0.92670  0.99460  Biso   1.000  C
  C46      1.0000 0.69970  0.07330  0.49460  Biso   1.000  C
  C47      1.0000 0.30030  0.57330  0.00540  Biso   1.000  C
  C48      1.0000 0.69970  0.42670  0.50540  Biso   1.000  C
  C49      1.0000 0.80060  0.04220  0.04880  Biso   1.000  C
  C50      1.0000 0.19940  0.95780  0.54880  Biso   1.000  C
  C51      1.0000 0.80060  0.45780  0.95120  Biso   1.000  C
  C52      1.0000 0.19940  0.54220  0.45120  Biso   1.000  C
  C53      1.0000 0.19940  0.95780  0.95120  Biso   1.000  C
  C54      1.0000 0.80060  0.04220  0.45120  Biso   1.000  C
  C55      1.0000 0.19940  0.54220  0.04880  Biso   1.000  C
  C56      1.0000 0.80060  0.45780  0.54880  Biso   1.000  C
  C57      1.0000 0.80630  0.03930  0.14950  Biso   1.000  C
  C58      1.0000 0.19370  0.96070  0.64950  Biso   1.000  C
  C59      1.0000 0.80630  0.46070  0.85050  Biso   1.000  C
  C60      1.0000 0.19370  0.53930  0.35050  Biso   1.000  C
  C61      1.0000 0.19370  0.96070  0.85050  Biso   1.000  C
  C62      1.0000 0.80630  0.03930  0.35050  Biso   1.000  C
  C63      1.0000 0.19370  0.53930  0.14950  Biso   1.000  C
  C64      1.0000 0.80630  0.46070  0.64950  Biso   1.000  C
  C65      1.0000 0.70760  0.06800  0.19960  Biso   1.000  C
  C66      1.0000 0.29240  0.93200  0.69960  Biso   1.000  C
  C67      1.0000 0.70760  0.43200  0.80040  Biso   1.000  C
  C68      1.0000 0.29240  0.56800  0.30040  Biso   1.000  C
  C69      1.0000 0.29240  0.93200  0.80040  Biso   1.000  C
  C70      1.0000 0.70760  0.06800  0.30040  Biso   1.000  C
  C71      1.0000 0.29240  0.56800  0.19960  Biso   1.000  C
  C72      1.0000 0.70760  0.43200  0.69960  Biso   1.000  C
  C73      1.0000 0.90700  0.01000  0.20120  Biso   1.000  C
  C74      1.0000 0.09300  0.99000  0.70120  Biso   1.000  C
  C75      1.0000 0.90700  0.49000  0.79880  Biso   1.000  C
  C76      1.0000 0.09300  0.51000  0.29880  Biso   1.000  C
  C77      1.0000 0.09300  0.99000  0.79880  Biso   1.000  C
  C78      1.0000 0.90700  0.01000  0.29880  Biso   1.000  C
  C79      1.0000 0.09300  0.51000  0.20120  Biso   1.000  C
  C80      1.0000 0.90700  0.49000  0.70120  Biso   1.000  C
  H1       1.0000 0.13300  0.19200  0.16200  Biso   1.000  H
  H2       1.0000 0.86700  0.80800  0.66200  Biso   1.000  H
  H3       1.0000 0.13300  0.30800  0.83800  Biso   1.000  H
  H4       1.0000 0.86700  0.69200  0.33800  Biso   1.000  H
  H5       1.0000 0.86700  0.80800  0.83800  Biso   1.000  H
  H6       1.0000 0.13300  0.19200  0.33800  Biso   1.000  H
  H7       1.0000 0.86700  0.69200  0.16200  Biso   1.000  H
  H8       1.0000 0.13300  0.30800  0.66200  Biso   1.000  H
  H9       1.0000 0.95000  0.24500  0.08400  Biso   1.000  H
  H10      1.0000 0.05000  0.75500  0.58400  Biso   1.000  H
  H11      1.0000 0.95000  0.25500  0.91600  Biso   1.000  H
  H12      1.0000 0.05000  0.74500  0.41600  Biso   1.000  H
  H13      1.0000 0.05000  0.75500  0.91600  Biso   1.000  H
  H14      1.0000 0.95000  0.24500  0.41600  Biso   1.000  H
  H15      1.0000 0.05000  0.74500  0.08400  Biso   1.000  H
  H16      1.0000 0.95000  0.25500  0.58400  Biso   1.000  H
  H17      1.0000 0.51900  0.11200  0.04000  Biso   1.000  H
  H18      1.0000 0.48100  0.88800  0.54000  Biso   1.000  H
  H19      1.0000 0.51900  0.38800  0.96000  Biso   1.000  H
  H20      1.0000 0.48100  0.61200  0.46000  Biso   1.000  H
  H21      1.0000 0.48100  0.88800  0.96000  Biso   1.000  H
  H22      1.0000 0.51900  0.11200  0.46000  Biso   1.000  H
  H23      1.0000 0.48100  0.61200  0.04000  Biso   1.000  H
  H24      1.0000 0.51900  0.38800  0.54000  Biso   1.000  H
  H25      1.0000 0.69300  0.08300  0.92600  Biso   1.000  H
  H26      1.0000 0.30700  0.91700  0.42600  Biso   1.000  H
  H27      1.0000 0.69300  0.41700  0.07400  Biso   1.000  H
  H28      1.0000 0.30700  0.58300  0.57400  Biso   1.000  H
  H29      1.0000 0.30700  0.91700  0.07400  Biso   1.000  H
  H30      1.0000 0.69300  0.08300  0.57400  Biso   1.000  H
  H31      1.0000 0.30700  0.58300  0.92600  Biso   1.000  H
  H32      1.0000 0.69300  0.41700  0.42600  Biso   1.000  H
  H33      1.0000 0.87600  0.03400  0.01100  Biso   1.000  H
  H34      1.0000 0.12400  0.96600  0.51100  Biso   1.000  H
  H35      1.0000 0.87600  0.46600  0.98900  Biso   1.000  H
  H36      1.0000 0.12400  0.53400  0.48900  Biso   1.000  H
  H37      1.0000 0.12400  0.96600  0.98900  Biso   1.000  H
  H38      1.0000 0.87600  0.03400  0.48900  Biso   1.000  H
  H39      1.0000 0.12400  0.53400  0.01100  Biso   1.000  H
  H40      1.0000 0.87600  0.46600  0.51100  Biso   1.000  H
  H41      1.0000 0.99200  0.97600  0.17400  Biso   1.000  H
  H42      1.0000 0.00800  0.02400  0.67400  Biso   1.000  H
  H43      1.0000 0.99200  0.52400  0.82600  Biso   1.000  H
  H44      1.0000 0.00800  0.47600  0.32600  Biso   1.000  H
  H45      1.0000 0.00800  0.02400  0.82600  Biso   1.000  H
  H46      1.0000 0.99200  0.97600  0.32600  Biso   1.000  H
  H47      1.0000 0.00800  0.47600  0.17400  Biso   1.000  H
  H48      1.0000 0.99200  0.52400  0.67400  Biso   1.000  H
