data_image0
_cell_length_a       11.1477
_cell_length_b       11.6365
_cell_length_c       14.0315
_cell_angle_alpha    90
_cell_angle_beta     90
_cell_angle_gamma    90

_symmetry_space_group_name_H-M    "P 1"
_symmetry_int_tables_number       1

loop_
  _symmetry_equiv_pos_as_xyz
  'x, y, z'

loop_
  _atom_site_label
  _atom_site_occupancy
  _atom_site_fract_x
  _atom_site_fract_y
  _atom_site_fract_z
  _atom_site_thermal_displace_type
  _atom_site_B_iso_or_equiv
  _atom_site_type_symbol
  Cu1      1.0000 0.11345  0.02332  0.20721  Biso   1.000  Cu
  Cu2      1.0000 0.88655  0.97668  0.70721  Biso   1.000  Cu
  Cu3      1.0000 0.61345  0.97668  0.20721  Biso   1.000  Cu
  Cu4      1.0000 0.38655  0.02332  0.70721  Biso   1.000  Cu
  N1       1.0000 0.09630  0.89460  0.30390  Biso   1.000  N
  N2       1.0000 0.90370  0.10540  0.80390  Biso   1.000  N
  N3       1.0000 0.59630  0.10540  0.30390  Biso   1.000  N
  N4       1.0000 0.40370  0.89460  0.80390  Biso   1.000  N
  N5       1.0000 0.09700  0.89410  0.11580  Biso   1.000  N
  N6       1.0000 0.90300  0.10590  0.61580  Biso   1.000  N
  N7       1.0000 0.59700  0.10590  0.11580  Biso   1.000  N
  N8       1.0000 0.40300  0.89410  0.61580  Biso   1.000  N
  C1       1.0000 0.09990  0.89740  0.39400  Biso   1.000  C
  C2       1.0000 0.90010  0.10260  0.89400  Biso   1.000  C
  C3       1.0000 0.59990  0.10260  0.39400  Biso   1.000  C
  C4       1.0000 0.40010  0.89740  0.89400  Biso   1.000  C
  H1       1.0000 0.12370  0.96460  0.42450  Biso   1.000  H
  H2       1.0000 0.87630  0.03540  0.92450  Biso   1.000  H
  H3       1.0000 0.62370  0.03540  0.42450  Biso   1.000  H
  H4       1.0000 0.37630  0.96460  0.92450  Biso   1.000  H
  C5       1.0000 0.06740  0.79730  0.45060  Biso   1.000  C
  C6       1.0000 0.93260  0.20270  0.95060  Biso   1.000  C
  C7       1.0000 0.56740  0.20270  0.45060  Biso   1.000  C
  C8       1.0000 0.43260  0.79730  0.95060  Biso   1.000  C
  H5       1.0000 0.06580  0.79990  0.51690  Biso   1.000  H
  H6       1.0000 0.93420  0.20010  0.01690  Biso   1.000  H
  H7       1.0000 0.56580  0.20010  0.51690  Biso   1.000  H
  H8       1.0000 0.43420  0.79990  0.01690  Biso   1.000  H
  C9       1.0000 0.03900  0.69780  0.40070  Biso   1.000  C
  C10      1.0000 0.96100  0.30220  0.90070  Biso   1.000  C
  C11      1.0000 0.53900  0.30220  0.40070  Biso   1.000  C
  C12      1.0000 0.46100  0.69780  0.90070  Biso   1.000  C
  H9       1.0000 0.01880  0.63230  0.43520  Biso   1.000  H
  H10      1.0000 0.98120  0.36770  0.93520  Biso   1.000  H
  H11      1.0000 0.51880  0.36770  0.43520  Biso   1.000  H
  H12      1.0000 0.48120  0.63230  0.93520  Biso   1.000  H
  C13      1.0000 0.03930  0.69220  0.31190  Biso   1.000  C
  C14      1.0000 0.96070  0.30780  0.81190  Biso   1.000  C
  C15      1.0000 0.53930  0.30780  0.31190  Biso   1.000  C
  C16      1.0000 0.46070  0.69220  0.81190  Biso   1.000  C
  C17      1.0000 0.00870  0.59580  0.25550  Biso   1.000  C
  C18      1.0000 0.99130  0.40420  0.75550  Biso   1.000  C
  C19      1.0000 0.50870  0.40420  0.25550  Biso   1.000  C
  C20      1.0000 0.49130  0.59580  0.75550  Biso   1.000  C
  H13      1.0000 0.98540  0.53000  0.28820  Biso   1.000  H
  H14      1.0000 0.01460  0.47000  0.78820  Biso   1.000  H
  H15      1.0000 0.48540  0.47000  0.28820  Biso   1.000  H
  H16      1.0000 0.51460  0.53000  0.78820  Biso   1.000  H
  C21      1.0000 0.00970  0.58880  0.15860  Biso   1.000  C
  C22      1.0000 0.99030  0.41120  0.65860  Biso   1.000  C
  C23      1.0000 0.50970  0.41120  0.15860  Biso   1.000  C
  C24      1.0000 0.49030  0.58880  0.65860  Biso   1.000  C
  H17      1.0000 0.99260  0.52110  0.12610  Biso   1.000  H
  H18      1.0000 0.00740  0.47890  0.62610  Biso   1.000  H
  H19      1.0000 0.49260  0.47890  0.12610  Biso   1.000  H
  H20      1.0000 0.50740  0.52110  0.62610  Biso   1.000  H
  C25      1.0000 0.03970  0.69610  0.10920  Biso   1.000  C
  C26      1.0000 0.96030  0.30390  0.60920  Biso   1.000  C
  C27      1.0000 0.53970  0.30390  0.10920  Biso   1.000  C
  C28      1.0000 0.46030  0.69610  0.60920  Biso   1.000  C
  C29      1.0000 0.04560  0.70390  0.99820  Biso   1.000  C
  C30      1.0000 0.95440  0.29610  0.49820  Biso   1.000  C
  C31      1.0000 0.54560  0.29610  0.99820  Biso   1.000  C
  C32      1.0000 0.45440  0.70390  0.49820  Biso   1.000  C
  H21      1.0000 0.02650  0.64170  0.95950  Biso   1.000  H
  H22      1.0000 0.97350  0.35830  0.45950  Biso   1.000  H
  H23      1.0000 0.52650  0.35830  0.95950  Biso   1.000  H
  H24      1.0000 0.47350  0.64170  0.45950  Biso   1.000  H
  C33      1.0000 0.07940  0.80390  0.96240  Biso   1.000  C
  C34      1.0000 0.92060  0.19610  0.46240  Biso   1.000  C
  C35      1.0000 0.57940  0.19610  0.96240  Biso   1.000  C
  C36      1.0000 0.42060  0.80390  0.46240  Biso   1.000  C
  H25      1.0000 0.09140  0.80970  0.89700  Biso   1.000  H
  H26      1.0000 0.90860  0.19030  0.39700  Biso   1.000  H
  H27      1.0000 0.59140  0.19030  0.89700  Biso   1.000  H
  H28      1.0000 0.40860  0.80970  0.39700  Biso   1.000  H
  C37      1.0000 0.09640  0.89440  0.01490  Biso   1.000  C
  C38      1.0000 0.90360  0.10560  0.51490  Biso   1.000  C
  C39      1.0000 0.59640  0.10560  0.01490  Biso   1.000  C
  C40      1.0000 0.40360  0.89440  0.51490  Biso   1.000  C
  H29      1.0000 0.10920  0.96410  0.98410  Biso   1.000  H
  H30      1.0000 0.89080  0.03590  0.48410  Biso   1.000  H
  H31      1.0000 0.60920  0.03590  0.98410  Biso   1.000  H
  H32      1.0000 0.39080  0.96410  0.48410  Biso   1.000  H
  C41      1.0000 0.06630  0.78820  0.15680  Biso   1.000  C
  C42      1.0000 0.93370  0.21180  0.65680  Biso   1.000  C
  C43      1.0000 0.56630  0.21180  0.15680  Biso   1.000  C
  C44      1.0000 0.43370  0.78820  0.65680  Biso   1.000  C
  C45      1.0000 0.06860  0.79880  0.25870  Biso   1.000  C
  C46      1.0000 0.93140  0.20120  0.75870  Biso   1.000  C
  C47      1.0000 0.56860  0.20120  0.25870  Biso   1.000  C
  C48      1.0000 0.43140  0.79880  0.75870  Biso   1.000  C
  C49      1.0000 0.22560  0.15130  0.06330  Biso   1.000  C
  C50      1.0000 0.77440  0.84870  0.56330  Biso   1.000  C
  C51      1.0000 0.72560  0.84870  0.06330  Biso   1.000  C
  C52      1.0000 0.27440  0.15130  0.56330  Biso   1.000  C
  C53      1.0000 0.23500  0.26110  0.00480  Biso   1.000  C
  C54      1.0000 0.76500  0.73890  0.50480  Biso   1.000  C
  C55      1.0000 0.73500  0.73890  0.00480  Biso   1.000  C
  C56      1.0000 0.26500  0.26110  0.50480  Biso   1.000  C
  C57      1.0000 0.22750  0.36670  0.05530  Biso   1.000  C
  C58      1.0000 0.77250  0.63330  0.55530  Biso   1.000  C
  C59      1.0000 0.72750  0.63330  0.05530  Biso   1.000  C
  C60      1.0000 0.27250  0.36670  0.55530  Biso   1.000  C
  H33      1.0000 0.21200  0.36650  0.12040  Biso   1.000  H
  H34      1.0000 0.78800  0.63350  0.62040  Biso   1.000  H
  H35      1.0000 0.71200  0.63350  0.12040  Biso   1.000  H
  H36      1.0000 0.28800  0.36650  0.62040  Biso   1.000  H
  C61      1.0000 0.24280  0.46800  0.00890  Biso   1.000  C
  C62      1.0000 0.75720  0.53200  0.50890  Biso   1.000  C
  C63      1.0000 0.74280  0.53200  0.00890  Biso   1.000  C
  C64      1.0000 0.25720  0.46800  0.50890  Biso   1.000  C
  H37      1.0000 0.23950  0.53670  0.04250  Biso   1.000  H
  H38      1.0000 0.76050  0.46330  0.54250  Biso   1.000  H
  H39      1.0000 0.73950  0.46330  0.04250  Biso   1.000  H
  H40      1.0000 0.26050  0.53670  0.54250  Biso   1.000  H
  C65      1.0000 0.26320  0.46940  0.91270  Biso   1.000  C
  C66      1.0000 0.73680  0.53060  0.41270  Biso   1.000  C
  C67      1.0000 0.76320  0.53060  0.91270  Biso   1.000  C
  C68      1.0000 0.23680  0.46940  0.41270  Biso   1.000  C
  H41      1.0000 0.26920  0.53870  0.88000  Biso   1.000  H
  H42      1.0000 0.73080  0.46130  0.38000  Biso   1.000  H
  H43      1.0000 0.76920  0.46130  0.88000  Biso   1.000  H
  H44      1.0000 0.23080  0.53870  0.38000  Biso   1.000  H
  C69      1.0000 0.27500  0.36330  0.86340  Biso   1.000  C
  C70      1.0000 0.72500  0.63670  0.36340  Biso   1.000  C
  C71      1.0000 0.77500  0.63670  0.86340  Biso   1.000  C
  C72      1.0000 0.22500  0.36330  0.36340  Biso   1.000  C
  H45      1.0000 0.29350  0.36400  0.79870  Biso   1.000  H
  H46      1.0000 0.70650  0.63600  0.29870  Biso   1.000  H
  H47      1.0000 0.79350  0.63600  0.79870  Biso   1.000  H
  H48      1.0000 0.20650  0.36400  0.29870  Biso   1.000  H
  C73      1.0000 0.26000  0.26150  0.90800  Biso   1.000  C
  C74      1.0000 0.74000  0.73850  0.40800  Biso   1.000  C
  C75      1.0000 0.76000  0.73850  0.90800  Biso   1.000  C
  C76      1.0000 0.24000  0.26150  0.40800  Biso   1.000  C
  C77      1.0000 0.26400  0.15370  0.85200  Biso   1.000  C
  C78      1.0000 0.73600  0.84630  0.35200  Biso   1.000  C
  C79      1.0000 0.76400  0.84630  0.85200  Biso   1.000  C
  C80      1.0000 0.23600  0.15370  0.35200  Biso   1.000  C
  O1       1.0000 0.13550  0.14410  0.11240  Biso   1.000  O
  O2       1.0000 0.86450  0.85590  0.61240  Biso   1.000  O
  O3       1.0000 0.63550  0.85590  0.11240  Biso   1.000  O
  O4       1.0000 0.36450  0.14410  0.61240  Biso   1.000  O
  O5       1.0000 0.31160  0.08260  0.05710  Biso   1.000  O
  O6       1.0000 0.68840  0.91740  0.55710  Biso   1.000  O
  O7       1.0000 0.81160  0.91740  0.05710  Biso   1.000  O
  O8       1.0000 0.18840  0.08260  0.55710  Biso   1.000  O
  O9       1.0000 0.36530  0.14040  0.80110  Biso   1.000  O
  O10      1.0000 0.63470  0.85960  0.30110  Biso   1.000  O
  O11      1.0000 0.86530  0.85960  0.80110  Biso   1.000  O
  O12      1.0000 0.13470  0.14040  0.30110  Biso   1.000  O
  O13      1.0000 0.18500  0.08280  0.85470  Biso   1.000  O
  O14      1.0000 0.81500  0.91720  0.35470  Biso   1.000  O
  O15      1.0000 0.68500  0.91720  0.85470  Biso   1.000  O
  O16      1.0000 0.31500  0.08280  0.35470  Biso   1.000  O
  O17      1.0000 0.89950  0.05050  0.20170  Biso   1.000  O
  O18      1.0000 0.10050  0.94950  0.70170  Biso   1.000  O
  O19      1.0000 0.39950  0.94950  0.20170  Biso   1.000  O
  O20      1.0000 0.60050  0.05050  0.70170  Biso   1.000  O
  H49      1.0000 0.85900  0.02900  0.25800  Biso   1.000  H
  H50      1.0000 0.14100  0.97100  0.75800  Biso   1.000  H
  H51      1.0000 0.35900  0.97100  0.25800  Biso   1.000  H
  H52      1.0000 0.64100  0.02900  0.75800  Biso   1.000  H
  H53      1.0000 0.88700  0.97900  0.17000  Biso   1.000  H
  H54      1.0000 0.11300  0.02100  0.67000  Biso   1.000  H
  H55      1.0000 0.38700  0.02100  0.17000  Biso   1.000  H
  H56      1.0000 0.61300  0.97900  0.67000  Biso   1.000  H
  O21      1.0000 0.93590  0.30500  0.19670  Biso   1.000  O
  O22      1.0000 0.06410  0.69500  0.69670  Biso   1.000  O
  O23      1.0000 0.43590  0.69500  0.19670  Biso   1.000  O
  O24      1.0000 0.56410  0.30500  0.69670  Biso   1.000  O
