data_image0
_cell_length_a       7.6671
_cell_length_b       21.327
_cell_length_c       8.5287
_cell_angle_alpha    90
_cell_angle_beta     106.559
_cell_angle_gamma    90

_symmetry_space_group_name_H-M    "P 1"
_symmetry_int_tables_number       1

loop_
  _symmetry_equiv_pos_as_xyz
  'x, y, z'

loop_
  _atom_site_label
  _atom_site_occupancy
  _atom_site_fract_x
  _atom_site_fract_y
  _atom_site_fract_z
  _atom_site_thermal_displace_type
  _atom_site_B_iso_or_equiv
  _atom_site_type_symbol
  Cu1      1.0000 0.50000  0.50000  0.50000  Biso   1.000  Cu
  Cu2      1.0000 0.50000  0.00000  0.00000  Biso   1.000  Cu
  Cl1      1.0000 0.13224  0.47467  0.32558  Biso   1.000  Cl
  Cl2      1.0000 0.86776  0.97467  0.17442  Biso   1.000  Cl
  Cl3      1.0000 0.86776  0.52533  0.67442  Biso   1.000  Cl
  Cl4      1.0000 0.13224  0.02533  0.82558  Biso   1.000  Cl
  N1       1.0000 0.41980  0.58092  0.58050  Biso   1.000  N
  N2       1.0000 0.58020  0.08092  0.91950  Biso   1.000  N
  N3       1.0000 0.58020  0.41908  0.41950  Biso   1.000  N
  N4       1.0000 0.41980  0.91908  0.08050  Biso   1.000  N
  N5       1.0000 0.44240  0.67590  0.69590  Biso   1.000  N
  N6       1.0000 0.55760  0.17590  0.80410  Biso   1.000  N
  N7       1.0000 0.55760  0.32410  0.30410  Biso   1.000  N
  N8       1.0000 0.44240  0.82410  0.19590  Biso   1.000  N
  N9       1.0000 0.28830  0.64640  0.70360  Biso   1.000  N
  N10      1.0000 0.71170  0.14640  0.79640  Biso   1.000  N
  N11      1.0000 0.71170  0.35360  0.29640  Biso   1.000  N
  N12      1.0000 0.28830  0.85360  0.20360  Biso   1.000  N
  N13      1.0000 0.67230  0.92259  0.62490  Biso   1.000  N
  N14      1.0000 0.32770  0.42259  0.87510  Biso   1.000  N
  N15      1.0000 0.32770  0.07741  0.37510  Biso   1.000  N
  N16      1.0000 0.67230  0.57741  0.12490  Biso   1.000  N
  N17      1.0000 0.54200  0.95604  0.80260  Biso   1.000  N
  N18      1.0000 0.45800  0.45604  0.69740  Biso   1.000  N
  N19      1.0000 0.45800  0.04396  0.19740  Biso   1.000  N
  N20      1.0000 0.54200  0.54396  0.30260  Biso   1.000  N
  N21      1.0000 0.49240  0.92258  0.54510  Biso   1.000  N
  N22      1.0000 0.50760  0.42258  0.95490  Biso   1.000  N
  N23      1.0000 0.50760  0.07742  0.45490  Biso   1.000  N
  N24      1.0000 0.49240  0.57742  0.04510  Biso   1.000  N
  C1       1.0000 0.27700  0.59047  0.63500  Biso   1.000  C
  C2       1.0000 0.72300  0.09047  0.86500  Biso   1.000  C
  C3       1.0000 0.72300  0.40953  0.36500  Biso   1.000  C
  C4       1.0000 0.27700  0.90953  0.13500  Biso   1.000  C
  H1       1.0000 0.18270  0.56210  0.62640  Biso   1.000  H
  H2       1.0000 0.81730  0.06210  0.87360  Biso   1.000  H
  H3       1.0000 0.81730  0.43790  0.37360  Biso   1.000  H
  H4       1.0000 0.18270  0.93790  0.12640  Biso   1.000  H
  C5       1.0000 0.51600  0.63466  0.62020  Biso   1.000  C
  C6       1.0000 0.48400  0.13466  0.87980  Biso   1.000  C
  C7       1.0000 0.48400  0.36534  0.37980  Biso   1.000  C
  C8       1.0000 0.51600  0.86534  0.12020  Biso   1.000  C
  H5       1.0000 0.62510  0.64170  0.59580  Biso   1.000  H
  H6       1.0000 0.37490  0.14170  0.90420  Biso   1.000  H
  H7       1.0000 0.37490  0.35830  0.40420  Biso   1.000  H
  H8       1.0000 0.62510  0.85830  0.09580  Biso   1.000  H
  C9       1.0000 0.17050  0.67306  0.79490  Biso   1.000  C
  C10      1.0000 0.82950  0.17306  0.70510  Biso   1.000  C
  C11      1.0000 0.82950  0.32694  0.20510  Biso   1.000  C
  C12      1.0000 0.17050  0.82694  0.29490  Biso   1.000  C
  H9       1.0000 0.24240  0.68070  0.90680  Biso   1.000  H
  H10      1.0000 0.75760  0.18070  0.59320  Biso   1.000  H
  H11      1.0000 0.75760  0.31930  0.09320  Biso   1.000  H
  H12      1.0000 0.24240  0.81930  0.40680  Biso   1.000  H
  H13      1.0000 0.07710  0.64270  0.79750  Biso   1.000  H
  H14      1.0000 0.92290  0.14270  0.70250  Biso   1.000  H
  H15      1.0000 0.92290  0.35730  0.20250  Biso   1.000  H
  H16      1.0000 0.07710  0.85730  0.29750  Biso   1.000  H
  C13      1.0000 0.08080  0.73310  0.72330  Biso   1.000  C
  C14      1.0000 0.91920  0.23310  0.77670  Biso   1.000  C
  C15      1.0000 0.91920  0.26690  0.27670  Biso   1.000  C
  C16      1.0000 0.08080  0.76690  0.22330  Biso   1.000  C
  C17      1.0000 0.14900  0.78970  0.78990  Biso   1.000  C
  C18      1.0000 0.85100  0.28970  0.71010  Biso   1.000  C
  C19      1.0000 0.85100  0.21030  0.21010  Biso   1.000  C
  C20      1.0000 0.14900  0.71030  0.28990  Biso   1.000  C
  H17      1.0000 0.25520  0.79080  0.87640  Biso   1.000  H
  H18      1.0000 0.74480  0.29080  0.62360  Biso   1.000  H
  H19      1.0000 0.74480  0.20920  0.12360  Biso   1.000  H
  H20      1.0000 0.25520  0.70920  0.37640  Biso   1.000  H
  C21      1.0000 0.06150  0.84524  0.72970  Biso   1.000  C
  C22      1.0000 0.93850  0.34524  0.77030  Biso   1.000  C
  C23      1.0000 0.93850  0.15476  0.27030  Biso   1.000  C
  C24      1.0000 0.06150  0.65476  0.22970  Biso   1.000  C
  H21      1.0000 0.11010  0.88320  0.77580  Biso   1.000  H
  H22      1.0000 0.88990  0.38320  0.72420  Biso   1.000  H
  H23      1.0000 0.88990  0.11680  0.22420  Biso   1.000  H
  H24      1.0000 0.11010  0.61680  0.27580  Biso   1.000  H
  C25      1.0000 0.90390  0.84495  0.60290  Biso   1.000  C
  C26      1.0000 0.09610  0.34495  0.89710  Biso   1.000  C
  C27      1.0000 0.09610  0.15505  0.39710  Biso   1.000  C
  C28      1.0000 0.90390  0.65505  0.10290  Biso   1.000  C
  C29      1.0000 0.83680  0.78811  0.53400  Biso   1.000  C
  C30      1.0000 0.16320  0.28811  0.96600  Biso   1.000  C
  C31      1.0000 0.16320  0.21189  0.46600  Biso   1.000  C
  C32      1.0000 0.83680  0.71189  0.03400  Biso   1.000  C
  H25      1.0000 0.73140  0.78700  0.44670  Biso   1.000  H
  H26      1.0000 0.26860  0.28700  0.05330  Biso   1.000  H
  H27      1.0000 0.26860  0.21300  0.55330  Biso   1.000  H
  H28      1.0000 0.73140  0.71300  0.94670  Biso   1.000  H
  C33      1.0000 0.92490  0.73282  0.59360  Biso   1.000  C
  C34      1.0000 0.07510  0.23282  0.90640  Biso   1.000  C
  C35      1.0000 0.07510  0.26718  0.40640  Biso   1.000  C
  C36      1.0000 0.92490  0.76718  0.09360  Biso   1.000  C
  H29      1.0000 0.87830  0.69490  0.54550  Biso   1.000  H
  H30      1.0000 0.12170  0.19490  0.95450  Biso   1.000  H
  H31      1.0000 0.12170  0.30510  0.45450  Biso   1.000  H
  H32      1.0000 0.87830  0.80510  0.04550  Biso   1.000  H
  C37      1.0000 0.81000  0.90584  0.54180  Biso   1.000  C
  C38      1.0000 0.19000  0.40584  0.95820  Biso   1.000  C
  C39      1.0000 0.19000  0.09416  0.45820  Biso   1.000  C
  C40      1.0000 0.81000  0.59416  0.04180  Biso   1.000  C
  H33      1.0000 0.90010  0.93900  0.55900  Biso   1.000  H
  H34      1.0000 0.09990  0.43900  0.94100  Biso   1.000  H
  H35      1.0000 0.09990  0.06100  0.44100  Biso   1.000  H
  H36      1.0000 0.90010  0.56100  0.05900  Biso   1.000  H
  H37      1.0000 0.75190  0.90260  0.42520  Biso   1.000  H
  H38      1.0000 0.24810  0.40260  0.07480  Biso   1.000  H
  H39      1.0000 0.24810  0.09740  0.57480  Biso   1.000  H
  H40      1.0000 0.75190  0.59740  0.92520  Biso   1.000  H
  C41      1.0000 0.69940  0.94246  0.77610  Biso   1.000  C
  C42      1.0000 0.30060  0.44246  0.72390  Biso   1.000  C
  C43      1.0000 0.30060  0.05754  0.22390  Biso   1.000  C
  C44      1.0000 0.69940  0.55754  0.27610  Biso   1.000  C
  H41      1.0000 0.81260  0.94640  0.85290  Biso   1.000  H
  H42      1.0000 0.18740  0.44640  0.64710  Biso   1.000  H
  H43      1.0000 0.18740  0.05360  0.14710  Biso   1.000  H
  H44      1.0000 0.81260  0.55360  0.35290  Biso   1.000  H
  C45      1.0000 0.42030  0.94344  0.65730  Biso   1.000  C
  C46      1.0000 0.57970  0.44344  0.84270  Biso   1.000  C
  C47      1.0000 0.57970  0.05656  0.34270  Biso   1.000  C
  C48      1.0000 0.42030  0.55656  0.15730  Biso   1.000  C
  H45      1.0000 0.29570  0.94910  0.63830  Biso   1.000  H
  H46      1.0000 0.70430  0.44910  0.86170  Biso   1.000  H
  H47      1.0000 0.70430  0.05090  0.36170  Biso   1.000  H
  H48      1.0000 0.29570  0.55090  0.13830  Biso   1.000  H
