data_image0
_cell_length_a       24.199
_cell_length_b       9.6398
_cell_length_c       15.528
_cell_angle_alpha    90
_cell_angle_beta     124.507
_cell_angle_gamma    90

_symmetry_space_group_name_H-M    "P 1"
_symmetry_int_tables_number       1

loop_
  _symmetry_equiv_pos_as_xyz
  'x, y, z'

loop_
  _atom_site_label
  _atom_site_occupancy
  _atom_site_fract_x
  _atom_site_fract_y
  _atom_site_fract_z
  _atom_site_thermal_displace_type
  _atom_site_B_iso_or_equiv
  _atom_site_type_symbol
  Cu1      1.0000 0.25000  0.75000  0.50000  Biso   1.000  Cu
  Cu2      1.0000 0.75000  0.75000  0.00000  Biso   1.000  Cu
  Cu3      1.0000 0.75000  0.25000  0.50000  Biso   1.000  Cu
  Cu4      1.0000 0.25000  0.25000  0.00000  Biso   1.000  Cu
  N1       1.0000 0.28070  0.56540  0.50230  Biso   1.000  N
  N2       1.0000 0.71930  0.56540  0.99770  Biso   1.000  N
  N3       1.0000 0.78070  0.06540  0.50230  Biso   1.000  N
  N4       1.0000 0.21930  0.06540  0.99770  Biso   1.000  N
  N5       1.0000 0.71930  0.43460  0.49770  Biso   1.000  N
  N6       1.0000 0.28070  0.43460  0.00230  Biso   1.000  N
  N7       1.0000 0.21930  0.93460  0.49770  Biso   1.000  N
  N8       1.0000 0.78070  0.93460  0.00230  Biso   1.000  N
  C1       1.0000 0.29880  0.50490  0.43940  Biso   1.000  C
  C2       1.0000 0.70120  0.50490  0.06060  Biso   1.000  C
  C3       1.0000 0.79880  0.00490  0.43940  Biso   1.000  C
  C4       1.0000 0.20120  0.00490  0.06060  Biso   1.000  C
  C5       1.0000 0.70120  0.49510  0.56060  Biso   1.000  C
  C6       1.0000 0.29880  0.49510  0.93940  Biso   1.000  C
  C7       1.0000 0.20120  0.99510  0.56060  Biso   1.000  C
  C8       1.0000 0.79880  0.99510  0.93940  Biso   1.000  C
  H1       1.0000 0.29340  0.54620  0.37880  Biso   1.000  H
  H2       1.0000 0.70660  0.54620  0.12120  Biso   1.000  H
  H3       1.0000 0.79340  0.04620  0.37880  Biso   1.000  H
  H4       1.0000 0.20660  0.04620  0.12120  Biso   1.000  H
  H5       1.0000 0.70660  0.45380  0.62120  Biso   1.000  H
  H6       1.0000 0.29340  0.45380  0.87880  Biso   1.000  H
  H7       1.0000 0.20660  0.95380  0.62120  Biso   1.000  H
  H8       1.0000 0.79340  0.95380  0.87880  Biso   1.000  H
  N9       1.0000 0.32600  0.37360  0.48060  Biso   1.000  N
  N10      1.0000 0.67400  0.37360  0.01940  Biso   1.000  N
  N11      1.0000 0.82600  0.87360  0.48060  Biso   1.000  N
  N12      1.0000 0.17400  0.87360  0.01940  Biso   1.000  N
  N13      1.0000 0.67400  0.62640  0.51940  Biso   1.000  N
  N14      1.0000 0.32600  0.62640  0.98060  Biso   1.000  N
  N15      1.0000 0.17400  0.12640  0.51940  Biso   1.000  N
  N16      1.0000 0.82600  0.12640  0.98060  Biso   1.000  N
  N17      1.0000 0.32480  0.35290  0.56890  Biso   1.000  N
  N18      1.0000 0.67520  0.35290  0.93110  Biso   1.000  N
  N19      1.0000 0.82480  0.85290  0.56890  Biso   1.000  N
  N20      1.0000 0.17520  0.85290  0.93110  Biso   1.000  N
  N21      1.0000 0.67520  0.64710  0.43110  Biso   1.000  N
  N22      1.0000 0.32480  0.64710  0.06890  Biso   1.000  N
  N23      1.0000 0.17520  0.14710  0.43110  Biso   1.000  N
  N24      1.0000 0.82480  0.14710  0.06890  Biso   1.000  N
  C9       1.0000 0.29680  0.47140  0.58240  Biso   1.000  C
  C10      1.0000 0.70320  0.47140  0.91760  Biso   1.000  C
  C11      1.0000 0.79680  0.97140  0.58240  Biso   1.000  C
  C12      1.0000 0.20320  0.97140  0.91760  Biso   1.000  C
  C13      1.0000 0.70320  0.52860  0.41760  Biso   1.000  C
  C14      1.0000 0.29680  0.52860  0.08240  Biso   1.000  C
  C15      1.0000 0.20320  0.02860  0.41760  Biso   1.000  C
  C16      1.0000 0.79680  0.02860  0.08240  Biso   1.000  C
  H9       1.0000 0.28990  0.48570  0.63680  Biso   1.000  H
  H10      1.0000 0.71010  0.48570  0.86320  Biso   1.000  H
  H11      1.0000 0.78990  0.98570  0.63680  Biso   1.000  H
  H12      1.0000 0.21010  0.98570  0.86320  Biso   1.000  H
  H13      1.0000 0.71010  0.51430  0.36320  Biso   1.000  H
  H14      1.0000 0.28990  0.51430  0.13680  Biso   1.000  H
  H15      1.0000 0.21010  0.01430  0.36320  Biso   1.000  H
  H16      1.0000 0.78990  0.01430  0.13680  Biso   1.000  H
  C17      1.0000 0.35390  0.21840  0.61400  Biso   1.000  C
  C18      1.0000 0.64610  0.21840  0.88600  Biso   1.000  C
  C19      1.0000 0.85390  0.71840  0.61400  Biso   1.000  C
  C20      1.0000 0.14610  0.71840  0.88600  Biso   1.000  C
  C21      1.0000 0.64610  0.78160  0.38600  Biso   1.000  C
  C22      1.0000 0.35390  0.78160  0.11400  Biso   1.000  C
  C23      1.0000 0.14610  0.28160  0.38600  Biso   1.000  C
  C24      1.0000 0.85390  0.28160  0.11400  Biso   1.000  C
  H17      1.0000 0.33970  0.15180  0.55930  Biso   1.000  H
  H18      1.0000 0.66030  0.15180  0.94070  Biso   1.000  H
  H19      1.0000 0.83970  0.65180  0.55930  Biso   1.000  H
  H20      1.0000 0.16030  0.65180  0.94070  Biso   1.000  H
  H21      1.0000 0.66030  0.84820  0.44070  Biso   1.000  H
  H22      1.0000 0.33970  0.84820  0.05930  Biso   1.000  H
  H23      1.0000 0.16030  0.34820  0.44070  Biso   1.000  H
  H24      1.0000 0.83970  0.34820  0.05930  Biso   1.000  H
  H25      1.0000 0.33890  0.18760  0.65620  Biso   1.000  H
  H26      1.0000 0.66110  0.18760  0.84380  Biso   1.000  H
  H27      1.0000 0.83890  0.68760  0.65620  Biso   1.000  H
  H28      1.0000 0.16110  0.68760  0.84380  Biso   1.000  H
  H29      1.0000 0.66110  0.81240  0.34380  Biso   1.000  H
  H30      1.0000 0.33890  0.81240  0.15620  Biso   1.000  H
  H31      1.0000 0.16110  0.31240  0.34380  Biso   1.000  H
  H32      1.0000 0.83890  0.31240  0.15620  Biso   1.000  H
  C25      1.0000 0.43100  0.22960  0.68160  Biso   1.000  C
  C26      1.0000 0.56900  0.22960  0.81840  Biso   1.000  C
  C27      1.0000 0.93100  0.72960  0.68160  Biso   1.000  C
  C28      1.0000 0.06900  0.72960  0.81840  Biso   1.000  C
  C29      1.0000 0.56900  0.77040  0.31840  Biso   1.000  C
  C30      1.0000 0.43100  0.77040  0.18160  Biso   1.000  C
  C31      1.0000 0.06900  0.27040  0.31840  Biso   1.000  C
  C32      1.0000 0.93100  0.27040  0.18160  Biso   1.000  C
  C33      1.0000 0.46720  0.11740  0.68200  Biso   1.000  C
  C34      1.0000 0.53280  0.11740  0.81800  Biso   1.000  C
  C35      1.0000 0.96720  0.61740  0.68200  Biso   1.000  C
  C36      1.0000 0.03280  0.61740  0.81800  Biso   1.000  C
  C37      1.0000 0.53280  0.88260  0.31800  Biso   1.000  C
  C38      1.0000 0.46720  0.88260  0.18200  Biso   1.000  C
  C39      1.0000 0.03280  0.38260  0.31800  Biso   1.000  C
  C40      1.0000 0.96720  0.38260  0.18200  Biso   1.000  C
  H33      1.0000 0.44420  0.03650  0.64100  Biso   1.000  H
  H34      1.0000 0.55580  0.03650  0.85900  Biso   1.000  H
  H35      1.0000 0.94420  0.53650  0.64100  Biso   1.000  H
  H36      1.0000 0.05580  0.53650  0.85900  Biso   1.000  H
  H37      1.0000 0.55580  0.96350  0.35900  Biso   1.000  H
  H38      1.0000 0.44420  0.96350  0.14100  Biso   1.000  H
  H39      1.0000 0.05580  0.46350  0.35900  Biso   1.000  H
  H40      1.0000 0.94420  0.46350  0.14100  Biso   1.000  H
  C41      1.0000 0.53690  0.12220  0.74170  Biso   1.000  C
  C42      1.0000 0.46310  0.12220  0.75830  Biso   1.000  C
  C43      1.0000 0.03690  0.62220  0.74170  Biso   1.000  C
  C44      1.0000 0.96310  0.62220  0.75830  Biso   1.000  C
  C45      1.0000 0.46310  0.87780  0.25830  Biso   1.000  C
  C46      1.0000 0.53690  0.87780  0.24170  Biso   1.000  C
  C47      1.0000 0.96310  0.37780  0.25830  Biso   1.000  C
  C48      1.0000 0.03690  0.37780  0.24170  Biso   1.000  C
  H41      1.0000 0.56190  0.04470  0.74200  Biso   1.000  H
  H42      1.0000 0.43810  0.04470  0.75800  Biso   1.000  H
  H43      1.0000 0.06190  0.54470  0.74200  Biso   1.000  H
  H44      1.0000 0.93810  0.54470  0.75800  Biso   1.000  H
  H45      1.0000 0.43810  0.95530  0.25800  Biso   1.000  H
  H46      1.0000 0.56190  0.95530  0.24200  Biso   1.000  H
  H47      1.0000 0.93810  0.45530  0.25800  Biso   1.000  H
  H48      1.0000 0.06190  0.45530  0.24200  Biso   1.000  H
  C49      1.0000 0.57030  0.23920  0.80110  Biso   1.000  C
  C50      1.0000 0.42970  0.23920  0.69890  Biso   1.000  C
  C51      1.0000 0.07030  0.73920  0.80110  Biso   1.000  C
  C52      1.0000 0.92970  0.73920  0.69890  Biso   1.000  C
  C53      1.0000 0.42970  0.76080  0.19890  Biso   1.000  C
  C54      1.0000 0.57030  0.76080  0.30110  Biso   1.000  C
  C55      1.0000 0.92970  0.26080  0.19890  Biso   1.000  C
  C56      1.0000 0.07030  0.26080  0.30110  Biso   1.000  C
  C57      1.0000 0.46590  0.35140  0.69930  Biso   1.000  C
  C58      1.0000 0.53410  0.35140  0.80070  Biso   1.000  C
  C59      1.0000 0.96590  0.85140  0.69930  Biso   1.000  C
  C60      1.0000 0.03410  0.85140  0.80070  Biso   1.000  C
  C61      1.0000 0.53410  0.64860  0.30070  Biso   1.000  C
  C62      1.0000 0.46590  0.64860  0.19930  Biso   1.000  C
  C63      1.0000 0.03410  0.14860  0.30070  Biso   1.000  C
  C64      1.0000 0.96590  0.14860  0.19930  Biso   1.000  C
  H49      1.0000 0.44280  0.43230  0.65830  Biso   1.000  H
  H50      1.0000 0.55720  0.43230  0.84170  Biso   1.000  H
  H51      1.0000 0.94280  0.93230  0.65830  Biso   1.000  H
  H52      1.0000 0.05720  0.93230  0.84170  Biso   1.000  H
  H53      1.0000 0.55720  0.56770  0.34170  Biso   1.000  H
  H54      1.0000 0.44280  0.56770  0.15830  Biso   1.000  H
  H55      1.0000 0.05720  0.06770  0.34170  Biso   1.000  H
  H56      1.0000 0.94280  0.06770  0.15830  Biso   1.000  H
  C65      1.0000 0.46450  0.34660  0.74090  Biso   1.000  C
  C66      1.0000 0.53550  0.34660  0.75910  Biso   1.000  C
  C67      1.0000 0.96450  0.84660  0.74090  Biso   1.000  C
  C68      1.0000 0.03550  0.84660  0.75910  Biso   1.000  C
  C69      1.0000 0.53550  0.65340  0.25910  Biso   1.000  C
  C70      1.0000 0.46450  0.65340  0.24090  Biso   1.000  C
  C71      1.0000 0.03550  0.15340  0.25910  Biso   1.000  C
  C72      1.0000 0.96450  0.15340  0.24090  Biso   1.000  C
  H57      1.0000 0.43940  0.42410  0.74070  Biso   1.000  H
  H58      1.0000 0.56060  0.42410  0.75930  Biso   1.000  H
  H59      1.0000 0.93940  0.92410  0.74070  Biso   1.000  H
  H60      1.0000 0.06060  0.92410  0.75930  Biso   1.000  H
  H61      1.0000 0.56060  0.57590  0.25930  Biso   1.000  H
  H62      1.0000 0.43940  0.57590  0.24070  Biso   1.000  H
  H63      1.0000 0.06060  0.07590  0.25930  Biso   1.000  H
  H64      1.0000 0.93940  0.07590  0.24070  Biso   1.000  H
  C73      1.0000 0.64730  0.23840  0.86530  Biso   1.000  C
  C74      1.0000 0.35270  0.23840  0.63470  Biso   1.000  C
  C75      1.0000 0.14730  0.73840  0.86530  Biso   1.000  C
  C76      1.0000 0.85270  0.73840  0.63470  Biso   1.000  C
  C77      1.0000 0.35270  0.76160  0.13470  Biso   1.000  C
  C78      1.0000 0.64730  0.76160  0.36530  Biso   1.000  C
  C79      1.0000 0.85270  0.26160  0.13470  Biso   1.000  C
  C80      1.0000 0.14730  0.26160  0.36530  Biso   1.000  C
  H65      1.0000 0.66130  0.25280  0.81920  Biso   1.000  H
  H66      1.0000 0.33870  0.25280  0.68080  Biso   1.000  H
  H67      1.0000 0.16130  0.75280  0.81920  Biso   1.000  H
  H68      1.0000 0.83870  0.75280  0.68080  Biso   1.000  H
  H69      1.0000 0.33870  0.74720  0.18080  Biso   1.000  H
  H70      1.0000 0.66130  0.74720  0.31920  Biso   1.000  H
  H71      1.0000 0.83870  0.24720  0.18080  Biso   1.000  H
  H72      1.0000 0.16130  0.24720  0.31920  Biso   1.000  H
  H73      1.0000 0.66330  0.14900  0.89730  Biso   1.000  H
  H74      1.0000 0.33670  0.14900  0.60270  Biso   1.000  H
  H75      1.0000 0.16330  0.64900  0.89730  Biso   1.000  H
  H76      1.0000 0.83670  0.64900  0.60270  Biso   1.000  H
  H77      1.0000 0.33670  0.85100  0.10270  Biso   1.000  H
  H78      1.0000 0.66330  0.85100  0.39730  Biso   1.000  H
  H79      1.0000 0.83670  0.35100  0.10270  Biso   1.000  H
  H80      1.0000 0.16330  0.35100  0.39730  Biso   1.000  H
  N25      1.0000 0.32250  0.34460  0.55360  Biso   1.000  N
  N26      1.0000 0.67750  0.34460  0.94640  Biso   1.000  N
  N27      1.0000 0.82250  0.84460  0.55360  Biso   1.000  N
  N28      1.0000 0.17750  0.84460  0.94640  Biso   1.000  N
  N29      1.0000 0.67750  0.65540  0.44640  Biso   1.000  N
  N30      1.0000 0.32250  0.65540  0.05360  Biso   1.000  N
  N31      1.0000 0.17750  0.15540  0.44640  Biso   1.000  N
  N32      1.0000 0.82250  0.15540  0.05360  Biso   1.000  N
  N33      1.0000 0.69260  0.36430  0.03850  Biso   1.000  N
  N34      1.0000 0.30740  0.36430  0.46150  Biso   1.000  N
  N35      1.0000 0.19260  0.86430  0.03850  Biso   1.000  N
  N36      1.0000 0.80740  0.86430  0.46150  Biso   1.000  N
  N37      1.0000 0.30740  0.63570  0.96150  Biso   1.000  N
  N38      1.0000 0.69260  0.63570  0.53850  Biso   1.000  N
  N39      1.0000 0.80740  0.13570  0.96150  Biso   1.000  N
  N40      1.0000 0.19260  0.13570  0.53850  Biso   1.000  N
  C81      1.0000 0.71880  0.48430  0.06810  Biso   1.000  C
  C82      1.0000 0.28120  0.48430  0.43190  Biso   1.000  C
  C83      1.0000 0.21880  0.98430  0.06810  Biso   1.000  C
  C84      1.0000 0.78120  0.98430  0.43190  Biso   1.000  C
  C85      1.0000 0.28120  0.51570  0.93190  Biso   1.000  C
  C86      1.0000 0.71880  0.51570  0.56810  Biso   1.000  C
  C87      1.0000 0.78120  0.01570  0.93190  Biso   1.000  C
  C88      1.0000 0.21880  0.01570  0.56810  Biso   1.000  C
  H81      1.0000 0.73490  0.52630  0.13440  Biso   1.000  H
  H82      1.0000 0.26510  0.52630  0.36560  Biso   1.000  H
  H83      1.0000 0.23490  0.02630  0.13440  Biso   1.000  H
  H84      1.0000 0.76510  0.02630  0.36560  Biso   1.000  H
  H85      1.0000 0.26510  0.47370  0.86560  Biso   1.000  H
  H86      1.0000 0.73490  0.47370  0.63440  Biso   1.000  H
  H87      1.0000 0.76510  0.97370  0.86560  Biso   1.000  H
  H88      1.0000 0.23490  0.97370  0.63440  Biso   1.000  H
  N41      1.0000 0.28010  0.53890  0.50560  Biso   1.000  N
  N42      1.0000 0.71990  0.53890  0.99440  Biso   1.000  N
  N43      1.0000 0.78010  0.03890  0.50560  Biso   1.000  N
  N44      1.0000 0.21990  0.03890  0.99440  Biso   1.000  N
  N45      1.0000 0.71990  0.46110  0.49440  Biso   1.000  N
  N46      1.0000 0.28010  0.46110  0.00560  Biso   1.000  N
  N47      1.0000 0.21990  0.96110  0.49440  Biso   1.000  N
  N48      1.0000 0.78010  0.96110  0.00560  Biso   1.000  N
  C89      1.0000 0.69430  0.45250  0.91910  Biso   1.000  C
  C90      1.0000 0.30570  0.45250  0.58090  Biso   1.000  C
  C91      1.0000 0.19430  0.95250  0.91910  Biso   1.000  C
  C92      1.0000 0.80570  0.95250  0.58090  Biso   1.000  C
  C93      1.0000 0.30570  0.54750  0.08090  Biso   1.000  C
  C94      1.0000 0.69430  0.54750  0.41910  Biso   1.000  C
  C95      1.0000 0.80570  0.04750  0.08090  Biso   1.000  C
  C96      1.0000 0.19430  0.04750  0.41910  Biso   1.000  C
  H89      1.0000 0.68880  0.46640  0.85340  Biso   1.000  H
  H90      1.0000 0.31120  0.46640  0.64660  Biso   1.000  H
  H91      1.0000 0.18880  0.96640  0.85340  Biso   1.000  H
  H92      1.0000 0.81120  0.96640  0.64660  Biso   1.000  H
  H93      1.0000 0.31120  0.53360  0.14660  Biso   1.000  H
  H94      1.0000 0.68880  0.53360  0.35340  Biso   1.000  H
  H95      1.0000 0.81120  0.03360  0.14660  Biso   1.000  H
  H96      1.0000 0.18880  0.03360  0.35340  Biso   1.000  H
  N49      1.0000 0.33350  0.77760  0.64400  Biso   1.000  N
  N50      1.0000 0.66650  0.77760  0.85600  Biso   1.000  N
  N51      1.0000 0.83350  0.27760  0.64400  Biso   1.000  N
  N52      1.0000 0.16650  0.27760  0.85600  Biso   1.000  N
  N53      1.0000 0.66650  0.22240  0.35600  Biso   1.000  N
  N54      1.0000 0.33350  0.22240  0.14400  Biso   1.000  N
  N55      1.0000 0.16650  0.72240  0.35600  Biso   1.000  N
  N56      1.0000 0.83350  0.72240  0.14400  Biso   1.000  N
  N57      1.0000 0.44320  0.77130  0.77130  Biso   1.000  N
  N58      1.0000 0.55680  0.77130  0.72870  Biso   1.000  N
  N59      1.0000 0.94320  0.27130  0.77130  Biso   1.000  N
  N60      1.0000 0.05680  0.27130  0.72870  Biso   1.000  N
  N61      1.0000 0.55680  0.22870  0.22870  Biso   1.000  N
  N62      1.0000 0.44320  0.22870  0.27130  Biso   1.000  N
  N63      1.0000 0.05680  0.72870  0.22870  Biso   1.000  N
  N64      1.0000 0.94320  0.72870  0.27130  Biso   1.000  N
  N65      1.0000 0.40600  0.78010  0.81170  Biso   1.000  N
  N66      1.0000 0.59400  0.78010  0.68830  Biso   1.000  N
  N67      1.0000 0.90600  0.28010  0.81170  Biso   1.000  N
  N68      1.0000 0.09400  0.28010  0.68830  Biso   1.000  N
  N69      1.0000 0.59400  0.21990  0.18830  Biso   1.000  N
  N70      1.0000 0.40600  0.21990  0.31170  Biso   1.000  N
  N71      1.0000 0.09400  0.71990  0.18830  Biso   1.000  N
  N72      1.0000 0.90600  0.71990  0.31170  Biso   1.000  N
  C97      1.0000 0.39780  0.77080  0.67060  Biso   1.000  C
  C98      1.0000 0.60220  0.77080  0.82940  Biso   1.000  C
  C99      1.0000 0.89780  0.27080  0.67060  Biso   1.000  C
  C100     1.0000 0.10220  0.27080  0.82940  Biso   1.000  C
  C101     1.0000 0.60220  0.22920  0.32940  Biso   1.000  C
  C102     1.0000 0.39780  0.22920  0.17060  Biso   1.000  C
  C103     1.0000 0.10220  0.72920  0.32940  Biso   1.000  C
  C104     1.0000 0.89780  0.72920  0.17060  Biso   1.000  C
  H97      1.0000 0.40820  0.76620  0.62150  Biso   1.000  H
  H98      1.0000 0.59180  0.76620  0.87850  Biso   1.000  H
  H99      1.0000 0.90820  0.26620  0.62150  Biso   1.000  H
  H100     1.0000 0.09180  0.26620  0.87850  Biso   1.000  H
  H101     1.0000 0.59180  0.23380  0.37850  Biso   1.000  H
  H102     1.0000 0.40820  0.23380  0.12150  Biso   1.000  H
  H103     1.0000 0.09180  0.73380  0.37850  Biso   1.000  H
  H104     1.0000 0.90820  0.73380  0.12150  Biso   1.000  H
  C105     1.0000 0.34180  0.78300  0.73600  Biso   1.000  C
  C106     1.0000 0.65820  0.78300  0.76400  Biso   1.000  C
  C107     1.0000 0.84180  0.28300  0.73600  Biso   1.000  C
  C108     1.0000 0.15820  0.28300  0.76400  Biso   1.000  C
  C109     1.0000 0.65820  0.21700  0.26400  Biso   1.000  C
  C110     1.0000 0.34180  0.21700  0.23600  Biso   1.000  C
  C111     1.0000 0.15820  0.71700  0.26400  Biso   1.000  C
  C112     1.0000 0.84180  0.71700  0.23600  Biso   1.000  C
  H105     1.0000 0.30720  0.78820  0.74560  Biso   1.000  H
  H106     1.0000 0.69280  0.78820  0.75440  Biso   1.000  H
  H107     1.0000 0.80720  0.28820  0.74560  Biso   1.000  H
  H108     1.0000 0.19280  0.28820  0.75440  Biso   1.000  H
  H109     1.0000 0.69280  0.21180  0.25440  Biso   1.000  H
  H110     1.0000 0.30720  0.21180  0.24560  Biso   1.000  H
  H111     1.0000 0.19280  0.71180  0.25440  Biso   1.000  H
  H112     1.0000 0.80720  0.71180  0.24560  Biso   1.000  H
  C113     1.0000 0.43870  0.77050  0.92400  Biso   1.000  C
  C114     1.0000 0.56130  0.77050  0.57600  Biso   1.000  C
  C115     1.0000 0.93870  0.27050  0.92400  Biso   1.000  C
  C116     1.0000 0.06130  0.27050  0.57600  Biso   1.000  C
  C117     1.0000 0.56130  0.22950  0.07600  Biso   1.000  C
  C118     1.0000 0.43870  0.22950  0.42400  Biso   1.000  C
  C119     1.0000 0.06130  0.72950  0.07600  Biso   1.000  C
  C120     1.0000 0.93870  0.72950  0.42400  Biso   1.000  C
  H113     1.0000 0.40590  0.78570  0.94030  Biso   1.000  H
  H114     1.0000 0.59410  0.78570  0.55970  Biso   1.000  H
  H115     1.0000 0.90590  0.28570  0.94030  Biso   1.000  H
  H116     1.0000 0.09410  0.28570  0.55970  Biso   1.000  H
  H117     1.0000 0.59410  0.21430  0.05970  Biso   1.000  H
  H118     1.0000 0.40590  0.21430  0.44030  Biso   1.000  H
  H119     1.0000 0.09410  0.71430  0.05970  Biso   1.000  H
  H120     1.0000 0.90590  0.71430  0.44030  Biso   1.000  H
  H121     1.0000 0.47270  0.84200  0.95860  Biso   1.000  H
  H122     1.0000 0.52730  0.84200  0.54140  Biso   1.000  H
  H123     1.0000 0.97270  0.34200  0.95860  Biso   1.000  H
  H124     1.0000 0.02730  0.34200  0.54140  Biso   1.000  H
  H125     1.0000 0.52730  0.15800  0.04140  Biso   1.000  H
  H126     1.0000 0.47270  0.15800  0.45860  Biso   1.000  H
  H127     1.0000 0.02730  0.65800  0.04140  Biso   1.000  H
  H128     1.0000 0.97270  0.65800  0.45860  Biso   1.000  H
  C121     1.0000 0.47060  0.63020  0.96360  Biso   1.000  C
  C122     1.0000 0.52940  0.63020  0.53640  Biso   1.000  C
  C123     1.0000 0.97060  0.13020  0.96360  Biso   1.000  C
  C124     1.0000 0.02940  0.13020  0.53640  Biso   1.000  C
  C125     1.0000 0.52940  0.36980  0.03640  Biso   1.000  C
  C126     1.0000 0.47060  0.36980  0.46360  Biso   1.000  C
  C127     1.0000 0.02940  0.86980  0.03640  Biso   1.000  C
  C128     1.0000 0.97060  0.86980  0.46360  Biso   1.000  C
  C129     1.0000 0.43340  0.51050  0.92150  Biso   1.000  C
  C130     1.0000 0.56660  0.51050  0.57850  Biso   1.000  C
  C131     1.0000 0.93340  0.01050  0.92150  Biso   1.000  C
  C132     1.0000 0.06660  0.01050  0.57850  Biso   1.000  C
  C133     1.0000 0.56660  0.48950  0.07850  Biso   1.000  C
  C134     1.0000 0.43340  0.48950  0.42150  Biso   1.000  C
  C135     1.0000 0.06660  0.98950  0.07850  Biso   1.000  C
  C136     1.0000 0.93340  0.98950  0.42150  Biso   1.000  C
  H129     1.0000 0.38800  0.51660  0.86820  Biso   1.000  H
  H130     1.0000 0.61200  0.51660  0.63180  Biso   1.000  H
  H131     1.0000 0.88800  0.01660  0.86820  Biso   1.000  H
  H132     1.0000 0.11200  0.01660  0.63180  Biso   1.000  H
  H133     1.0000 0.61200  0.48340  0.13180  Biso   1.000  H
  H134     1.0000 0.38800  0.48340  0.36820  Biso   1.000  H
  H135     1.0000 0.11200  0.98340  0.13180  Biso   1.000  H
  H136     1.0000 0.88800  0.98340  0.36820  Biso   1.000  H
  C137     1.0000 0.53740  0.61850  0.04240  Biso   1.000  C
  C138     1.0000 0.46260  0.61850  0.45760  Biso   1.000  C
  C139     1.0000 0.03740  0.11850  0.04240  Biso   1.000  C
  C140     1.0000 0.96260  0.11850  0.45760  Biso   1.000  C
  C141     1.0000 0.46260  0.38150  0.95760  Biso   1.000  C
  C142     1.0000 0.53740  0.38150  0.54240  Biso   1.000  C
  C143     1.0000 0.96260  0.88150  0.95760  Biso   1.000  C
  C144     1.0000 0.03740  0.88150  0.54240  Biso   1.000  C
  H137     1.0000 0.56330  0.69800  0.07170  Biso   1.000  H
  H138     1.0000 0.43670  0.69800  0.42830  Biso   1.000  H
  H139     1.0000 0.06330  0.19800  0.07170  Biso   1.000  H
  H140     1.0000 0.93670  0.19800  0.42830  Biso   1.000  H
  H141     1.0000 0.43670  0.30200  0.92830  Biso   1.000  H
  H142     1.0000 0.56330  0.30200  0.57170  Biso   1.000  H
  H143     1.0000 0.93670  0.80200  0.92830  Biso   1.000  H
  H144     1.0000 0.06330  0.80200  0.57170  Biso   1.000  H
  B1       1.0000 0.18240  0.60900  0.64010  Biso   1.000  B
  B2       1.0000 0.81760  0.60900  0.85990  Biso   1.000  B
  B3       1.0000 0.68240  0.10900  0.64010  Biso   1.000  B
  B4       1.0000 0.31760  0.10900  0.85990  Biso   1.000  B
  B5       1.0000 0.81760  0.39100  0.35990  Biso   1.000  B
  B6       1.0000 0.18240  0.39100  0.14010  Biso   1.000  B
  B7       1.0000 0.31760  0.89100  0.35990  Biso   1.000  B
  B8       1.0000 0.68240  0.89100  0.14010  Biso   1.000  B
  F1       1.0000 0.18350  0.66360  0.56200  Biso   1.000  F
  F2       1.0000 0.81650  0.66360  0.93800  Biso   1.000  F
  F3       1.0000 0.68350  0.16360  0.56200  Biso   1.000  F
  F4       1.0000 0.31650  0.16360  0.93800  Biso   1.000  F
  F5       1.0000 0.81650  0.33640  0.43800  Biso   1.000  F
  F6       1.0000 0.18350  0.33640  0.06200  Biso   1.000  F
  F7       1.0000 0.31650  0.83640  0.43800  Biso   1.000  F
  F8       1.0000 0.68350  0.83640  0.06200  Biso   1.000  F
  F9       1.0000 0.22670  0.50270  0.68930  Biso   1.000  F
  F10      1.0000 0.77330  0.50270  0.81070  Biso   1.000  F
  F11      1.0000 0.72670  0.00270  0.68930  Biso   1.000  F
  F12      1.0000 0.27330  0.00270  0.81070  Biso   1.000  F
  F13      1.0000 0.77330  0.49730  0.31070  Biso   1.000  F
  F14      1.0000 0.22670  0.49730  0.18930  Biso   1.000  F
  F15      1.0000 0.27330  0.99730  0.31070  Biso   1.000  F
  F16      1.0000 0.72670  0.99730  0.18930  Biso   1.000  F
  F17      1.0000 0.12010  0.56480  0.60600  Biso   1.000  F
  F18      1.0000 0.87990  0.56480  0.89400  Biso   1.000  F
  F19      1.0000 0.62010  0.06480  0.60600  Biso   1.000  F
  F20      1.0000 0.37990  0.06480  0.89400  Biso   1.000  F
  F21      1.0000 0.87990  0.43520  0.39400  Biso   1.000  F
  F22      1.0000 0.12010  0.43520  0.10600  Biso   1.000  F
  F23      1.0000 0.37990  0.93520  0.39400  Biso   1.000  F
  F24      1.0000 0.62010  0.93520  0.10600  Biso   1.000  F
  F25      1.0000 0.19310  0.72410  0.70600  Biso   1.000  F
  F26      1.0000 0.80690  0.72410  0.79400  Biso   1.000  F
  F27      1.0000 0.69310  0.22410  0.70600  Biso   1.000  F
  F28      1.0000 0.30690  0.22410  0.79400  Biso   1.000  F
  F29      1.0000 0.80690  0.27590  0.29400  Biso   1.000  F
  F30      1.0000 0.19310  0.27590  0.20600  Biso   1.000  F
  F31      1.0000 0.30690  0.77590  0.29400  Biso   1.000  F
  F32      1.0000 0.69310  0.77590  0.20600  Biso   1.000  F
  F33      1.0000 0.19610  0.71040  0.59460  Biso   1.000  F
  F34      1.0000 0.80390  0.71040  0.90540  Biso   1.000  F
  F35      1.0000 0.69610  0.21040  0.59460  Biso   1.000  F
  F36      1.0000 0.30390  0.21040  0.90540  Biso   1.000  F
  F37      1.0000 0.80390  0.28960  0.40540  Biso   1.000  F
  F38      1.0000 0.19610  0.28960  0.09460  Biso   1.000  F
  F39      1.0000 0.30390  0.78960  0.40540  Biso   1.000  F
  F40      1.0000 0.69610  0.78960  0.09460  Biso   1.000  F
  F41      1.0000 0.24490  0.55020  0.71150  Biso   1.000  F
  F42      1.0000 0.75510  0.55020  0.78850  Biso   1.000  F
  F43      1.0000 0.74490  0.05020  0.71150  Biso   1.000  F
  F44      1.0000 0.25510  0.05020  0.78850  Biso   1.000  F
  F45      1.0000 0.75510  0.44980  0.28850  Biso   1.000  F
  F46      1.0000 0.24490  0.44980  0.21150  Biso   1.000  F
  F47      1.0000 0.25510  0.94980  0.28850  Biso   1.000  F
  F48      1.0000 0.74490  0.94980  0.21150  Biso   1.000  F
  F49      1.0000 0.14660  0.52000  0.55200  Biso   1.000  F
  F50      1.0000 0.85340  0.52000  0.94800  Biso   1.000  F
  F51      1.0000 0.64660  0.02000  0.55200  Biso   1.000  F
  F52      1.0000 0.35340  0.02000  0.94800  Biso   1.000  F
  F53      1.0000 0.85340  0.48000  0.44800  Biso   1.000  F
  F54      1.0000 0.14660  0.48000  0.05200  Biso   1.000  F
  F55      1.0000 0.35340  0.98000  0.44800  Biso   1.000  F
  F56      1.0000 0.64660  0.98000  0.05200  Biso   1.000  F
  F57      1.0000 0.14310  0.60910  0.67230  Biso   1.000  F
  F58      1.0000 0.85690  0.60910  0.82770  Biso   1.000  F
  F59      1.0000 0.64310  0.10910  0.67230  Biso   1.000  F
  F60      1.0000 0.35690  0.10910  0.82770  Biso   1.000  F
  F61      1.0000 0.85690  0.39090  0.32770  Biso   1.000  F
  F62      1.0000 0.14310  0.39090  0.17230  Biso   1.000  F
  F63      1.0000 0.35690  0.89090  0.32770  Biso   1.000  F
  F64      1.0000 0.64310  0.89090  0.17230  Biso   1.000  F
