data_image0
_cell_length_a       12.065
_cell_length_b       8.3587
_cell_length_c       25.861
_cell_angle_alpha    90
_cell_angle_beta     99.548
_cell_angle_gamma    90

_symmetry_space_group_name_H-M    "P 1"
_symmetry_int_tables_number       1

loop_
  _symmetry_equiv_pos_as_xyz
  'x, y, z'

loop_
  _atom_site_label
  _atom_site_occupancy
  _atom_site_fract_x
  _atom_site_fract_y
  _atom_site_fract_z
  _atom_site_thermal_displace_type
  _atom_site_B_iso_or_equiv
  _atom_site_type_symbol
  Cu1      1.0000 0.50000  0.00000  0.00000  Biso   1.000  Cu
  Cu2      1.0000 0.50000  0.50000  0.50000  Biso   1.000  Cu
  F1       1.0000 0.50080  0.17400  0.19926  Biso   1.000  F
  F2       1.0000 0.49920  0.67400  0.30074  Biso   1.000  F
  F3       1.0000 0.49920  0.82600  0.80074  Biso   1.000  F
  F4       1.0000 0.50080  0.32600  0.69926  Biso   1.000  F
  F5       1.0000 0.37520  0.14570  0.24710  Biso   1.000  F
  F6       1.0000 0.62480  0.64570  0.25290  Biso   1.000  F
  F7       1.0000 0.62480  0.85430  0.75290  Biso   1.000  F
  F8       1.0000 0.37520  0.35430  0.74710  Biso   1.000  F
  F9       1.0000 0.49960  0.32160  0.26476  Biso   1.000  F
  F10      1.0000 0.50040  0.82160  0.23524  Biso   1.000  F
  F11      1.0000 0.50040  0.67840  0.73524  Biso   1.000  F
  F12      1.0000 0.49960  0.17840  0.76476  Biso   1.000  F
  O1       1.0000 0.51500  0.94940  0.09270  Biso   1.000  O
  O2       1.0000 0.48500  0.44940  0.40730  Biso   1.000  O
  O3       1.0000 0.48500  0.05060  0.90730  Biso   1.000  O
  O4       1.0000 0.51500  0.55060  0.59270  Biso   1.000  O
  H1       1.0000 0.46060  0.90800  0.10530  Biso   1.000  H
  H2       1.0000 0.53940  0.40800  0.39470  Biso   1.000  H
  H3       1.0000 0.53940  0.09200  0.89470  Biso   1.000  H
  H4       1.0000 0.46060  0.59200  0.60530  Biso   1.000  H
  H5       1.0000 0.57890  0.94600  0.11240  Biso   1.000  H
  H6       1.0000 0.42110  0.44600  0.38760  Biso   1.000  H
  H7       1.0000 0.42110  0.05400  0.88760  Biso   1.000  H
  H8       1.0000 0.57890  0.55400  0.61240  Biso   1.000  H
  N1       1.0000 0.55030  0.22770  0.02000  Biso   1.000  N
  N2       1.0000 0.44970  0.72770  0.48000  Biso   1.000  N
  N3       1.0000 0.44970  0.77230  0.98000  Biso   1.000  N
  N4       1.0000 0.55030  0.27230  0.52000  Biso   1.000  N
  N5       1.0000 0.64220  0.45960  0.01661  Biso   1.000  N
  N6       1.0000 0.35780  0.95960  0.48339  Biso   1.000  N
  N7       1.0000 0.35780  0.54040  0.98339  Biso   1.000  N
  N8       1.0000 0.64220  0.04040  0.51661  Biso   1.000  N
  N9       1.0000 0.61310  0.43890  0.06425  Biso   1.000  N
  N10      1.0000 0.38690  0.93890  0.43575  Biso   1.000  N
  N11      1.0000 0.38690  0.56110  0.93575  Biso   1.000  N
  N12      1.0000 0.61310  0.06110  0.56425  Biso   1.000  N
  N13      1.0000 0.04290  0.04160  0.19117  Biso   1.000  N
  N14      1.0000 0.95710  0.54160  0.30883  Biso   1.000  N
  N15      1.0000 0.95710  0.95840  0.80883  Biso   1.000  N
  N16      1.0000 0.04290  0.45840  0.69117  Biso   1.000  N
  N17      1.0000 0.96280  0.93530  0.17035  Biso   1.000  N
  N18      1.0000 0.03720  0.43530  0.32965  Biso   1.000  N
  N19      1.0000 0.03720  0.06470  0.82965  Biso   1.000  N
  N20      1.0000 0.96280  0.56470  0.67035  Biso   1.000  N
  N21      1.0000 0.12690  0.88220  0.14356  Biso   1.000  N
  N22      1.0000 0.87310  0.38220  0.35644  Biso   1.000  N
  N23      1.0000 0.87310  0.11780  0.85644  Biso   1.000  N
  N24      1.0000 0.12690  0.61780  0.64356  Biso   1.000  N
  N25      1.0000 0.33640  0.05660  0.99817  Biso   1.000  N
  N26      1.0000 0.66360  0.55660  0.50183  Biso   1.000  N
  N27      1.0000 0.66360  0.94340  0.00183  Biso   1.000  N
  N28      1.0000 0.33640  0.44340  0.49817  Biso   1.000  N
  N29      1.0000 0.15040  0.06740  0.97080  Biso   1.000  N
  N30      1.0000 0.84960  0.56740  0.52920  Biso   1.000  N
  N31      1.0000 0.84960  0.93260  0.02920  Biso   1.000  N
  N32      1.0000 0.15040  0.43260  0.47080  Biso   1.000  N
  N33      1.0000 0.17850  0.13450  0.01913  Biso   1.000  N
  N34      1.0000 0.82150  0.63450  0.48087  Biso   1.000  N
  N35      1.0000 0.82150  0.86550  0.98087  Biso   1.000  N
  N36      1.0000 0.17850  0.36550  0.51913  Biso   1.000  N
  C1       1.0000 0.60210  0.33020  0.99147  Biso   1.000  C
  C2       1.0000 0.39790  0.83020  0.50853  Biso   1.000  C
  C3       1.0000 0.39790  0.66980  0.00853  Biso   1.000  C
  C4       1.0000 0.60210  0.16980  0.49147  Biso   1.000  C
  H9       1.0000 0.60890  0.31070  0.95670  Biso   1.000  H
  H10      1.0000 0.39110  0.81070  0.54330  Biso   1.000  H
  H11      1.0000 0.39110  0.68930  0.04330  Biso   1.000  H
  H12      1.0000 0.60890  0.18930  0.45670  Biso   1.000  H
  C5       1.0000 0.55940  0.30030  0.06586  Biso   1.000  C
  C6       1.0000 0.44060  0.80030  0.43414  Biso   1.000  C
  C7       1.0000 0.44060  0.69970  0.93414  Biso   1.000  C
  C8       1.0000 0.55940  0.19970  0.56586  Biso   1.000  C
  H13      1.0000 0.53230  0.26050  0.09490  Biso   1.000  H
  H14      1.0000 0.46770  0.76050  0.40510  Biso   1.000  H
  H15      1.0000 0.46770  0.73950  0.90510  Biso   1.000  H
  H16      1.0000 0.53230  0.23950  0.59490  Biso   1.000  H
  C9       1.0000 0.65730  0.54390  0.10865  Biso   1.000  C
  C10      1.0000 0.34270  0.04390  0.39135  Biso   1.000  C
  C11      1.0000 0.34270  0.45610  0.89135  Biso   1.000  C
  C12      1.0000 0.65730  0.95610  0.60865  Biso   1.000  C
  H17      1.0000 0.59890  0.56570  0.12930  Biso   1.000  H
  H18      1.0000 0.40110  0.06570  0.37070  Biso   1.000  H
  H19      1.0000 0.40110  0.43430  0.87070  Biso   1.000  H
  H20      1.0000 0.59890  0.93430  0.62930  Biso   1.000  H
  H21      1.0000 0.68150  0.64480  0.09570  Biso   1.000  H
  H22      1.0000 0.31850  0.14480  0.40430  Biso   1.000  H
  H23      1.0000 0.31850  0.35520  0.90430  Biso   1.000  H
  H24      1.0000 0.68150  0.85520  0.59570  Biso   1.000  H
  C13      1.0000 0.75520  0.46210  0.14216  Biso   1.000  C
  C14      1.0000 0.24480  0.96210  0.35784  Biso   1.000  C
  C15      1.0000 0.24480  0.53790  0.85784  Biso   1.000  C
  C16      1.0000 0.75520  0.03790  0.64216  Biso   1.000  C
  C17      1.0000 0.85920  0.45180  0.12640  Biso   1.000  C
  C18      1.0000 0.14080  0.95180  0.37360  Biso   1.000  C
  C19      1.0000 0.14080  0.54820  0.87360  Biso   1.000  C
  C20      1.0000 0.85920  0.04820  0.62640  Biso   1.000  C
  H25      1.0000 0.87120  0.50510  0.09620  Biso   1.000  H
  H26      1.0000 0.12880  0.00510  0.40380  Biso   1.000  H
  H27      1.0000 0.12880  0.49490  0.90380  Biso   1.000  H
  H28      1.0000 0.87120  0.99490  0.59620  Biso   1.000  H
  C21      1.0000 0.94500  0.36420  0.15449  Biso   1.000  C
  C22      1.0000 0.05500  0.86420  0.34551  Biso   1.000  C
  C23      1.0000 0.05500  0.63580  0.84551  Biso   1.000  C
  C24      1.0000 0.94500  0.13580  0.65449  Biso   1.000  C
  H29      1.0000 0.01530  0.36310  0.14420  Biso   1.000  H
  H30      1.0000 0.98470  0.86310  0.35580  Biso   1.000  H
  H31      1.0000 0.98470  0.63690  0.85580  Biso   1.000  H
  H32      1.0000 0.01530  0.13690  0.64420  Biso   1.000  H
  C25      1.0000 0.92760  0.27760  0.19816  Biso   1.000  C
  C26      1.0000 0.07240  0.77760  0.30184  Biso   1.000  C
  C27      1.0000 0.07240  0.72240  0.80184  Biso   1.000  C
  C28      1.0000 0.92760  0.22240  0.69816  Biso   1.000  C
  C29      1.0000 0.82470  0.28990  0.21434  Biso   1.000  C
  C30      1.0000 0.17530  0.78990  0.28566  Biso   1.000  C
  C31      1.0000 0.17530  0.71010  0.78566  Biso   1.000  C
  C32      1.0000 0.82470  0.21010  0.71434  Biso   1.000  C
  H33      1.0000 0.81240  0.23560  0.24420  Biso   1.000  H
  H34      1.0000 0.18760  0.73560  0.25580  Biso   1.000  H
  H35      1.0000 0.18760  0.76440  0.75580  Biso   1.000  H
  H36      1.0000 0.81240  0.26440  0.74420  Biso   1.000  H
  C33      1.0000 0.73980  0.38160  0.18689  Biso   1.000  C
  C34      1.0000 0.26020  0.88160  0.31311  Biso   1.000  C
  C35      1.0000 0.26020  0.61840  0.81311  Biso   1.000  C
  C36      1.0000 0.73980  0.11840  0.68689  Biso   1.000  C
  H37      1.0000 0.67130  0.38920  0.19870  Biso   1.000  H
  H38      1.0000 0.32870  0.88920  0.30130  Biso   1.000  H
  H39      1.0000 0.32870  0.61080  0.80130  Biso   1.000  H
  H40      1.0000 0.67130  0.11080  0.69870  Biso   1.000  H
  C37      1.0000 0.01880  0.17130  0.22578  Biso   1.000  C
  C38      1.0000 0.98120  0.67130  0.27422  Biso   1.000  C
  C39      1.0000 0.98120  0.82870  0.77422  Biso   1.000  C
  C40      1.0000 0.01880  0.32870  0.72578  Biso   1.000  C
  H41      1.0000 0.08640  0.23380  0.23670  Biso   1.000  H
  H42      1.0000 0.91360  0.73380  0.26330  Biso   1.000  H
  H43      1.0000 0.91360  0.76620  0.76330  Biso   1.000  H
  H44      1.0000 0.08640  0.26620  0.73670  Biso   1.000  H
  H45      1.0000 0.99570  0.12650  0.25690  Biso   1.000  H
  H46      1.0000 0.00430  0.62650  0.24310  Biso   1.000  H
  H47      1.0000 0.00430  0.87350  0.74310  Biso   1.000  H
  H48      1.0000 0.99570  0.37350  0.75690  Biso   1.000  H
  C41      1.0000 0.13830  0.00730  0.17493  Biso   1.000  C
  C42      1.0000 0.86170  0.50730  0.32507  Biso   1.000  C
  C43      1.0000 0.86170  0.99270  0.82507  Biso   1.000  C
  C44      1.0000 0.13830  0.49270  0.67493  Biso   1.000  C
  H49      1.0000 0.20490  0.06410  0.18440  Biso   1.000  H
  H50      1.0000 0.79510  0.56410  0.31560  Biso   1.000  H
  H51      1.0000 0.79510  0.93590  0.81560  Biso   1.000  H
  H52      1.0000 0.20490  0.43590  0.68440  Biso   1.000  H
  C45      1.0000 0.01910  0.84490  0.14221  Biso   1.000  C
  C46      1.0000 0.98090  0.34490  0.35779  Biso   1.000  C
  C47      1.0000 0.98090  0.15510  0.85779  Biso   1.000  C
  C48      1.0000 0.01910  0.65510  0.64221  Biso   1.000  C
  H53      1.0000 0.98550  0.75960  0.12240  Biso   1.000  H
  H54      1.0000 0.01450  0.25960  0.37760  Biso   1.000  H
  H55      1.0000 0.01450  0.24040  0.87760  Biso   1.000  H
  H56      1.0000 0.98550  0.74040  0.62240  Biso   1.000  H
  C49      1.0000 0.28790  0.12700  0.03453  Biso   1.000  C
  C50      1.0000 0.71210  0.62700  0.46547  Biso   1.000  C
  C51      1.0000 0.71210  0.87300  0.96547  Biso   1.000  C
  C52      1.0000 0.28790  0.37300  0.53453  Biso   1.000  C
  H57      1.0000 0.32570  0.16560  0.06640  Biso   1.000  H
  H58      1.0000 0.67430  0.66560  0.43360  Biso   1.000  H
  H59      1.0000 0.67430  0.83440  0.93360  Biso   1.000  H
  H60      1.0000 0.32570  0.33440  0.56640  Biso   1.000  H
  C53      1.0000 0.24810  0.02250  0.96045  Biso   1.000  C
  C54      1.0000 0.75190  0.52250  0.53955  Biso   1.000  C
  C55      1.0000 0.75190  0.97750  0.03955  Biso   1.000  C
  C56      1.0000 0.24810  0.47750  0.46045  Biso   1.000  C
  H61      1.0000 0.25620  0.97090  0.92940  Biso   1.000  H
  H62      1.0000 0.74380  0.47090  0.57060  Biso   1.000  H
  H63      1.0000 0.74380  0.02910  0.07060  Biso   1.000  H
  H64      1.0000 0.25620  0.52910  0.42940  Biso   1.000  H
  C57      1.0000 0.09140  0.20170  0.04609  Biso   1.000  C
  C58      1.0000 0.90860  0.70170  0.45391  Biso   1.000  C
  C59      1.0000 0.90860  0.79830  0.95391  Biso   1.000  C
  C60      1.0000 0.09140  0.29830  0.54609  Biso   1.000  C
  H65      1.0000 0.12300  0.22030  0.08260  Biso   1.000  H
  H66      1.0000 0.87700  0.72030  0.41740  Biso   1.000  H
  H67      1.0000 0.87700  0.77970  0.91740  Biso   1.000  H
  H68      1.0000 0.12300  0.27970  0.58260  Biso   1.000  H
  H69      1.0000 0.03100  0.12450  0.04510  Biso   1.000  H
  H70      1.0000 0.96900  0.62450  0.45490  Biso   1.000  H
  H71      1.0000 0.96900  0.87550  0.95490  Biso   1.000  H
  H72      1.0000 0.03100  0.37550  0.54510  Biso   1.000  H
  C61      1.0000 0.04410  0.35560  0.02201  Biso   1.000  C
  C62      1.0000 0.95590  0.85560  0.47799  Biso   1.000  C
  C63      1.0000 0.95590  0.64440  0.97799  Biso   1.000  C
  C64      1.0000 0.04410  0.14440  0.52201  Biso   1.000  C
  C65      1.0000 0.09860  0.49860  0.03483  Biso   1.000  C
  C66      1.0000 0.90140  0.99860  0.46517  Biso   1.000  C
  C67      1.0000 0.90140  0.50140  0.96517  Biso   1.000  C
  C68      1.0000 0.09860  0.00140  0.53483  Biso   1.000  C
  H73      1.0000 0.16560  0.49930  0.05850  Biso   1.000  H
  H74      1.0000 0.83440  0.99930  0.44150  Biso   1.000  H
  H75      1.0000 0.83440  0.50070  0.94150  Biso   1.000  H
  H76      1.0000 0.16560  0.00070  0.55850  Biso   1.000  H
  C69      1.0000 0.94480  0.35910  0.98684  Biso   1.000  C
  C70      1.0000 0.05520  0.85910  0.51316  Biso   1.000  C
  C71      1.0000 0.05520  0.64090  0.01316  Biso   1.000  C
  C72      1.0000 0.94480  0.14090  0.48684  Biso   1.000  C
  H77      1.0000 0.90640  0.26410  0.97760  Biso   1.000  H
  H78      1.0000 0.09360  0.76410  0.52240  Biso   1.000  H
  H79      1.0000 0.09360  0.73590  0.02240  Biso   1.000  H
  H80      1.0000 0.90640  0.23590  0.47760  Biso   1.000  H
  C73      1.0000 0.43420  0.25230  0.22634  Biso   1.000  C
  C74      1.0000 0.56580  0.75230  0.27366  Biso   1.000  C
  C75      1.0000 0.56580  0.74770  0.77366  Biso   1.000  C
  C76      1.0000 0.43420  0.24770  0.72634  Biso   1.000  C
  S1       1.0000 0.34551  0.39176  0.18554  Biso   1.000  S
  S2       1.0000 0.65449  0.89176  0.31446  Biso   1.000  S
  S3       1.0000 0.65449  0.60824  0.81446  Biso   1.000  S
  S4       1.0000 0.34551  0.10824  0.68554  Biso   1.000  S
  O5       1.0000 0.42330  0.49710  0.16760  Biso   1.000  O
  O6       1.0000 0.57670  0.99710  0.33240  Biso   1.000  O
  O7       1.0000 0.57670  0.50290  0.83240  Biso   1.000  O
  O8       1.0000 0.42330  0.00290  0.66760  Biso   1.000  O
  O9       1.0000 0.28640  0.29480  0.14577  Biso   1.000  O
  O10      1.0000 0.71360  0.79480  0.35423  Biso   1.000  O
  O11      1.0000 0.71360  0.70520  0.85423  Biso   1.000  O
  O12      1.0000 0.28640  0.20520  0.64577  Biso   1.000  O
  O13      1.0000 0.28020  0.45870  0.21954  Biso   1.000  O
  O14      1.0000 0.71980  0.95870  0.28046  Biso   1.000  O
  O15      1.0000 0.71980  0.54130  0.78046  Biso   1.000  O
  O16      1.0000 0.28020  0.04130  0.71954  Biso   1.000  O
  O17      1.0000 0.33640  0.78760  0.12025  Biso   1.000  O
  O18      1.0000 0.66360  0.28760  0.37975  Biso   1.000  O
  O19      1.0000 0.66360  0.21240  0.87975  Biso   1.000  O
  O20      1.0000 0.33640  0.71240  0.62025  Biso   1.000  O
  H81      1.0000 0.27200  0.82300  0.12350  Biso   1.000  H
  H82      1.0000 0.72800  0.32300  0.37650  Biso   1.000  H
  H83      1.0000 0.72800  0.17700  0.87650  Biso   1.000  H
  H84      1.0000 0.27200  0.67700  0.62350  Biso   1.000  H
  H85      1.0000 0.36100  0.70900  0.14000  Biso   1.000  H
  H86      1.0000 0.63900  0.20900  0.36000  Biso   1.000  H
  H87      1.0000 0.63900  0.29100  0.86000  Biso   1.000  H
  H88      1.0000 0.36100  0.79100  0.64000  Biso   1.000  H
  O21      1.0000 0.71550  0.92270  0.16606  Biso   1.000  O
  O22      1.0000 0.28450  0.42270  0.33394  Biso   1.000  O
  O23      1.0000 0.28450  0.07730  0.83394  Biso   1.000  O
  O24      1.0000 0.71550  0.57730  0.66606  Biso   1.000  O
  H89      1.0000 0.69700  0.92900  0.19650  Biso   1.000  H
  H90      1.0000 0.30300  0.42900  0.30350  Biso   1.000  H
  H91      1.0000 0.30300  0.07100  0.80350  Biso   1.000  H
  H92      1.0000 0.69700  0.57100  0.69650  Biso   1.000  H
  H93      1.0000 0.78550  0.91600  0.16520  Biso   1.000  H
  H94      1.0000 0.21450  0.41600  0.33480  Biso   1.000  H
  H95      1.0000 0.21450  0.08400  0.83480  Biso   1.000  H
  H96      1.0000 0.78550  0.58400  0.66520  Biso   1.000  H
