data_image0
_cell_length_a       22.296
_cell_length_b       9.268
_cell_length_c       20.969
_cell_angle_alpha    90
_cell_angle_beta     119.64
_cell_angle_gamma    90

_symmetry_space_group_name_H-M    "P 1"
_symmetry_int_tables_number       1

loop_
  _symmetry_equiv_pos_as_xyz
  'x, y, z'

loop_
  _atom_site_label
  _atom_site_occupancy
  _atom_site_fract_x
  _atom_site_fract_y
  _atom_site_fract_z
  _atom_site_thermal_displace_type
  _atom_site_B_iso_or_equiv
  _atom_site_type_symbol
  Cu1      1.0000 0.50000  0.87347  0.75000  Biso   1.000  Cu
  Cu2      1.0000 0.00000  0.37347  0.75000  Biso   1.000  Cu
  Cu3      1.0000 0.50000  0.12653  0.25000  Biso   1.000  Cu
  Cu4      1.0000 0.00000  0.62653  0.25000  Biso   1.000  Cu
  S1       1.0000 0.12836  0.86826  0.72578  Biso   1.000  S
  S2       1.0000 0.87164  0.86826  0.77422  Biso   1.000  S
  S3       1.0000 0.62836  0.36826  0.72578  Biso   1.000  S
  S4       1.0000 0.37164  0.36826  0.77422  Biso   1.000  S
  S5       1.0000 0.87164  0.13174  0.27422  Biso   1.000  S
  S6       1.0000 0.12836  0.13174  0.22578  Biso   1.000  S
  S7       1.0000 0.37164  0.63174  0.27422  Biso   1.000  S
  S8       1.0000 0.62836  0.63174  0.22578  Biso   1.000  S
  F1       1.0000 0.25480  0.79240  0.77650  Biso   1.000  F
  F2       1.0000 0.74520  0.79240  0.72350  Biso   1.000  F
  F3       1.0000 0.75480  0.29240  0.77650  Biso   1.000  F
  F4       1.0000 0.24520  0.29240  0.72350  Biso   1.000  F
  F5       1.0000 0.74520  0.20760  0.22350  Biso   1.000  F
  F6       1.0000 0.25480  0.20760  0.27650  Biso   1.000  F
  F7       1.0000 0.24520  0.70760  0.22350  Biso   1.000  F
  F8       1.0000 0.75480  0.70760  0.27650  Biso   1.000  F
  F9       1.0000 0.24000  0.94790  0.84060  Biso   1.000  F
  F10      1.0000 0.76000  0.94790  0.65940  Biso   1.000  F
  F11      1.0000 0.74000  0.44790  0.84060  Biso   1.000  F
  F12      1.0000 0.26000  0.44790  0.65940  Biso   1.000  F
  F13      1.0000 0.76000  0.05210  0.15940  Biso   1.000  F
  F14      1.0000 0.24000  0.05210  0.34060  Biso   1.000  F
  F15      1.0000 0.26000  0.55210  0.15940  Biso   1.000  F
  F16      1.0000 0.74000  0.55210  0.34060  Biso   1.000  F
  F17      1.0000 0.23600  0.99740  0.73990  Biso   1.000  F
  F18      1.0000 0.76400  0.99740  0.76010  Biso   1.000  F
  F19      1.0000 0.73600  0.49740  0.73990  Biso   1.000  F
  F20      1.0000 0.26400  0.49740  0.76010  Biso   1.000  F
  F21      1.0000 0.76400  0.00260  0.26010  Biso   1.000  F
  F22      1.0000 0.23600  0.00260  0.23990  Biso   1.000  F
  F23      1.0000 0.26400  0.50260  0.26010  Biso   1.000  F
  F24      1.0000 0.73600  0.50260  0.23990  Biso   1.000  F
  O1       1.0000 0.50000  0.13370  0.75000  Biso   1.000  O
  O2       1.0000 0.00000  0.63370  0.75000  Biso   1.000  O
  O3       1.0000 0.50000  0.86630  0.25000  Biso   1.000  O
  O4       1.0000 0.00000  0.36630  0.25000  Biso   1.000  O
  H1       1.0000 0.46690  0.18760  0.74420  Biso   1.000  H
  H2       1.0000 0.53310  0.18760  0.75580  Biso   1.000  H
  H3       1.0000 0.96690  0.68760  0.74420  Biso   1.000  H
  H4       1.0000 0.03310  0.68760  0.75580  Biso   1.000  H
  H5       1.0000 0.53310  0.81240  0.25580  Biso   1.000  H
  H6       1.0000 0.46690  0.81240  0.24420  Biso   1.000  H
  H7       1.0000 0.03310  0.31240  0.25580  Biso   1.000  H
  H8       1.0000 0.96690  0.31240  0.24420  Biso   1.000  H
  O5       1.0000 0.50000  0.61550  0.75000  Biso   1.000  O
  O6       1.0000 0.00000  0.11550  0.75000  Biso   1.000  O
  O7       1.0000 0.50000  0.38450  0.25000  Biso   1.000  O
  O8       1.0000 0.00000  0.88450  0.25000  Biso   1.000  O
  H9       1.0000 0.47360  0.55550  0.75470  Biso   1.000  H
  H10      1.0000 0.52640  0.55550  0.74530  Biso   1.000  H
  H11      1.0000 0.97360  0.05550  0.75470  Biso   1.000  H
  H12      1.0000 0.02640  0.05550  0.74530  Biso   1.000  H
  H13      1.0000 0.52640  0.44450  0.24530  Biso   1.000  H
  H14      1.0000 0.47360  0.44450  0.25470  Biso   1.000  H
  H15      1.0000 0.02640  0.94450  0.24530  Biso   1.000  H
  H16      1.0000 0.97360  0.94450  0.25470  Biso   1.000  H
  O9       1.0000 0.12090  0.76490  0.77240  Biso   1.000  O
  O10      1.0000 0.87910  0.76490  0.72760  Biso   1.000  O
  O11      1.0000 0.62090  0.26490  0.77240  Biso   1.000  O
  O12      1.0000 0.37910  0.26490  0.72760  Biso   1.000  O
  O13      1.0000 0.87910  0.23510  0.22760  Biso   1.000  O
  O14      1.0000 0.12090  0.23510  0.27240  Biso   1.000  O
  O15      1.0000 0.37910  0.73510  0.22760  Biso   1.000  O
  O16      1.0000 0.62090  0.73510  0.27240  Biso   1.000  O
  O17      1.0000 0.09990  0.00420  0.72130  Biso   1.000  O
  O18      1.0000 0.90010  0.00420  0.77870  Biso   1.000  O
  O19      1.0000 0.59990  0.50420  0.72130  Biso   1.000  O
  O20      1.0000 0.40010  0.50420  0.77870  Biso   1.000  O
  O21      1.0000 0.90010  0.99580  0.27870  Biso   1.000  O
  O22      1.0000 0.09990  0.99580  0.22130  Biso   1.000  O
  O23      1.0000 0.40010  0.49580  0.27870  Biso   1.000  O
  O24      1.0000 0.59990  0.49580  0.22130  Biso   1.000  O
  O25      1.0000 0.11570  0.80740  0.65860  Biso   1.000  O
  O26      1.0000 0.88430  0.80740  0.84140  Biso   1.000  O
  O27      1.0000 0.61570  0.30740  0.65860  Biso   1.000  O
  O28      1.0000 0.38430  0.30740  0.84140  Biso   1.000  O
  O29      1.0000 0.88430  0.19260  0.34140  Biso   1.000  O
  O30      1.0000 0.11570  0.19260  0.15860  Biso   1.000  O
  O31      1.0000 0.38430  0.69260  0.34140  Biso   1.000  O
  O32      1.0000 0.61570  0.69260  0.15860  Biso   1.000  O
  N1       1.0000 0.52585  0.80740  0.57053  Biso   1.000  N
  N2       1.0000 0.47415  0.80740  0.92947  Biso   1.000  N
  N3       1.0000 0.02585  0.30740  0.57053  Biso   1.000  N
  N4       1.0000 0.97415  0.30740  0.92947  Biso   1.000  N
  N5       1.0000 0.47415  0.19260  0.42947  Biso   1.000  N
  N6       1.0000 0.52585  0.19260  0.07053  Biso   1.000  N
  N7       1.0000 0.97415  0.69260  0.42947  Biso   1.000  N
  N8       1.0000 0.02585  0.69260  0.07053  Biso   1.000  N
  N9       1.0000 0.56670  0.92570  0.59640  Biso   1.000  N
  N10      1.0000 0.43330  0.92570  0.90360  Biso   1.000  N
  N11      1.0000 0.06670  0.42570  0.59640  Biso   1.000  N
  N12      1.0000 0.93330  0.42570  0.90360  Biso   1.000  N
  N13      1.0000 0.43330  0.07430  0.40360  Biso   1.000  N
  N14      1.0000 0.56670  0.07430  0.09640  Biso   1.000  N
  N15      1.0000 0.93330  0.57430  0.40360  Biso   1.000  N
  N16      1.0000 0.06670  0.57430  0.09640  Biso   1.000  N
  N17      1.0000 0.52518  0.86450  0.67014  Biso   1.000  N
  N18      1.0000 0.47482  0.86450  0.82986  Biso   1.000  N
  N19      1.0000 0.02518  0.36450  0.67014  Biso   1.000  N
  N20      1.0000 0.97482  0.36450  0.82986  Biso   1.000  N
  N21      1.0000 0.47482  0.13550  0.32986  Biso   1.000  N
  N22      1.0000 0.52518  0.13550  0.17014  Biso   1.000  N
  N23      1.0000 0.97482  0.63550  0.32986  Biso   1.000  N
  N24      1.0000 0.02518  0.63550  0.17014  Biso   1.000  N
  N25      1.0000 0.80539  0.43940  0.57359  Biso   1.000  N
  N26      1.0000 0.19461  0.43940  0.92641  Biso   1.000  N
  N27      1.0000 0.30539  0.93940  0.57359  Biso   1.000  N
  N28      1.0000 0.69461  0.93940  0.92641  Biso   1.000  N
  N29      1.0000 0.19461  0.56060  0.42641  Biso   1.000  N
  N30      1.0000 0.80539  0.56060  0.07359  Biso   1.000  N
  N31      1.0000 0.69461  0.06060  0.42641  Biso   1.000  N
  N32      1.0000 0.30539  0.06060  0.07359  Biso   1.000  N
  N33      1.0000 0.78940  0.32090  0.60000  Biso   1.000  N
  N34      1.0000 0.21060  0.32090  0.90000  Biso   1.000  N
  N35      1.0000 0.28940  0.82090  0.60000  Biso   1.000  N
  N36      1.0000 0.71060  0.82090  0.90000  Biso   1.000  N
  N37      1.0000 0.21060  0.67910  0.40000  Biso   1.000  N
  N38      1.0000 0.78940  0.67910  0.10000  Biso   1.000  N
  N39      1.0000 0.71060  0.17910  0.40000  Biso   1.000  N
  N40      1.0000 0.28940  0.17910  0.10000  Biso   1.000  N
  N41      1.0000 0.89924  0.38310  0.67238  Biso   1.000  N
  N42      1.0000 0.10076  0.38310  0.82762  Biso   1.000  N
  N43      1.0000 0.39924  0.88310  0.67238  Biso   1.000  N
  N44      1.0000 0.60076  0.88310  0.82762  Biso   1.000  N
  N45      1.0000 0.10076  0.61690  0.32762  Biso   1.000  N
  N46      1.0000 0.89924  0.61690  0.17238  Biso   1.000  N
  N47      1.0000 0.60076  0.11690  0.32762  Biso   1.000  N
  N48      1.0000 0.39924  0.11690  0.17238  Biso   1.000  N
  C1       1.0000 0.56470  0.95570  0.65640  Biso   1.000  C
  C2       1.0000 0.43530  0.95570  0.84360  Biso   1.000  C
  C3       1.0000 0.06470  0.45570  0.65640  Biso   1.000  C
  C4       1.0000 0.93530  0.45570  0.84360  Biso   1.000  C
  C5       1.0000 0.43530  0.04430  0.34360  Biso   1.000  C
  C6       1.0000 0.56470  0.04430  0.15640  Biso   1.000  C
  C7       1.0000 0.93530  0.54430  0.34360  Biso   1.000  C
  C8       1.0000 0.06470  0.54430  0.15640  Biso   1.000  C
  H17      1.0000 0.58840  0.03290  0.68690  Biso   1.000  H
  H18      1.0000 0.41160  0.03290  0.81310  Biso   1.000  H
  H19      1.0000 0.08840  0.53290  0.68690  Biso   1.000  H
  H20      1.0000 0.91160  0.53290  0.81310  Biso   1.000  H
  H21      1.0000 0.41160  0.96710  0.31310  Biso   1.000  H
  H22      1.0000 0.58840  0.96710  0.18690  Biso   1.000  H
  H23      1.0000 0.91160  0.46710  0.31310  Biso   1.000  H
  H24      1.0000 0.08840  0.46710  0.18690  Biso   1.000  H
  C9       1.0000 0.50170  0.77350  0.61460  Biso   1.000  C
  C10      1.0000 0.49830  0.77350  0.88540  Biso   1.000  C
  C11      1.0000 0.00170  0.27350  0.61460  Biso   1.000  C
  C12      1.0000 0.99830  0.27350  0.88540  Biso   1.000  C
  C13      1.0000 0.49830  0.22650  0.38540  Biso   1.000  C
  C14      1.0000 0.50170  0.22650  0.11460  Biso   1.000  C
  C15      1.0000 0.99830  0.72650  0.38540  Biso   1.000  C
  C16      1.0000 0.00170  0.72650  0.11460  Biso   1.000  C
  H25      1.0000 0.47220  0.69660  0.60750  Biso   1.000  H
  H26      1.0000 0.52780  0.69660  0.89250  Biso   1.000  H
  H27      1.0000 0.97220  0.19660  0.60750  Biso   1.000  H
  H28      1.0000 0.02780  0.19660  0.89250  Biso   1.000  H
  H29      1.0000 0.52780  0.30340  0.39250  Biso   1.000  H
  H30      1.0000 0.47220  0.30340  0.10750  Biso   1.000  H
  H31      1.0000 0.02780  0.80340  0.39250  Biso   1.000  H
  H32      1.0000 0.97220  0.80340  0.10750  Biso   1.000  H
  C17      1.0000 0.51160  0.73720  0.50220  Biso   1.000  C
  C18      1.0000 0.48840  0.73720  0.99780  Biso   1.000  C
  C19      1.0000 0.01160  0.23720  0.50220  Biso   1.000  C
  C20      1.0000 0.98840  0.23720  0.99780  Biso   1.000  C
  C21      1.0000 0.48840  0.26280  0.49780  Biso   1.000  C
  C22      1.0000 0.51160  0.26280  0.00220  Biso   1.000  C
  C23      1.0000 0.98840  0.76280  0.49780  Biso   1.000  C
  C24      1.0000 0.01160  0.76280  0.00220  Biso   1.000  C
  H33      1.0000 0.48980  0.80600  0.46220  Biso   1.000  H
  H34      1.0000 0.51020  0.80600  0.03780  Biso   1.000  H
  H35      1.0000 0.98980  0.30600  0.46220  Biso   1.000  H
  H36      1.0000 0.01020  0.30600  0.03780  Biso   1.000  H
  H37      1.0000 0.51020  0.19400  0.53780  Biso   1.000  H
  H38      1.0000 0.48980  0.19400  0.96220  Biso   1.000  H
  H39      1.0000 0.01020  0.69400  0.53780  Biso   1.000  H
  H40      1.0000 0.98980  0.69400  0.96220  Biso   1.000  H
  H41      1.0000 0.47950  0.65840  0.49220  Biso   1.000  H
  H42      1.0000 0.52050  0.65840  0.00780  Biso   1.000  H
  H43      1.0000 0.97950  0.15840  0.49220  Biso   1.000  H
  H44      1.0000 0.02050  0.15840  0.00780  Biso   1.000  H
  H45      1.0000 0.52050  0.34160  0.50780  Biso   1.000  H
  H46      1.0000 0.47950  0.34160  0.99220  Biso   1.000  H
  H47      1.0000 0.02050  0.84160  0.50780  Biso   1.000  H
  H48      1.0000 0.97950  0.84160  0.99220  Biso   1.000  H
  C25      1.0000 0.57640  0.67920  0.50500  Biso   1.000  C
  C26      1.0000 0.42360  0.67920  0.99500  Biso   1.000  C
  C27      1.0000 0.07640  0.17920  0.50500  Biso   1.000  C
  C28      1.0000 0.92360  0.17920  0.99500  Biso   1.000  C
  C29      1.0000 0.42360  0.32080  0.49500  Biso   1.000  C
  C30      1.0000 0.57640  0.32080  0.00500  Biso   1.000  C
  C31      1.0000 0.92360  0.82080  0.49500  Biso   1.000  C
  C32      1.0000 0.07640  0.82080  0.00500  Biso   1.000  C
  C33      1.0000 0.57740  0.65540  0.44110  Biso   1.000  C
  C34      1.0000 0.42260  0.65540  0.05890  Biso   1.000  C
  C35      1.0000 0.07740  0.15540  0.44110  Biso   1.000  C
  C36      1.0000 0.92260  0.15540  0.05890  Biso   1.000  C
  C37      1.0000 0.42260  0.34460  0.55890  Biso   1.000  C
  C38      1.0000 0.57740  0.34460  0.94110  Biso   1.000  C
  C39      1.0000 0.92260  0.84460  0.55890  Biso   1.000  C
  C40      1.0000 0.07740  0.84460  0.94110  Biso   1.000  C
  H49      1.0000 0.53870  0.67800  0.39650  Biso   1.000  H
  H50      1.0000 0.46130  0.67800  0.10350  Biso   1.000  H
  H51      1.0000 0.03870  0.17800  0.39650  Biso   1.000  H
  H52      1.0000 0.96130  0.17800  0.10350  Biso   1.000  H
  H53      1.0000 0.46130  0.32200  0.60350  Biso   1.000  H
  H54      1.0000 0.53870  0.32200  0.89650  Biso   1.000  H
  H55      1.0000 0.96130  0.82200  0.60350  Biso   1.000  H
  H56      1.0000 0.03870  0.82200  0.89650  Biso   1.000  H
  C41      1.0000 0.63500  0.59830  0.44170  Biso   1.000  C
  C42      1.0000 0.36500  0.59830  0.05830  Biso   1.000  C
  C43      1.0000 0.13500  0.09830  0.44170  Biso   1.000  C
  C44      1.0000 0.86500  0.09830  0.05830  Biso   1.000  C
  C45      1.0000 0.36500  0.40170  0.55830  Biso   1.000  C
  C46      1.0000 0.63500  0.40170  0.94170  Biso   1.000  C
  C47      1.0000 0.86500  0.90170  0.55830  Biso   1.000  C
  C48      1.0000 0.13500  0.90170  0.94170  Biso   1.000  C
  H57      1.0000 0.63450  0.58310  0.39760  Biso   1.000  H
  H58      1.0000 0.36550  0.58310  0.10240  Biso   1.000  H
  H59      1.0000 0.13450  0.08310  0.39760  Biso   1.000  H
  H60      1.0000 0.86550  0.08310  0.10240  Biso   1.000  H
  H61      1.0000 0.36550  0.41690  0.60240  Biso   1.000  H
  H62      1.0000 0.63450  0.41690  0.89760  Biso   1.000  H
  H63      1.0000 0.86550  0.91690  0.60240  Biso   1.000  H
  H64      1.0000 0.13450  0.91690  0.89760  Biso   1.000  H
  C49      1.0000 0.69280  0.56410  0.50640  Biso   1.000  C
  C50      1.0000 0.30720  0.56410  0.99360  Biso   1.000  C
  C51      1.0000 0.19280  0.06410  0.50640  Biso   1.000  C
  C52      1.0000 0.80720  0.06410  0.99360  Biso   1.000  C
  C53      1.0000 0.30720  0.43590  0.49360  Biso   1.000  C
  C54      1.0000 0.69280  0.43590  0.00640  Biso   1.000  C
  C55      1.0000 0.80720  0.93590  0.49360  Biso   1.000  C
  C56      1.0000 0.19280  0.93590  0.00640  Biso   1.000  C
  C57      1.0000 0.69170  0.58940  0.56980  Biso   1.000  C
  C58      1.0000 0.30830  0.58940  0.93020  Biso   1.000  C
  C59      1.0000 0.19170  0.08940  0.56980  Biso   1.000  C
  C60      1.0000 0.80830  0.08940  0.93020  Biso   1.000  C
  C61      1.0000 0.30830  0.41060  0.43020  Biso   1.000  C
  C62      1.0000 0.69170  0.41060  0.06980  Biso   1.000  C
  C63      1.0000 0.80830  0.91060  0.43020  Biso   1.000  C
  C64      1.0000 0.19170  0.91060  0.06980  Biso   1.000  C
  H65      1.0000 0.73080  0.56950  0.61450  Biso   1.000  H
  H66      1.0000 0.26920  0.56950  0.88550  Biso   1.000  H
  H67      1.0000 0.23080  0.06950  0.61450  Biso   1.000  H
  H68      1.0000 0.76920  0.06950  0.88550  Biso   1.000  H
  H69      1.0000 0.26920  0.43050  0.38550  Biso   1.000  H
  H70      1.0000 0.73080  0.43050  0.11450  Biso   1.000  H
  H71      1.0000 0.76920  0.93050  0.38550  Biso   1.000  H
  H72      1.0000 0.23080  0.93050  0.11450  Biso   1.000  H
  C65      1.0000 0.63390  0.64380  0.56920  Biso   1.000  C
  C66      1.0000 0.36610  0.64380  0.93080  Biso   1.000  C
  C67      1.0000 0.13390  0.14380  0.56920  Biso   1.000  C
  C68      1.0000 0.86610  0.14380  0.93080  Biso   1.000  C
  C69      1.0000 0.36610  0.35620  0.43080  Biso   1.000  C
  C70      1.0000 0.63390  0.35620  0.06920  Biso   1.000  C
  C71      1.0000 0.86610  0.85620  0.43080  Biso   1.000  C
  C72      1.0000 0.13390  0.85620  0.06920  Biso   1.000  C
  H73      1.0000 0.63420  0.65660  0.61330  Biso   1.000  H
  H74      1.0000 0.36580  0.65660  0.88670  Biso   1.000  H
  H75      1.0000 0.13420  0.15660  0.61330  Biso   1.000  H
  H76      1.0000 0.86580  0.15660  0.88670  Biso   1.000  H
  H77      1.0000 0.36580  0.34340  0.38670  Biso   1.000  H
  H78      1.0000 0.63420  0.34340  0.11330  Biso   1.000  H
  H79      1.0000 0.86580  0.84340  0.38670  Biso   1.000  H
  H80      1.0000 0.13420  0.84340  0.11330  Biso   1.000  H
  C73      1.0000 0.75530  0.50710  0.50440  Biso   1.000  C
  C74      1.0000 0.24470  0.50710  0.99560  Biso   1.000  C
  C75      1.0000 0.25530  0.00710  0.50440  Biso   1.000  C
  C76      1.0000 0.74470  0.00710  0.99560  Biso   1.000  C
  C77      1.0000 0.24470  0.49290  0.49560  Biso   1.000  C
  C78      1.0000 0.75530  0.49290  0.00440  Biso   1.000  C
  C79      1.0000 0.74470  0.99290  0.49560  Biso   1.000  C
  C80      1.0000 0.25530  0.99290  0.00440  Biso   1.000  C
  H81      1.0000 0.74050  0.43690  0.46510  Biso   1.000  H
  H82      1.0000 0.25950  0.43690  0.03490  Biso   1.000  H
  H83      1.0000 0.24050  0.93690  0.46510  Biso   1.000  H
  H84      1.0000 0.75950  0.93690  0.03490  Biso   1.000  H
  H85      1.0000 0.25950  0.56310  0.53490  Biso   1.000  H
  H86      1.0000 0.74050  0.56310  0.96510  Biso   1.000  H
  H87      1.0000 0.75950  0.06310  0.53490  Biso   1.000  H
  H88      1.0000 0.24050  0.06310  0.96510  Biso   1.000  H
  H89      1.0000 0.77750  0.58600  0.49360  Biso   1.000  H
  H90      1.0000 0.22250  0.58600  0.00640  Biso   1.000  H
  H91      1.0000 0.27750  0.08600  0.49360  Biso   1.000  H
  H92      1.0000 0.72250  0.08600  0.00640  Biso   1.000  H
  H93      1.0000 0.22250  0.41400  0.50640  Biso   1.000  H
  H94      1.0000 0.77750  0.41400  0.99360  Biso   1.000  H
  H95      1.0000 0.72250  0.91400  0.50640  Biso   1.000  H
  H96      1.0000 0.27750  0.91400  0.99360  Biso   1.000  H
  C81      1.0000 0.84780  0.29150  0.65940  Biso   1.000  C
  C82      1.0000 0.15220  0.29150  0.84060  Biso   1.000  C
  C83      1.0000 0.34780  0.79150  0.65940  Biso   1.000  C
  C84      1.0000 0.65220  0.79150  0.84060  Biso   1.000  C
  C85      1.0000 0.15220  0.70850  0.34060  Biso   1.000  C
  C86      1.0000 0.84780  0.70850  0.15940  Biso   1.000  C
  C87      1.0000 0.65220  0.20850  0.34060  Biso   1.000  C
  C88      1.0000 0.34780  0.20850  0.15940  Biso   1.000  C
  H97      1.0000 0.85310  0.21400  0.69000  Biso   1.000  H
  H98      1.0000 0.14690  0.21400  0.81000  Biso   1.000  H
  H99      1.0000 0.35310  0.71400  0.69000  Biso   1.000  H
  H100     1.0000 0.64690  0.71400  0.81000  Biso   1.000  H
  H101     1.0000 0.14690  0.78600  0.31000  Biso   1.000  H
  H102     1.0000 0.85310  0.78600  0.19000  Biso   1.000  H
  H103     1.0000 0.64690  0.28600  0.31000  Biso   1.000  H
  H104     1.0000 0.35310  0.28600  0.19000  Biso   1.000  H
  C89      1.0000 0.87070  0.47440  0.61700  Biso   1.000  C
  C90      1.0000 0.12930  0.47440  0.88300  Biso   1.000  C
  C91      1.0000 0.37070  0.97440  0.61700  Biso   1.000  C
  C92      1.0000 0.62930  0.97440  0.88300  Biso   1.000  C
  C93      1.0000 0.12930  0.52560  0.38300  Biso   1.000  C
  C94      1.0000 0.87070  0.52560  0.11700  Biso   1.000  C
  C95      1.0000 0.62930  0.02560  0.38300  Biso   1.000  C
  C96      1.0000 0.37070  0.02560  0.11700  Biso   1.000  C
  H105     1.0000 0.89310  0.55180  0.60970  Biso   1.000  H
  H106     1.0000 0.10690  0.55180  0.89030  Biso   1.000  H
  H107     1.0000 0.39310  0.05180  0.60970  Biso   1.000  H
  H108     1.0000 0.60690  0.05180  0.89030  Biso   1.000  H
  H109     1.0000 0.10690  0.44820  0.39030  Biso   1.000  H
  H110     1.0000 0.89310  0.44820  0.10970  Biso   1.000  H
  H111     1.0000 0.60690  0.94820  0.39030  Biso   1.000  H
  H112     1.0000 0.39310  0.94820  0.10970  Biso   1.000  H
  C97      1.0000 0.21940  0.90180  0.77450  Biso   1.000  C
  C98      1.0000 0.78060  0.90180  0.72550  Biso   1.000  C
  C99      1.0000 0.71940  0.40180  0.77450  Biso   1.000  C
  C100     1.0000 0.28060  0.40180  0.72550  Biso   1.000  C
  C101     1.0000 0.78060  0.09820  0.22550  Biso   1.000  C
  C102     1.0000 0.21940  0.09820  0.27450  Biso   1.000  C
  C103     1.0000 0.28060  0.59820  0.22550  Biso   1.000  C
  C104     1.0000 0.71940  0.59820  0.27450  Biso   1.000  C
  O33      1.0000 0.13860  0.35040  0.03190  Biso   1.000  O
  O34      1.0000 0.86140  0.35040  0.46810  Biso   1.000  O
  O35      1.0000 0.63860  0.85040  0.03190  Biso   1.000  O
  O36      1.0000 0.36140  0.85040  0.46810  Biso   1.000  O
  O37      1.0000 0.86140  0.64960  0.96810  Biso   1.000  O
  O38      1.0000 0.13860  0.64960  0.53190  Biso   1.000  O
  O39      1.0000 0.36140  0.14960  0.96810  Biso   1.000  O
  O40      1.0000 0.63860  0.14960  0.53190  Biso   1.000  O
  H113     1.0000 0.14430  0.26320  0.04640  Biso   1.000  H
  H114     1.0000 0.85570  0.26320  0.45360  Biso   1.000  H
  H115     1.0000 0.64430  0.76320  0.04640  Biso   1.000  H
  H116     1.0000 0.35570  0.76320  0.45360  Biso   1.000  H
  H117     1.0000 0.85570  0.73680  0.95360  Biso   1.000  H
  H118     1.0000 0.14430  0.73680  0.54640  Biso   1.000  H
  H119     1.0000 0.35570  0.23680  0.95360  Biso   1.000  H
  H120     1.0000 0.64430  0.23680  0.54640  Biso   1.000  H
  H121     1.0000 0.13850  0.38880  0.06980  Biso   1.000  H
  H122     1.0000 0.86150  0.38880  0.43020  Biso   1.000  H
  H123     1.0000 0.63850  0.88880  0.06980  Biso   1.000  H
  H124     1.0000 0.36150  0.88880  0.43020  Biso   1.000  H
  H125     1.0000 0.86150  0.61120  0.93020  Biso   1.000  H
  H126     1.0000 0.13850  0.61120  0.56980  Biso   1.000  H
  H127     1.0000 0.36150  0.11120  0.93020  Biso   1.000  H
  H128     1.0000 0.63850  0.11120  0.56980  Biso   1.000  H
