data_image0
_cell_length_a       23.82
_cell_length_b       9.5063
_cell_length_c       15.544
_cell_angle_alpha    90
_cell_angle_beta     123.97
_cell_angle_gamma    90

_symmetry_space_group_name_H-M    "P 1"
_symmetry_int_tables_number       1

loop_
  _symmetry_equiv_pos_as_xyz
  'x, y, z'

loop_
  _atom_site_label
  _atom_site_occupancy
  _atom_site_fract_x
  _atom_site_fract_y
  _atom_site_fract_z
  _atom_site_thermal_displace_type
  _atom_site_B_iso_or_equiv
  _atom_site_type_symbol
  Cu1      1.0000 0.25000  0.25000  0.00000  Biso   1.000  Cu
  Cu2      1.0000 0.75000  0.25000  0.50000  Biso   1.000  Cu
  Cu3      1.0000 0.75000  0.75000  0.00000  Biso   1.000  Cu
  Cu4      1.0000 0.25000  0.75000  0.50000  Biso   1.000  Cu
  N1       1.0000 0.09500  0.27950  0.68960  Biso   1.000  N
  N2       1.0000 0.90500  0.27950  0.81040  Biso   1.000  N
  N3       1.0000 0.59500  0.77950  0.68960  Biso   1.000  N
  N4       1.0000 0.40500  0.77950  0.81040  Biso   1.000  N
  N5       1.0000 0.90500  0.72050  0.31040  Biso   1.000  N
  N6       1.0000 0.09500  0.72050  0.18960  Biso   1.000  N
  N7       1.0000 0.40500  0.22050  0.31040  Biso   1.000  N
  N8       1.0000 0.59500  0.22050  0.18960  Biso   1.000  N
  N9       1.0000 0.05650  0.26370  0.72830  Biso   1.000  N
  N10      1.0000 0.94350  0.26370  0.77170  Biso   1.000  N
  N11      1.0000 0.55650  0.76370  0.72830  Biso   1.000  N
  N12      1.0000 0.44350  0.76370  0.77170  Biso   1.000  N
  N13      1.0000 0.94350  0.73630  0.27170  Biso   1.000  N
  N14      1.0000 0.05650  0.73630  0.22830  Biso   1.000  N
  N15      1.0000 0.44350  0.23630  0.27170  Biso   1.000  N
  N16      1.0000 0.55650  0.23630  0.22830  Biso   1.000  N
  C1       1.0000 0.10250  0.26420  0.82920  Biso   1.000  C
  C2       1.0000 0.89750  0.26420  0.67080  Biso   1.000  C
  C3       1.0000 0.60250  0.76420  0.82920  Biso   1.000  C
  C4       1.0000 0.39750  0.76420  0.67080  Biso   1.000  C
  C5       1.0000 0.89750  0.73580  0.17080  Biso   1.000  C
  C6       1.0000 0.10250  0.73580  0.32920  Biso   1.000  C
  C7       1.0000 0.39750  0.23580  0.17080  Biso   1.000  C
  C8       1.0000 0.60250  0.23580  0.32920  Biso   1.000  C
  H1       1.0000 0.09110  0.25520  0.87850  Biso   1.000  H
  H2       1.0000 0.90890  0.25520  0.62150  Biso   1.000  H
  H3       1.0000 0.59110  0.75520  0.87850  Biso   1.000  H
  H4       1.0000 0.40890  0.75520  0.62150  Biso   1.000  H
  H5       1.0000 0.90890  0.74480  0.12150  Biso   1.000  H
  H6       1.0000 0.09110  0.74480  0.37850  Biso   1.000  H
  H7       1.0000 0.40890  0.24480  0.12150  Biso   1.000  H
  H8       1.0000 0.59110  0.24480  0.37850  Biso   1.000  H
  N17      1.0000 0.16720  0.27860  0.85720  Biso   1.000  N
  N18      1.0000 0.83280  0.27860  0.64280  Biso   1.000  N
  N19      1.0000 0.66720  0.77860  0.85720  Biso   1.000  N
  N20      1.0000 0.33280  0.77860  0.64280  Biso   1.000  N
  N21      1.0000 0.83280  0.72140  0.14280  Biso   1.000  N
  N22      1.0000 0.16720  0.72140  0.35720  Biso   1.000  N
  N23      1.0000 0.33280  0.22140  0.14280  Biso   1.000  N
  N24      1.0000 0.66720  0.22140  0.35720  Biso   1.000  N
  C9       1.0000 0.16010  0.28780  0.76630  Biso   1.000  C
  C10      1.0000 0.83990  0.28780  0.73370  Biso   1.000  C
  C11      1.0000 0.66010  0.78780  0.76630  Biso   1.000  C
  C12      1.0000 0.33990  0.78780  0.73370  Biso   1.000  C
  C13      1.0000 0.83990  0.71220  0.23370  Biso   1.000  C
  C14      1.0000 0.16010  0.71220  0.26630  Biso   1.000  C
  C15      1.0000 0.33990  0.21220  0.23370  Biso   1.000  C
  C16      1.0000 0.66010  0.21220  0.26630  Biso   1.000  C
  H9       1.0000 0.19630  0.29860  0.75750  Biso   1.000  H
  H10      1.0000 0.80370  0.29860  0.74250  Biso   1.000  H
  H11      1.0000 0.69630  0.79860  0.75750  Biso   1.000  H
  H12      1.0000 0.30370  0.79860  0.74250  Biso   1.000  H
  H13      1.0000 0.80370  0.70140  0.24250  Biso   1.000  H
  H14      1.0000 0.19630  0.70140  0.25750  Biso   1.000  H
  H15      1.0000 0.30370  0.20140  0.24250  Biso   1.000  H
  H16      1.0000 0.69630  0.20140  0.25750  Biso   1.000  H
  C17      1.0000 0.06370  0.27230  0.57830  Biso   1.000  C
  C18      1.0000 0.93630  0.27230  0.92170  Biso   1.000  C
  C19      1.0000 0.56370  0.77230  0.57830  Biso   1.000  C
  C20      1.0000 0.43630  0.77230  0.92170  Biso   1.000  C
  C21      1.0000 0.93630  0.72770  0.42170  Biso   1.000  C
  C22      1.0000 0.06370  0.72770  0.07830  Biso   1.000  C
  C23      1.0000 0.43630  0.22770  0.42170  Biso   1.000  C
  C24      1.0000 0.56370  0.22770  0.07830  Biso   1.000  C
  H17      1.0000 0.02910  0.34720  0.54330  Biso   1.000  H
  H18      1.0000 0.97090  0.34720  0.95670  Biso   1.000  H
  H19      1.0000 0.52910  0.84720  0.54330  Biso   1.000  H
  H20      1.0000 0.47090  0.84720  0.95670  Biso   1.000  H
  H21      1.0000 0.97090  0.65280  0.45670  Biso   1.000  H
  H22      1.0000 0.02910  0.65280  0.04330  Biso   1.000  H
  H23      1.0000 0.47090  0.15280  0.45670  Biso   1.000  H
  H24      1.0000 0.52910  0.15280  0.04330  Biso   1.000  H
  H25      1.0000 0.09840  0.28760  0.56300  Biso   1.000  H
  H26      1.0000 0.90160  0.28760  0.93700  Biso   1.000  H
  H27      1.0000 0.59840  0.78760  0.56300  Biso   1.000  H
  H28      1.0000 0.40160  0.78760  0.93700  Biso   1.000  H
  H29      1.0000 0.90160  0.71240  0.43700  Biso   1.000  H
  H30      1.0000 0.09840  0.71240  0.06300  Biso   1.000  H
  H31      1.0000 0.40160  0.21240  0.43700  Biso   1.000  H
  H32      1.0000 0.59840  0.21240  0.06300  Biso   1.000  H
  C25      1.0000 0.03110  0.13140  0.53770  Biso   1.000  C
  C26      1.0000 0.96890  0.13140  0.96230  Biso   1.000  C
  C27      1.0000 0.53110  0.63140  0.53770  Biso   1.000  C
  C28      1.0000 0.46890  0.63140  0.96230  Biso   1.000  C
  C29      1.0000 0.96890  0.86860  0.46230  Biso   1.000  C
  C30      1.0000 0.03110  0.86860  0.03770  Biso   1.000  C
  C31      1.0000 0.46890  0.36860  0.46230  Biso   1.000  C
  C32      1.0000 0.53110  0.36860  0.03770  Biso   1.000  C
  C33      1.0000 0.06700  0.00810  0.58130  Biso   1.000  C
  C34      1.0000 0.93300  0.00810  0.91870  Biso   1.000  C
  C35      1.0000 0.56700  0.50810  0.58130  Biso   1.000  C
  C36      1.0000 0.43300  0.50810  0.91870  Biso   1.000  C
  C37      1.0000 0.93300  0.99190  0.41870  Biso   1.000  C
  C38      1.0000 0.06700  0.99190  0.08130  Biso   1.000  C
  C39      1.0000 0.43300  0.49190  0.41870  Biso   1.000  C
  C40      1.0000 0.56700  0.49190  0.08130  Biso   1.000  C
  H33      1.0000 0.11320  0.01240  0.63760  Biso   1.000  H
  H34      1.0000 0.88680  0.01240  0.86240  Biso   1.000  H
  H35      1.0000 0.61320  0.51240  0.63760  Biso   1.000  H
  H36      1.0000 0.38680  0.51240  0.86240  Biso   1.000  H
  H37      1.0000 0.88680  0.98760  0.36240  Biso   1.000  H
  H38      1.0000 0.11320  0.98760  0.13760  Biso   1.000  H
  H39      1.0000 0.38680  0.48760  0.36240  Biso   1.000  H
  H40      1.0000 0.61320  0.48760  0.13760  Biso   1.000  H
  C41      1.0000 0.96380  0.12160  0.45660  Biso   1.000  C
  C42      1.0000 0.03620  0.12160  0.04340  Biso   1.000  C
  C43      1.0000 0.46380  0.62160  0.45660  Biso   1.000  C
  C44      1.0000 0.53620  0.62160  0.04340  Biso   1.000  C
  C45      1.0000 0.03620  0.87840  0.54340  Biso   1.000  C
  C46      1.0000 0.96380  0.87840  0.95660  Biso   1.000  C
  C47      1.0000 0.53620  0.37840  0.54340  Biso   1.000  C
  C48      1.0000 0.46380  0.37840  0.95660  Biso   1.000  C
  H41      1.0000 0.93830  0.20520  0.42630  Biso   1.000  H
  H42      1.0000 0.06170  0.20520  0.07370  Biso   1.000  H
  H43      1.0000 0.43830  0.70520  0.42630  Biso   1.000  H
  H44      1.0000 0.56170  0.70520  0.07370  Biso   1.000  H
  H45      1.0000 0.06170  0.79480  0.57370  Biso   1.000  H
  H46      1.0000 0.93830  0.79480  0.92630  Biso   1.000  H
  H47      1.0000 0.56170  0.29480  0.57370  Biso   1.000  H
  H48      1.0000 0.43830  0.29480  0.92630  Biso   1.000  H
  N25      1.0000 0.17790  0.84290  0.93870  Biso   1.000  N
  N26      1.0000 0.82210  0.84290  0.56130  Biso   1.000  N
  N27      1.0000 0.67790  0.34290  0.93870  Biso   1.000  N
  N28      1.0000 0.32210  0.34290  0.56130  Biso   1.000  N
  N29      1.0000 0.82210  0.15710  0.06130  Biso   1.000  N
  N30      1.0000 0.17790  0.15710  0.43870  Biso   1.000  N
  N31      1.0000 0.32210  0.65710  0.06130  Biso   1.000  N
  N32      1.0000 0.67790  0.65710  0.43870  Biso   1.000  N
  N33      1.0000 0.18100  0.85900  0.02700  Biso   1.000  N
  N34      1.0000 0.81900  0.85900  0.47300  Biso   1.000  N
  N35      1.0000 0.68100  0.35900  0.02700  Biso   1.000  N
  N36      1.0000 0.31900  0.35900  0.47300  Biso   1.000  N
  N37      1.0000 0.81900  0.14100  0.97300  Biso   1.000  N
  N38      1.0000 0.18100  0.14100  0.52700  Biso   1.000  N
  N39      1.0000 0.31900  0.64100  0.97300  Biso   1.000  N
  N40      1.0000 0.68100  0.64100  0.52700  Biso   1.000  N
  C49      1.0000 0.20600  0.98560  0.05700  Biso   1.000  C
  C50      1.0000 0.79400  0.98560  0.44300  Biso   1.000  C
  C51      1.0000 0.70600  0.48560  0.05700  Biso   1.000  C
  C52      1.0000 0.29400  0.48560  0.44300  Biso   1.000  C
  C53      1.0000 0.79400  0.01440  0.94300  Biso   1.000  C
  C54      1.0000 0.20600  0.01440  0.55700  Biso   1.000  C
  C55      1.0000 0.29400  0.51440  0.94300  Biso   1.000  C
  C56      1.0000 0.70600  0.51440  0.55700  Biso   1.000  C
  H49      1.0000 0.21450  0.02670  0.11900  Biso   1.000  H
  H50      1.0000 0.78550  0.02670  0.38100  Biso   1.000  H
  H51      1.0000 0.71450  0.52670  0.11900  Biso   1.000  H
  H52      1.0000 0.28550  0.52670  0.38100  Biso   1.000  H
  H53      1.0000 0.78550  0.97330  0.88100  Biso   1.000  H
  H54      1.0000 0.21450  0.97330  0.61900  Biso   1.000  H
  H55      1.0000 0.28550  0.47330  0.88100  Biso   1.000  H
  H56      1.0000 0.71450  0.47330  0.61900  Biso   1.000  H
  N41      1.0000 0.21860  0.05240  0.99440  Biso   1.000  N
  N42      1.0000 0.78140  0.05240  0.50560  Biso   1.000  N
  N43      1.0000 0.71860  0.55240  0.99440  Biso   1.000  N
  N44      1.0000 0.28140  0.55240  0.50560  Biso   1.000  N
  N45      1.0000 0.78140  0.94760  0.00560  Biso   1.000  N
  N46      1.0000 0.21860  0.94760  0.49440  Biso   1.000  N
  N47      1.0000 0.28140  0.44760  0.00560  Biso   1.000  N
  N48      1.0000 0.71860  0.44760  0.49440  Biso   1.000  N
  C57      1.0000 0.20040  0.95810  0.91980  Biso   1.000  C
  C58      1.0000 0.79960  0.95810  0.58020  Biso   1.000  C
  C59      1.0000 0.70040  0.45810  0.91980  Biso   1.000  C
  C60      1.0000 0.29960  0.45810  0.58020  Biso   1.000  C
  C61      1.0000 0.79960  0.04190  0.08020  Biso   1.000  C
  C62      1.0000 0.20040  0.04190  0.41980  Biso   1.000  C
  C63      1.0000 0.29960  0.54190  0.08020  Biso   1.000  C
  C64      1.0000 0.70040  0.54190  0.41980  Biso   1.000  C
  H57      1.0000 0.20320  0.97160  0.86180  Biso   1.000  H
  H58      1.0000 0.79680  0.97160  0.63820  Biso   1.000  H
  H59      1.0000 0.70320  0.47160  0.86180  Biso   1.000  H
  H60      1.0000 0.29680  0.47160  0.63820  Biso   1.000  H
  H61      1.0000 0.79680  0.02840  0.13820  Biso   1.000  H
  H62      1.0000 0.20320  0.02840  0.36180  Biso   1.000  H
  H63      1.0000 0.29680  0.52840  0.13820  Biso   1.000  H
  H64      1.0000 0.70320  0.52840  0.36180  Biso   1.000  H
  C65      1.0000 0.14680  0.72110  0.87310  Biso   1.000  C
  C66      1.0000 0.85320  0.72110  0.62690  Biso   1.000  C
  C67      1.0000 0.64680  0.22110  0.87310  Biso   1.000  C
  C68      1.0000 0.35320  0.22110  0.62690  Biso   1.000  C
  C69      1.0000 0.85320  0.27890  0.12690  Biso   1.000  C
  C70      1.0000 0.14680  0.27890  0.37310  Biso   1.000  C
  C71      1.0000 0.35320  0.77890  0.12690  Biso   1.000  C
  C72      1.0000 0.64680  0.77890  0.37310  Biso   1.000  C
  H65      1.0000 0.16240  0.63550  0.91690  Biso   1.000  H
  H66      1.0000 0.83760  0.63550  0.58310  Biso   1.000  H
  H67      1.0000 0.66240  0.13550  0.91690  Biso   1.000  H
  H68      1.0000 0.33760  0.13550  0.58310  Biso   1.000  H
  H69      1.0000 0.83760  0.36450  0.08310  Biso   1.000  H
  H70      1.0000 0.16240  0.36450  0.41690  Biso   1.000  H
  H71      1.0000 0.33760  0.86450  0.08310  Biso   1.000  H
  H72      1.0000 0.66240  0.86450  0.41690  Biso   1.000  H
  H73      1.0000 0.16180  0.71400  0.82540  Biso   1.000  H
  H74      1.0000 0.83820  0.71400  0.67460  Biso   1.000  H
  H75      1.0000 0.66180  0.21400  0.82540  Biso   1.000  H
  H76      1.0000 0.33820  0.21400  0.67460  Biso   1.000  H
  H77      1.0000 0.83820  0.28600  0.17460  Biso   1.000  H
  H78      1.0000 0.16180  0.28600  0.32540  Biso   1.000  H
  H79      1.0000 0.33820  0.78600  0.17460  Biso   1.000  H
  H80      1.0000 0.66180  0.78600  0.32540  Biso   1.000  H
  C73      1.0000 0.07050  0.72610  0.81010  Biso   1.000  C
  C74      1.0000 0.92950  0.72610  0.68990  Biso   1.000  C
  C75      1.0000 0.57050  0.22610  0.81010  Biso   1.000  C
  C76      1.0000 0.42950  0.22610  0.68990  Biso   1.000  C
  C77      1.0000 0.92950  0.27390  0.18990  Biso   1.000  C
  C78      1.0000 0.07050  0.27390  0.31010  Biso   1.000  C
  C79      1.0000 0.42950  0.77390  0.18990  Biso   1.000  C
  C80      1.0000 0.57050  0.77390  0.31010  Biso   1.000  C
  B1       1.0000 0.31590  0.12580  0.85190  Biso   1.000  B
  B2       1.0000 0.68410  0.12580  0.64810  Biso   1.000  B
  B3       1.0000 0.81590  0.62580  0.85190  Biso   1.000  B
  B4       1.0000 0.18410  0.62580  0.64810  Biso   1.000  B
  B5       1.0000 0.68410  0.87420  0.14810  Biso   1.000  B
  B6       1.0000 0.31590  0.87420  0.35190  Biso   1.000  B
  B7       1.0000 0.18410  0.37420  0.14810  Biso   1.000  B
  B8       1.0000 0.81590  0.37420  0.35190  Biso   1.000  B
  F1       1.0000 0.31780  0.16900  0.93800  Biso   1.000  F
  F2       1.0000 0.68220  0.16900  0.56200  Biso   1.000  F
  F3       1.0000 0.81780  0.66900  0.93800  Biso   1.000  F
  F4       1.0000 0.18220  0.66900  0.56200  Biso   1.000  F
  F5       1.0000 0.68220  0.83100  0.06200  Biso   1.000  F
  F6       1.0000 0.31780  0.83100  0.43800  Biso   1.000  F
  F7       1.0000 0.18220  0.33100  0.06200  Biso   1.000  F
  F8       1.0000 0.81780  0.33100  0.43800  Biso   1.000  F
  F9       1.0000 0.30520  0.24770  0.79410  Biso   1.000  F
  F10      1.0000 0.69480  0.24770  0.70590  Biso   1.000  F
  F11      1.0000 0.80520  0.74770  0.79410  Biso   1.000  F
  F12      1.0000 0.19480  0.74770  0.70590  Biso   1.000  F
  F13      1.0000 0.69480  0.75230  0.20590  Biso   1.000  F
  F14      1.0000 0.30520  0.75230  0.29410  Biso   1.000  F
  F15      1.0000 0.19480  0.25230  0.20590  Biso   1.000  F
  F16      1.0000 0.80520  0.25230  0.29410  Biso   1.000  F
  F17      1.0000 0.37530  0.06890  0.87710  Biso   1.000  F
  F18      1.0000 0.62470  0.06890  0.62290  Biso   1.000  F
  F19      1.0000 0.87530  0.56890  0.87710  Biso   1.000  F
  F20      1.0000 0.12470  0.56890  0.62290  Biso   1.000  F
  F21      1.0000 0.62470  0.93110  0.12290  Biso   1.000  F
  F22      1.0000 0.37530  0.93110  0.37710  Biso   1.000  F
  F23      1.0000 0.12470  0.43110  0.12290  Biso   1.000  F
  F24      1.0000 0.87530  0.43110  0.37710  Biso   1.000  F
  F25      1.0000 0.26260  0.03480  0.79410  Biso   1.000  F
  F26      1.0000 0.73740  0.03480  0.70590  Biso   1.000  F
  F27      1.0000 0.76260  0.53480  0.79410  Biso   1.000  F
  F28      1.0000 0.23740  0.53480  0.70590  Biso   1.000  F
  F29      1.0000 0.73740  0.96520  0.20590  Biso   1.000  F
  F30      1.0000 0.26260  0.96520  0.29410  Biso   1.000  F
  F31      1.0000 0.23740  0.46520  0.20590  Biso   1.000  F
  F32      1.0000 0.76260  0.46520  0.29410  Biso   1.000  F
  C81      1.0000 0.03360  0.61730  0.82300  Biso   1.000  C
  C82      1.0000 0.96640  0.61730  0.67700  Biso   1.000  C
  C83      1.0000 0.53360  0.11730  0.82300  Biso   1.000  C
  C84      1.0000 0.46640  0.11730  0.67700  Biso   1.000  C
  C85      1.0000 0.96640  0.38270  0.17700  Biso   1.000  C
  C86      1.0000 0.03360  0.38270  0.32300  Biso   1.000  C
  C87      1.0000 0.46640  0.88270  0.17700  Biso   1.000  C
  C88      1.0000 0.53360  0.88270  0.32300  Biso   1.000  C
  H81      1.0000 0.05700  0.54360  0.87160  Biso   1.000  H
  H82      1.0000 0.94300  0.54360  0.62840  Biso   1.000  H
  H83      1.0000 0.55700  0.04360  0.87160  Biso   1.000  H
  H84      1.0000 0.44300  0.04360  0.62840  Biso   1.000  H
  H85      1.0000 0.94300  0.45640  0.12840  Biso   1.000  H
  H86      1.0000 0.05700  0.45640  0.37160  Biso   1.000  H
  H87      1.0000 0.44300  0.95640  0.12840  Biso   1.000  H
  H88      1.0000 0.55700  0.95640  0.37160  Biso   1.000  H
  C89      1.0000 0.03580  0.83610  0.75860  Biso   1.000  C
  C90      1.0000 0.96420  0.83610  0.74140  Biso   1.000  C
  C91      1.0000 0.53580  0.33610  0.75860  Biso   1.000  C
  C92      1.0000 0.46420  0.33610  0.74140  Biso   1.000  C
  C93      1.0000 0.96420  0.16390  0.24140  Biso   1.000  C
  C94      1.0000 0.03580  0.16390  0.25860  Biso   1.000  C
  C95      1.0000 0.46420  0.66390  0.24140  Biso   1.000  C
  C96      1.0000 0.53580  0.66390  0.25860  Biso   1.000  C
  H89      1.0000 0.05990  0.91780  0.76170  Biso   1.000  H
  H90      1.0000 0.94010  0.91780  0.73830  Biso   1.000  H
  H91      1.0000 0.55990  0.41780  0.76170  Biso   1.000  H
  H92      1.0000 0.44010  0.41780  0.73830  Biso   1.000  H
  H93      1.0000 0.94010  0.08220  0.23830  Biso   1.000  H
  H94      1.0000 0.05990  0.08220  0.26170  Biso   1.000  H
  H95      1.0000 0.44010  0.58220  0.23830  Biso   1.000  H
  H96      1.0000 0.55990  0.58220  0.26170  Biso   1.000  H
  C97      1.0000 0.03660  0.62170  0.73660  Biso   1.000  C
  C98      1.0000 0.96340  0.62170  0.76340  Biso   1.000  C
  C99      1.0000 0.53660  0.12170  0.73660  Biso   1.000  C
  C100     1.0000 0.46340  0.12170  0.76340  Biso   1.000  C
  C101     1.0000 0.96340  0.37830  0.26340  Biso   1.000  C
  C102     1.0000 0.03660  0.37830  0.23660  Biso   1.000  C
  C103     1.0000 0.46340  0.87830  0.26340  Biso   1.000  C
  C104     1.0000 0.53660  0.87830  0.23660  Biso   1.000  C
  H97      1.0000 0.06150  0.55290  0.72680  Biso   1.000  H
  H98      1.0000 0.93850  0.55290  0.77320  Biso   1.000  H
  H99      1.0000 0.56150  0.05290  0.72680  Biso   1.000  H
  H100     1.0000 0.43850  0.05290  0.77320  Biso   1.000  H
  H101     1.0000 0.93850  0.44710  0.27320  Biso   1.000  H
  H102     1.0000 0.06150  0.44710  0.22680  Biso   1.000  H
  H103     1.0000 0.43850  0.94710  0.27320  Biso   1.000  H
  H104     1.0000 0.56150  0.94710  0.22680  Biso   1.000  H
  C105     1.0000 0.03530  0.84170  0.80180  Biso   1.000  C
  C106     1.0000 0.96470  0.84170  0.69820  Biso   1.000  C
  C107     1.0000 0.53530  0.34170  0.80180  Biso   1.000  C
  C108     1.0000 0.46470  0.34170  0.69820  Biso   1.000  C
  C109     1.0000 0.96470  0.15830  0.19820  Biso   1.000  C
  C110     1.0000 0.03530  0.15830  0.30180  Biso   1.000  C
  C111     1.0000 0.46470  0.65830  0.19820  Biso   1.000  C
  C112     1.0000 0.53530  0.65830  0.30180  Biso   1.000  C
  H105     1.0000 0.05810  0.92620  0.83620  Biso   1.000  H
  H106     1.0000 0.94190  0.92620  0.66380  Biso   1.000  H
  H107     1.0000 0.55810  0.42620  0.83620  Biso   1.000  H
  H108     1.0000 0.44190  0.42620  0.66380  Biso   1.000  H
  H109     1.0000 0.94190  0.07380  0.16380  Biso   1.000  H
  H110     1.0000 0.05810  0.07380  0.33620  Biso   1.000  H
  H111     1.0000 0.44190  0.57380  0.16380  Biso   1.000  H
  H112     1.0000 0.55810  0.57380  0.33620  Biso   1.000  H
