data_image0
_cell_length_a       10.0074
_cell_length_b       13.9437
_cell_length_c       7.01
_cell_angle_alpha    90
_cell_angle_beta     98.075
_cell_angle_gamma    90

_symmetry_space_group_name_H-M    "P 1"
_symmetry_int_tables_number       1

loop_
  _symmetry_equiv_pos_as_xyz
  'x, y, z'

loop_
  _atom_site_label
  _atom_site_occupancy
  _atom_site_fract_x
  _atom_site_fract_y
  _atom_site_fract_z
  _atom_site_thermal_displace_type
  _atom_site_B_iso_or_equiv
  _atom_site_type_symbol
  Cu1      1.0000 0.50000  0.50000  0.50000  Biso   1.000  Cu
  Cu2      1.0000 0.50000  0.00000  0.00000  Biso   1.000  Cu
  O1       1.0000 0.48941  0.35774  0.51817  Biso   1.000  O
  O2       1.0000 0.51059  0.85774  0.98183  Biso   1.000  O
  O3       1.0000 0.51059  0.64226  0.48183  Biso   1.000  O
  O4       1.0000 0.48941  0.14226  0.01817  Biso   1.000  O
  O5       1.0000 0.54186  0.14774  0.50171  Biso   1.000  O
  O6       1.0000 0.45814  0.64774  0.99829  Biso   1.000  O
  O7       1.0000 0.45814  0.85226  0.49829  Biso   1.000  O
  O8       1.0000 0.54186  0.35226  0.00171  Biso   1.000  O
  O9       1.0000 0.81999  0.12388  0.43620  Biso   1.000  O
  O10      1.0000 0.18001  0.62388  0.06380  Biso   1.000  O
  O11      1.0000 0.18001  0.87612  0.56380  Biso   1.000  O
  O12      1.0000 0.81999  0.37612  0.93620  Biso   1.000  O
  O13      1.0000 0.94396  0.31672  0.42670  Biso   1.000  O
  O14      1.0000 0.05604  0.81672  0.07330  Biso   1.000  O
  O15      1.0000 0.05604  0.68328  0.57330  Biso   1.000  O
  O16      1.0000 0.94396  0.18328  0.92670  Biso   1.000  O
  O17      1.0000 0.73063  0.45692  0.47330  Biso   1.000  O
  O18      1.0000 0.26937  0.95692  0.02670  Biso   1.000  O
  O19      1.0000 0.26937  0.54308  0.52670  Biso   1.000  O
  O20      1.0000 0.73063  0.04308  0.97330  Biso   1.000  O
  O21      1.0000 0.55581  0.51074  0.77810  Biso   1.000  O
  O22      1.0000 0.44419  0.01074  0.72190  Biso   1.000  O
  O23      1.0000 0.44419  0.48926  0.22190  Biso   1.000  O
  O24      1.0000 0.55581  0.98926  0.27810  Biso   1.000  O
  H1       1.0000 0.54400  0.45160  0.84100  Biso   1.000  H
  H2       1.0000 0.45600  0.95160  0.65900  Biso   1.000  H
  H3       1.0000 0.45600  0.54840  0.15900  Biso   1.000  H
  H4       1.0000 0.54400  0.04840  0.34100  Biso   1.000  H
  H5       1.0000 0.51400  0.56410  0.83100  Biso   1.000  H
  H6       1.0000 0.48600  0.06410  0.66900  Biso   1.000  H
  H7       1.0000 0.48600  0.43590  0.16900  Biso   1.000  H
  H8       1.0000 0.51400  0.93590  0.33100  Biso   1.000  H
  C1       1.0000 0.59852  0.31596  0.49690  Biso   1.000  C
  C2       1.0000 0.40148  0.81596  0.00310  Biso   1.000  C
  C3       1.0000 0.40148  0.68404  0.50310  Biso   1.000  C
  C4       1.0000 0.59852  0.18404  0.99690  Biso   1.000  C
  C5       1.0000 0.62393  0.21439  0.48820  Biso   1.000  C
  C6       1.0000 0.37607  0.71439  0.01180  Biso   1.000  C
  C7       1.0000 0.37607  0.78561  0.51180  Biso   1.000  C
  C8       1.0000 0.62393  0.28561  0.98820  Biso   1.000  C
  C9       1.0000 0.76504  0.20161  0.45590  Biso   1.000  C
  C10      1.0000 0.23496  0.70161  0.04410  Biso   1.000  C
  C11      1.0000 0.23496  0.79839  0.54410  Biso   1.000  C
  C12      1.0000 0.76504  0.29839  0.95590  Biso   1.000  C
  C13      1.0000 0.82710  0.29809  0.44950  Biso   1.000  C
  C14      1.0000 0.17290  0.79809  0.05050  Biso   1.000  C
  C15      1.0000 0.17290  0.70191  0.55050  Biso   1.000  C
  C16      1.0000 0.82710  0.20191  0.94950  Biso   1.000  C
  C17      1.0000 0.72140  0.36779  0.47390  Biso   1.000  C
  C18      1.0000 0.27860  0.86779  0.02610  Biso   1.000  C
  C19      1.0000 0.27860  0.63221  0.52610  Biso   1.000  C
  C20      1.0000 0.72140  0.13221  0.97390  Biso   1.000  C
  Cu3      1.0000 0.00000  0.00000  0.50000  Biso   1.000  Cu
  Cu4      1.0000 0.00000  0.50000  0.00000  Biso   1.000  Cu
  N1       1.0000 0.08602  0.05308  0.28000  Biso   1.000  N
  N2       1.0000 0.91398  0.55308  0.22000  Biso   1.000  N
  N3       1.0000 0.91398  0.94692  0.72000  Biso   1.000  N
  N4       1.0000 0.08602  0.44692  0.78000  Biso   1.000  N
  H9       1.0000 0.10340  0.00530  0.20080  Biso   1.000  H
  H10      1.0000 0.89660  0.50530  0.29920  Biso   1.000  H
  H11      1.0000 0.89660  0.99470  0.79920  Biso   1.000  H
  H12      1.0000 0.10340  0.49470  0.70080  Biso   1.000  H
  H13      1.0000 0.02980  0.09500  0.21210  Biso   1.000  H
  H14      1.0000 0.97020  0.59500  0.28790  Biso   1.000  H
  H15      1.0000 0.97020  0.90500  0.78790  Biso   1.000  H
  H16      1.0000 0.02980  0.40500  0.71210  Biso   1.000  H
  N5       1.0000 0.12939  0.08633  0.66500  Biso   1.000  N
  N6       1.0000 0.87061  0.58633  0.83500  Biso   1.000  N
  N7       1.0000 0.87061  0.91367  0.33500  Biso   1.000  N
  N8       1.0000 0.12939  0.41367  0.16500  Biso   1.000  N
  H17      1.0000 0.08530  0.11880  0.74790  Biso   1.000  H
  H18      1.0000 0.91470  0.61880  0.75210  Biso   1.000  H
  H19      1.0000 0.91470  0.88120  0.25210  Biso   1.000  H
  H20      1.0000 0.08530  0.38120  0.24790  Biso   1.000  H
  H21      1.0000 0.19440  0.05100  0.73370  Biso   1.000  H
  H22      1.0000 0.80560  0.55100  0.76630  Biso   1.000  H
  H23      1.0000 0.80560  0.94900  0.26630  Biso   1.000  H
  H24      1.0000 0.19440  0.44900  0.23370  Biso   1.000  H
  C21      1.0000 0.21280  0.10165  0.35920  Biso   1.000  C
  C22      1.0000 0.78720  0.60165  0.14080  Biso   1.000  C
  C23      1.0000 0.78720  0.89835  0.64080  Biso   1.000  C
  C24      1.0000 0.21280  0.39835  0.85920  Biso   1.000  C
  H25      1.0000 0.23890  0.14660  0.26550  Biso   1.000  H
  H26      1.0000 0.76110  0.64660  0.23450  Biso   1.000  H
  H27      1.0000 0.76110  0.85340  0.73450  Biso   1.000  H
  H28      1.0000 0.23890  0.35340  0.76550  Biso   1.000  H
  H29      1.0000 0.28440  0.05490  0.38820  Biso   1.000  H
  H30      1.0000 0.71560  0.55490  0.11180  Biso   1.000  H
  H31      1.0000 0.71560  0.94510  0.61180  Biso   1.000  H
  H32      1.0000 0.28440  0.44510  0.88820  Biso   1.000  H
  C25      1.0000 0.19060  0.15435  0.54070  Biso   1.000  C
  C26      1.0000 0.80940  0.65435  0.95930  Biso   1.000  C
  C27      1.0000 0.80940  0.84565  0.45930  Biso   1.000  C
  C28      1.0000 0.19060  0.34565  0.04070  Biso   1.000  C
  H33      1.0000 0.27590  0.17790  0.60710  Biso   1.000  H
  H34      1.0000 0.72410  0.67790  0.89290  Biso   1.000  H
  H35      1.0000 0.72410  0.82210  0.39290  Biso   1.000  H
  H36      1.0000 0.27590  0.32210  0.10710  Biso   1.000  H
  H37      1.0000 0.13110  0.20870  0.50900  Biso   1.000  H
  H38      1.0000 0.86890  0.70870  0.99100  Biso   1.000  H
  H39      1.0000 0.86890  0.79130  0.49100  Biso   1.000  H
  H40      1.0000 0.13110  0.29130  0.00900  Biso   1.000  H
