data_image0
_cell_length_a       13.0699
_cell_length_b       13.066
_cell_length_c       7.0103
_cell_angle_alpha    90
_cell_angle_beta     101.104
_cell_angle_gamma    90

_symmetry_space_group_name_H-M    "P 1"
_symmetry_int_tables_number       1

loop_
  _symmetry_equiv_pos_as_xyz
  'x, y, z'

loop_
  _atom_site_label
  _atom_site_occupancy
  _atom_site_fract_x
  _atom_site_fract_y
  _atom_site_fract_z
  _atom_site_thermal_displace_type
  _atom_site_B_iso_or_equiv
  _atom_site_type_symbol
  Cu1      1.0000 0.00000  0.00000  0.00000  Biso   1.000  Cu
  Cu2      1.0000 0.00000  0.50000  0.50000  Biso   1.000  Cu
  Mn1      1.0000 0.50000  0.50000  0.00000  Biso   1.000  Mn
  Mn2      1.0000 0.50000  0.00000  0.50000  Biso   1.000  Mn
  O1       1.0000 0.40982  0.36555  0.01970  Biso   1.000  O
  O2       1.0000 0.59018  0.86555  0.48030  Biso   1.000  O
  O3       1.0000 0.59018  0.63445  0.98030  Biso   1.000  O
  O4       1.0000 0.40982  0.13445  0.51970  Biso   1.000  O
  O5       1.0000 0.21609  0.48076  0.03820  Biso   1.000  O
  O6       1.0000 0.78391  0.98076  0.46180  Biso   1.000  O
  O7       1.0000 0.78391  0.51924  0.96180  Biso   1.000  O
  O8       1.0000 0.21609  0.01924  0.53820  Biso   1.000  O
  O9       1.0000 0.05345  0.33260  0.05730  Biso   1.000  O
  O10      1.0000 0.94655  0.83260  0.44270  Biso   1.000  O
  O11      1.0000 0.94655  0.66740  0.94270  Biso   1.000  O
  O12      1.0000 0.05345  0.16740  0.55730  Biso   1.000  O
  O13      1.0000 0.14562  0.12614  0.06420  Biso   1.000  O
  O14      1.0000 0.85438  0.62614  0.43580  Biso   1.000  O
  O15      1.0000 0.85438  0.87386  0.93580  Biso   1.000  O
  O16      1.0000 0.14562  0.37386  0.56420  Biso   1.000  O
  O17      1.0000 0.36275  0.15117  0.02060  Biso   1.000  O
  O18      1.0000 0.63725  0.65117  0.47940  Biso   1.000  O
  O19      1.0000 0.63725  0.84883  0.97940  Biso   1.000  O
  O20      1.0000 0.36275  0.34883  0.52060  Biso   1.000  O
  O21      1.0000 0.58900  0.47366  0.28640  Biso   1.000  O
  O22      1.0000 0.41100  0.97366  0.21360  Biso   1.000  O
  O23      1.0000 0.41100  0.52634  0.71360  Biso   1.000  O
  O24      1.0000 0.58900  0.02634  0.78640  Biso   1.000  O
  H1       1.0000 0.57600  0.41800  0.36600  Biso   1.000  H
  H2       1.0000 0.42400  0.91800  0.13400  Biso   1.000  H
  H3       1.0000 0.42400  0.58200  0.63400  Biso   1.000  H
  H4       1.0000 0.57600  0.08200  0.86600  Biso   1.000  H
  H5       1.0000 0.60900  0.53200  0.36300  Biso   1.000  H
  H6       1.0000 0.39100  0.03200  0.13700  Biso   1.000  H
  H7       1.0000 0.39100  0.46800  0.63700  Biso   1.000  H
  H8       1.0000 0.60900  0.96800  0.86300  Biso   1.000  H
  O25      1.0000 0.61558  0.39548  0.90200  Biso   1.000  O
  O26      1.0000 0.38442  0.89548  0.59800  Biso   1.000  O
  O27      1.0000 0.38442  0.60452  0.09800  Biso   1.000  O
  O28      1.0000 0.61558  0.10452  0.40200  Biso   1.000  O
  H9       1.0000 0.67790  0.43400  0.90900  Biso   1.000  H
  H10      1.0000 0.32210  0.93400  0.59100  Biso   1.000  H
  H11      1.0000 0.32210  0.56600  0.09100  Biso   1.000  H
  H12      1.0000 0.67790  0.06600  0.40900  Biso   1.000  H
  H13      1.0000 0.60500  0.37300  0.77100  Biso   1.000  H
  H14      1.0000 0.39500  0.87300  0.72900  Biso   1.000  H
  H15      1.0000 0.39500  0.62700  0.22900  Biso   1.000  H
  H16      1.0000 0.60500  0.12700  0.27100  Biso   1.000  H
  O29      1.0000 0.56922  0.31193  0.53120  Biso   1.000  O
  O30      1.0000 0.43078  0.81193  0.96880  Biso   1.000  O
  O31      1.0000 0.43078  0.68807  0.46880  Biso   1.000  O
  O32      1.0000 0.56922  0.18807  0.03120  Biso   1.000  O
  H17      1.0000 0.49700  0.31500  0.53200  Biso   1.000  H
  H18      1.0000 0.50300  0.81500  0.96800  Biso   1.000  H
  H19      1.0000 0.50300  0.68500  0.46800  Biso   1.000  H
  H20      1.0000 0.49700  0.18500  0.03200  Biso   1.000  H
  H21      1.0000 0.59100  0.24380  0.51300  Biso   1.000  H
  H22      1.0000 0.40900  0.74380  0.98700  Biso   1.000  H
  H23      1.0000 0.40900  0.75620  0.48700  Biso   1.000  H
  H24      1.0000 0.59100  0.25620  0.01300  Biso   1.000  H
  N1       1.0000 0.07295  0.93980  0.79990  Biso   1.000  N
  N2       1.0000 0.92705  0.43980  0.70010  Biso   1.000  N
  N3       1.0000 0.92705  0.06020  0.20010  Biso   1.000  N
  N4       1.0000 0.07295  0.56020  0.29990  Biso   1.000  N
  H25      1.0000 0.03270  0.89160  0.73070  Biso   1.000  H
  H26      1.0000 0.96730  0.39160  0.76930  Biso   1.000  H
  H27      1.0000 0.96730  0.10840  0.26930  Biso   1.000  H
  H28      1.0000 0.03270  0.60840  0.23070  Biso   1.000  H
  H29      1.0000 0.08610  0.98880  0.71770  Biso   1.000  H
  H30      1.0000 0.91390  0.48880  0.78230  Biso   1.000  H
  H31      1.0000 0.91390  0.01120  0.28230  Biso   1.000  H
  H32      1.0000 0.08610  0.51120  0.21770  Biso   1.000  H
  N5       1.0000 0.09321  0.90852  0.18730  Biso   1.000  N
  N6       1.0000 0.90679  0.40852  0.31270  Biso   1.000  N
  N7       1.0000 0.90679  0.09148  0.81270  Biso   1.000  N
  N8       1.0000 0.09321  0.59148  0.68730  Biso   1.000  N
  H33      1.0000 0.13720  0.94660  0.27360  Biso   1.000  H
  H34      1.0000 0.86280  0.44660  0.22640  Biso   1.000  H
  H35      1.0000 0.86280  0.05340  0.72640  Biso   1.000  H
  H36      1.0000 0.13720  0.55340  0.77360  Biso   1.000  H
  H37      1.0000 0.05470  0.86980  0.25290  Biso   1.000  H
  H38      1.0000 0.94530  0.36980  0.24710  Biso   1.000  H
  H39      1.0000 0.94530  0.13020  0.74710  Biso   1.000  H
  H40      1.0000 0.05470  0.63020  0.75290  Biso   1.000  H
  C1       1.0000 0.32187  0.32990  0.02930  Biso   1.000  C
  C2       1.0000 0.67813  0.82990  0.47070  Biso   1.000  C
  C3       1.0000 0.67813  0.67010  0.97070  Biso   1.000  C
  C4       1.0000 0.32187  0.17010  0.52930  Biso   1.000  C
  C5       1.0000 0.22771  0.38588  0.03880  Biso   1.000  C
  C6       1.0000 0.77229  0.88588  0.46120  Biso   1.000  C
  C7       1.0000 0.77229  0.61412  0.96120  Biso   1.000  C
  C8       1.0000 0.22771  0.11412  0.53880  Biso   1.000  C
  C9       1.0000 0.14500  0.31130  0.05030  Biso   1.000  C
  C10      1.0000 0.85500  0.81130  0.44970  Biso   1.000  C
  C11      1.0000 0.85500  0.68870  0.94970  Biso   1.000  C
  C12      1.0000 0.14500  0.18870  0.55030  Biso   1.000  C
  C13      1.0000 0.18994  0.20770  0.05110  Biso   1.000  C
  C14      1.0000 0.81006  0.70770  0.44890  Biso   1.000  C
  C15      1.0000 0.81006  0.79230  0.94890  Biso   1.000  C
  C16      1.0000 0.18994  0.29230  0.55110  Biso   1.000  C
  C17      1.0000 0.29967  0.22052  0.03260  Biso   1.000  C
  C18      1.0000 0.70033  0.72052  0.46740  Biso   1.000  C
  C19      1.0000 0.70033  0.77948  0.96740  Biso   1.000  C
  C20      1.0000 0.29967  0.27948  0.53260  Biso   1.000  C
  C21      1.0000 0.17120  0.89420  0.90240  Biso   1.000  C
  C22      1.0000 0.82880  0.39420  0.59760  Biso   1.000  C
  C23      1.0000 0.82880  0.10580  0.09760  Biso   1.000  C
  C24      1.0000 0.17120  0.60580  0.40240  Biso   1.000  C
  H41      1.0000 0.19690  0.84570  0.81800  Biso   1.000  H
  H42      1.0000 0.80310  0.34570  0.68200  Biso   1.000  H
  H43      1.0000 0.80310  0.15430  0.18200  Biso   1.000  H
  H44      1.0000 0.19690  0.65430  0.31800  Biso   1.000  H
  H45      1.0000 0.22330  0.94730  0.93760  Biso   1.000  H
  H46      1.0000 0.77670  0.44730  0.56240  Biso   1.000  H
  H47      1.0000 0.77670  0.05270  0.06240  Biso   1.000  H
  H48      1.0000 0.22330  0.55270  0.43760  Biso   1.000  H
  C25      1.0000 0.15320  0.84190  0.07750  Biso   1.000  C
  C26      1.0000 0.84680  0.34190  0.42250  Biso   1.000  C
  C27      1.0000 0.84680  0.15810  0.92250  Biso   1.000  C
  C28      1.0000 0.15320  0.65810  0.57750  Biso   1.000  C
  H49      1.0000 0.21960  0.82440  0.15910  Biso   1.000  H
  H50      1.0000 0.78040  0.32440  0.34090  Biso   1.000  H
  H51      1.0000 0.78040  0.17560  0.84090  Biso   1.000  H
  H52      1.0000 0.21960  0.67560  0.65910  Biso   1.000  H
  H53      1.0000 0.11490  0.77900  0.04150  Biso   1.000  H
  H54      1.0000 0.88510  0.27900  0.45850  Biso   1.000  H
  H55      1.0000 0.88510  0.22100  0.95850  Biso   1.000  H
  H56      1.0000 0.11490  0.72100  0.54150  Biso   1.000  H
