data_image0
_cell_length_a       9.8755
_cell_length_b       13.9423
_cell_length_c       7.0743
_cell_angle_alpha    90
_cell_angle_beta     98.677
_cell_angle_gamma    90

_symmetry_space_group_name_H-M    "P 1"
_symmetry_int_tables_number       1

loop_
  _symmetry_equiv_pos_as_xyz
  'x, y, z'

loop_
  _atom_site_label
  _atom_site_occupancy
  _atom_site_fract_x
  _atom_site_fract_y
  _atom_site_fract_z
  _atom_site_thermal_displace_type
  _atom_site_B_iso_or_equiv
  _atom_site_type_symbol
  Ni1      1.0000 0.50000  0.50000  0.50000  Biso   1.000  Ni
  Ni2      1.0000 0.50000  0.00000  0.00000  Biso   1.000  Ni
  O1       1.0000 0.47910  0.35448  0.52200  Biso   1.000  O
  O2       1.0000 0.52090  0.85448  0.97800  Biso   1.000  O
  O3       1.0000 0.52090  0.64552  0.47800  Biso   1.000  O
  O4       1.0000 0.47910  0.14552  0.02200  Biso   1.000  O
  O5       1.0000 0.54450  0.14514  0.50300  Biso   1.000  O
  O6       1.0000 0.45550  0.64514  0.99700  Biso   1.000  O
  O7       1.0000 0.45550  0.85486  0.49700  Biso   1.000  O
  O8       1.0000 0.54450  0.35486  0.00300  Biso   1.000  O
  O9       1.0000 0.82450  0.13067  0.42910  Biso   1.000  O
  O10      1.0000 0.17550  0.63067  0.07090  Biso   1.000  O
  O11      1.0000 0.17550  0.86933  0.57090  Biso   1.000  O
  O12      1.0000 0.82450  0.36933  0.92910  Biso   1.000  O
  O13      1.0000 0.93790  0.32770  0.42320  Biso   1.000  O
  O14      1.0000 0.06210  0.82770  0.07680  Biso   1.000  O
  O15      1.0000 0.06210  0.67230  0.57680  Biso   1.000  O
  O16      1.0000 0.93790  0.17230  0.92320  Biso   1.000  O
  O17      1.0000 0.71110  0.45962  0.47080  Biso   1.000  O
  O18      1.0000 0.28890  0.95962  0.02920  Biso   1.000  O
  O19      1.0000 0.28890  0.54038  0.52920  Biso   1.000  O
  O20      1.0000 0.71110  0.04038  0.97080  Biso   1.000  O
  O21      1.0000 0.56370  0.51316  0.78150  Biso   1.000  O
  O22      1.0000 0.43630  0.01316  0.71850  Biso   1.000  O
  O23      1.0000 0.43630  0.48684  0.21850  Biso   1.000  O
  O24      1.0000 0.56370  0.98684  0.28150  Biso   1.000  O
  H1       1.0000 0.55900  0.45650  0.85500  Biso   1.000  H
  H2       1.0000 0.44100  0.95650  0.64500  Biso   1.000  H
  H3       1.0000 0.44100  0.54350  0.14500  Biso   1.000  H
  H4       1.0000 0.55900  0.04350  0.35500  Biso   1.000  H
  H5       1.0000 0.51600  0.56400  0.83300  Biso   1.000  H
  H6       1.0000 0.48400  0.06400  0.66700  Biso   1.000  H
  H7       1.0000 0.48400  0.43600  0.16700  Biso   1.000  H
  H8       1.0000 0.51600  0.93600  0.33300  Biso   1.000  H
  C1       1.0000 0.58990  0.31500  0.49780  Biso   1.000  C
  C2       1.0000 0.41010  0.81500  0.00220  Biso   1.000  C
  C3       1.0000 0.41010  0.68500  0.50220  Biso   1.000  C
  C4       1.0000 0.58990  0.18500  0.99780  Biso   1.000  C
  C5       1.0000 0.62240  0.21440  0.48820  Biso   1.000  C
  C6       1.0000 0.37760  0.71440  0.01180  Biso   1.000  C
  C7       1.0000 0.37760  0.78560  0.51180  Biso   1.000  C
  C8       1.0000 0.62240  0.28560  0.98820  Biso   1.000  C
  C9       1.0000 0.76520  0.20620  0.45230  Biso   1.000  C
  C10      1.0000 0.23480  0.70620  0.04770  Biso   1.000  C
  C11      1.0000 0.23480  0.79380  0.54770  Biso   1.000  C
  C12      1.0000 0.76520  0.29380  0.95230  Biso   1.000  C
  C13      1.0000 0.82130  0.30450  0.44600  Biso   1.000  C
  C14      1.0000 0.17870  0.80450  0.05400  Biso   1.000  C
  C15      1.0000 0.17870  0.69550  0.55400  Biso   1.000  C
  C16      1.0000 0.82130  0.19550  0.94600  Biso   1.000  C
  C17      1.0000 0.71030  0.36970  0.47340  Biso   1.000  C
  C18      1.0000 0.28970  0.86970  0.02660  Biso   1.000  C
  C19      1.0000 0.28970  0.63030  0.52660  Biso   1.000  C
  C20      1.0000 0.71030  0.13030  0.97340  Biso   1.000  C
  Cu1      1.0000 0.00000  0.00000  0.50000  Biso   1.000  Cu
  Cu2      1.0000 0.00000  0.50000  0.00000  Biso   1.000  Cu
  N1       1.0000 0.08340  0.04810  0.27600  Biso   1.000  N
  N2       1.0000 0.91660  0.54810  0.22400  Biso   1.000  N
  N3       1.0000 0.91660  0.95190  0.72400  Biso   1.000  N
  N4       1.0000 0.08340  0.45190  0.77600  Biso   1.000  N
  H9       1.0000 0.10260  0.99830  0.20340  Biso   1.000  H
  H10      1.0000 0.89740  0.49830  0.29660  Biso   1.000  H
  H11      1.0000 0.89740  0.00170  0.79660  Biso   1.000  H
  H12      1.0000 0.10260  0.50170  0.70340  Biso   1.000  H
  H13      1.0000 0.02390  0.08690  0.20360  Biso   1.000  H
  H14      1.0000 0.97610  0.58690  0.29640  Biso   1.000  H
  H15      1.0000 0.97610  0.91310  0.79640  Biso   1.000  H
  H16      1.0000 0.02390  0.41310  0.70360  Biso   1.000  H
  N5       1.0000 0.13170  0.08980  0.65360  Biso   1.000  N
  N6       1.0000 0.86830  0.58980  0.84640  Biso   1.000  N
  N7       1.0000 0.86830  0.91020  0.34640  Biso   1.000  N
  N8       1.0000 0.13170  0.41020  0.15360  Biso   1.000  N
  H17      1.0000 0.08840  0.12300  0.73580  Biso   1.000  H
  H18      1.0000 0.91160  0.62300  0.76420  Biso   1.000  H
  H19      1.0000 0.91160  0.87700  0.26420  Biso   1.000  H
  H20      1.0000 0.08840  0.37700  0.23580  Biso   1.000  H
  H21      1.0000 0.20020  0.05630  0.72170  Biso   1.000  H
  H22      1.0000 0.79980  0.55630  0.77830  Biso   1.000  H
  H23      1.0000 0.79980  0.94370  0.27830  Biso   1.000  H
  H24      1.0000 0.20020  0.44370  0.22170  Biso   1.000  H
  C21      1.0000 0.20980  0.10090  0.34680  Biso   1.000  C
  C22      1.0000 0.79020  0.60090  0.15320  Biso   1.000  C
  C23      1.0000 0.79020  0.89910  0.65320  Biso   1.000  C
  C24      1.0000 0.20980  0.39910  0.84680  Biso   1.000  C
  H25      1.0000 0.23200  0.14440  0.24890  Biso   1.000  H
  H26      1.0000 0.76800  0.64440  0.25110  Biso   1.000  H
  H27      1.0000 0.76800  0.85560  0.75110  Biso   1.000  H
  H28      1.0000 0.23200  0.35560  0.74890  Biso   1.000  H
  H29      1.0000 0.28530  0.05640  0.37830  Biso   1.000  H
  H30      1.0000 0.71470  0.55640  0.12170  Biso   1.000  H
  H31      1.0000 0.71470  0.94360  0.62170  Biso   1.000  H
  H32      1.0000 0.28530  0.44360  0.87830  Biso   1.000  H
  C25      1.0000 0.18800  0.15680  0.52230  Biso   1.000  C
  C26      1.0000 0.81200  0.65680  0.97770  Biso   1.000  C
  C27      1.0000 0.81200  0.84320  0.47770  Biso   1.000  C
  C28      1.0000 0.18800  0.34320  0.02230  Biso   1.000  C
  H33      1.0000 0.27420  0.18340  0.58420  Biso   1.000  H
  H34      1.0000 0.72580  0.68340  0.91580  Biso   1.000  H
  H35      1.0000 0.72580  0.81660  0.41580  Biso   1.000  H
  H36      1.0000 0.27420  0.31660  0.08420  Biso   1.000  H
  H37      1.0000 0.12450  0.20910  0.48730  Biso   1.000  H
  H38      1.0000 0.87550  0.70910  0.01270  Biso   1.000  H
  H39      1.0000 0.87550  0.79090  0.51270  Biso   1.000  H
  H40      1.0000 0.12450  0.29090  0.98730  Biso   1.000  H
