data_image0
_cell_length_a       7.1591
_cell_length_b       8.4702
_cell_length_c       9.353
_cell_angle_alpha    101.792
_cell_angle_beta     106.691
_cell_angle_gamma    109.665

_symmetry_space_group_name_H-M    "P 1"
_symmetry_int_tables_number       1

loop_
  _symmetry_equiv_pos_as_xyz
  'x, y, z'

loop_
  _atom_site_label
  _atom_site_occupancy
  _atom_site_fract_x
  _atom_site_fract_y
  _atom_site_fract_z
  _atom_site_thermal_displace_type
  _atom_site_B_iso_or_equiv
  _atom_site_type_symbol
  Cu1      1.0000 0.00000  0.00000  0.00000  Biso   1.000  Cu
  Co1      1.0000 0.00000  0.50000  0.50000  Biso   1.000  Co
  O1       1.0000 0.24870  0.74700  0.66720  Biso   1.000  O
  O2       1.0000 0.75130  0.25300  0.33280  Biso   1.000  O
  O3       1.0000 0.96810  0.66710  0.35960  Biso   1.000  O
  O4       1.0000 0.03190  0.33290  0.64040  Biso   1.000  O
  O5       1.0000 0.06130  0.00770  0.27830  Biso   1.000  O
  O6       1.0000 0.93870  0.99230  0.72170  Biso   1.000  O
  O7       1.0000 0.42900  0.28360  0.54750  Biso   1.000  O
  O8       1.0000 0.57100  0.71640  0.45250  Biso   1.000  O
  O9       1.0000 0.54940  0.13230  0.79980  Biso   1.000  O
  O10      1.0000 0.45060  0.86770  0.20020  Biso   1.000  O
  O11      1.0000 0.20500  0.44670  0.40380  Biso   1.000  O
  O12      1.0000 0.79500  0.55330  0.59620  Biso   1.000  O
  H1       1.0000 0.25600  0.37000  0.44600  Biso   1.000  H
  H2       1.0000 0.74400  0.63000  0.55400  Biso   1.000  H
  H3       1.0000 0.31100  0.55700  0.41500  Biso   1.000  H
  H4       1.0000 0.68900  0.44300  0.58500  Biso   1.000  H
  N1       1.0000 0.00210  0.75740  0.95260  Biso   1.000  N
  N2       1.0000 0.99790  0.24260  0.04740  Biso   1.000  N
  H5       1.0000 0.00610  0.72230  0.85420  Biso   1.000  H
  H6       1.0000 0.99390  0.27770  0.14580  Biso   1.000  H
  H7       1.0000 0.12190  0.76110  0.02650  Biso   1.000  H
  H8       1.0000 0.87810  0.23890  0.97350  Biso   1.000  H
  N3       1.0000 0.68620  0.86630  0.95690  Biso   1.000  N
  N4       1.0000 0.31380  0.13370  0.04310  Biso   1.000  N
  H9       1.0000 0.60440  0.90520  0.89000  Biso   1.000  H
  H10      1.0000 0.39560  0.09480  0.11000  Biso   1.000  H
  H11      1.0000 0.66480  0.88660  0.05010  Biso   1.000  H
  H12      1.0000 0.33520  0.11340  0.94990  Biso   1.000  H
  C1       1.0000 0.25820  0.86380  0.60100  Biso   1.000  C
  C2       1.0000 0.74180  0.13620  0.39900  Biso   1.000  C
  C3       1.0000 0.11010  0.82170  0.43990  Biso   1.000  C
  C4       1.0000 0.88990  0.17830  0.56010  Biso   1.000  C
  C5       1.0000 0.15780  0.98590  0.40120  Biso   1.000  C
  C6       1.0000 0.84220  0.01410  0.59880  Biso   1.000  C
  C7       1.0000 0.34350  0.12600  0.53940  Biso   1.000  C
  C8       1.0000 0.65650  0.87400  0.46060  Biso   1.000  C
  C9       1.0000 0.40610  0.05220  0.66600  Biso   1.000  C
  C10      1.0000 0.59390  0.94780  0.33400  Biso   1.000  C
  C11      1.0000 0.80430  0.62930  0.95740  Biso   1.000  C
  C12      1.0000 0.19570  0.37070  0.04260  Biso   1.000  C
  H13      1.0000 0.82410  0.63760  0.06830  Biso   1.000  H
  H14      1.0000 0.17590  0.36240  0.93170  Biso   1.000  H
  H15      1.0000 0.77340  0.50630  0.89800  Biso   1.000  H
  H16      1.0000 0.22660  0.49370  0.10200  Biso   1.000  H
  C13      1.0000 0.62050  0.67440  0.88370  Biso   1.000  C
  C14      1.0000 0.37950  0.32560  0.11630  Biso   1.000  C
  H17      1.0000 0.49220  0.60460  0.90110  Biso   1.000  H
  H18      1.0000 0.50780  0.39540  0.09890  Biso   1.000  H
  H19      1.0000 0.58330  0.64460  0.76810  Biso   1.000  H
  H20      1.0000 0.41670  0.35540  0.23190  Biso   1.000  H
