data_image0
_cell_length_a       7.1324
_cell_length_b       10.2575
_cell_length_c       15.589
_cell_angle_alpha    80.826
_cell_angle_beta     79.755
_cell_angle_gamma    76.877

_symmetry_space_group_name_H-M    "P 1"
_symmetry_int_tables_number       1

loop_
  _symmetry_equiv_pos_as_xyz
  'x, y, z'

loop_
  _atom_site_label
  _atom_site_occupancy
  _atom_site_fract_x
  _atom_site_fract_y
  _atom_site_fract_z
  _atom_site_thermal_displace_type
  _atom_site_B_iso_or_equiv
  _atom_site_type_symbol
  Cu1      1.0000 0.39582  0.37224  0.97073  Biso   1.000  Cu
  Cu2      1.0000 0.60418  0.62776  0.02927  Biso   1.000  Cu
  Tb1      1.0000 0.35209  0.21997  0.26235  Biso   1.000  Tb
  Tb2      1.0000 0.64791  0.78003  0.73765  Biso   1.000  Tb
  Tb3      1.0000 0.73480  0.80627  0.36653  Biso   1.000  Tb
  Tb4      1.0000 0.26520  0.19373  0.63347  Biso   1.000  Tb
  S1       1.0000 0.63270  0.14356  0.44660  Biso   1.000  S
  S2       1.0000 0.36730  0.85644  0.55340  Biso   1.000  S
  C1       1.0000 0.05310  0.50620  0.29330  Biso   1.000  C
  C2       1.0000 0.94690  0.49380  0.70670  Biso   1.000  C
  C3       1.0000 0.10820  0.52140  0.19480  Biso   1.000  C
  C4       1.0000 0.89180  0.47860  0.80520  Biso   1.000  C
  C5       1.0000 0.04270  0.62220  0.12980  Biso   1.000  C
  C6       1.0000 0.95730  0.37780  0.87020  Biso   1.000  C
  H1       1.0000 0.95090  0.70180  0.13600  Biso   1.000  H
  H2       1.0000 0.04910  0.29820  0.86400  Biso   1.000  H
  C7       1.0000 0.14850  0.57450  0.05340  Biso   1.000  C
  C8       1.0000 0.85150  0.42550  0.94660  Biso   1.000  C
  C9       1.0000 0.15080  0.62180  0.95900  Biso   1.000  C
  C10      1.0000 0.84920  0.37820  0.04100  Biso   1.000  C
  C11      1.0000 0.64750  0.17100  0.88360  Biso   1.000  C
  C12      1.0000 0.35250  0.82900  0.11640  Biso   1.000  C
  C13      1.0000 0.64780  0.12480  0.97880  Biso   1.000  C
  C14      1.0000 0.35220  0.87520  0.02120  Biso   1.000  C
  C15      1.0000 0.73810  0.01320  0.03030  Biso   1.000  C
  C16      1.0000 0.26190  0.98680  0.96970  Biso   1.000  C
  H3       1.0000 0.83050  0.93910  0.01240  Biso   1.000  H
  H4       1.0000 0.16950  0.06090  0.98760  Biso   1.000  H
  C17      1.0000 0.65620  0.03930  0.11570  Biso   1.000  C
  C18      1.0000 0.34380  0.96070  0.88430  Biso   1.000  C
  C19      1.0000 0.68070  0.96220  0.20170  Biso   1.000  C
  C20      1.0000 0.31930  0.03780  0.79830  Biso   1.000  C
  N1       1.0000 0.24150  0.42110  0.15990  Biso   1.000  N
  N2       1.0000 0.75850  0.57890  0.84010  Biso   1.000  N
  N3       1.0000 0.26470  0.45610  0.07350  Biso   1.000  N
  N4       1.0000 0.73530  0.54390  0.92650  Biso   1.000  N
  N5       1.0000 0.52240  0.20880  0.03150  Biso   1.000  N
  N6       1.0000 0.47760  0.79120  0.96850  Biso   1.000  N
  N7       1.0000 0.52880  0.15830  0.11530  Biso   1.000  N
  N8       1.0000 0.47120  0.84170  0.88470  Biso   1.000  N
  O1       1.0000 0.93670  0.59880  0.32930  Biso   1.000  O
  O2       1.0000 0.06330  0.40120  0.67070  Biso   1.000  O
  O3       1.0000 0.13300  0.39440  0.33280  Biso   1.000  O
  O4       1.0000 0.86700  0.60560  0.66720  Biso   1.000  O
  O5       1.0000 0.04460  0.72890  0.93450  Biso   1.000  O
  O6       1.0000 0.95540  0.27110  0.06550  Biso   1.000  O
  O7       1.0000 0.26840  0.54170  0.90800  Biso   1.000  O
  O8       1.0000 0.73160  0.45830  0.09200  Biso   1.000  O
  O9       1.0000 0.52980  0.28580  0.86560  Biso   1.000  O
  O10      1.0000 0.47020  0.71420  0.13440  Biso   1.000  O
  O11      1.0000 0.75320  0.10660  0.82730  Biso   1.000  O
  O12      1.0000 0.24680  0.89340  0.17270  Biso   1.000  O
  O13      1.0000 0.80230  0.85520  0.21130  Biso   1.000  O
  O14      1.0000 0.19770  0.14480  0.78870  Biso   1.000  O
  O15      1.0000 0.57140  0.00830  0.26970  Biso   1.000  O
  O16      1.0000 0.42860  0.99170  0.73030  Biso   1.000  O
  O17      1.0000 0.60740  0.33430  0.24910  Biso   1.000  O
  O18      1.0000 0.39260  0.66570  0.75090  Biso   1.000  O
  H5       1.0000 0.72260  0.34340  0.24980  Biso   1.000  H
  H6       1.0000 0.27740  0.65660  0.75020  Biso   1.000  H
  H7       1.0000 0.55700  0.39740  0.21230  Biso   1.000  H
  H8       1.0000 0.44300  0.60260  0.78770  Biso   1.000  H
  O19      1.0000 0.10890  0.15380  0.20420  Biso   1.000  O
  O20      1.0000 0.89110  0.84620  0.79580  Biso   1.000  O
  H9       1.0000 0.06780  0.19560  0.15730  Biso   1.000  H
  H10      1.0000 0.93220  0.80440  0.84270  Biso   1.000  H
  H11      1.0000 0.13720  0.06990  0.19920  Biso   1.000  H
  H12      1.0000 0.86280  0.93010  0.80080  Biso   1.000  H
  O21      1.0000 0.15270  0.08970  0.37680  Biso   1.000  O
  O22      1.0000 0.84730  0.91030  0.62320  Biso   1.000  O
  H13      1.0000 0.03480  0.12980  0.38970  Biso   1.000  H
  H14      1.0000 0.96520  0.87020  0.61030  Biso   1.000  H
  H15      1.0000 0.20130  0.06660  0.42430  Biso   1.000  H
  H16      1.0000 0.79870  0.93340  0.57570  Biso   1.000  H
  O23      1.0000 0.46480  0.18280  0.39900  Biso   1.000  O
  O24      1.0000 0.53520  0.81720  0.60100  Biso   1.000  O
  O25      1.0000 0.56340  0.16590  0.53940  Biso   1.000  O
  O26      1.0000 0.43660  0.83410  0.46060  Biso   1.000  O
  O27      1.0000 0.77640  0.22640  0.40750  Biso   1.000  O
  O28      1.0000 0.22360  0.77360  0.59250  Biso   1.000  O
  O29      1.0000 0.72470  0.99890  0.44240  Biso   1.000  O
  O30      1.0000 0.27530  0.00110  0.55760  Biso   1.000  O
  O31      1.0000 0.51980  0.70170  0.31270  Biso   1.000  O
  O32      1.0000 0.48020  0.29830  0.68730  Biso   1.000  O
  H17      1.0000 0.52570  0.69570  0.25840  Biso   1.000  H
  H18      1.0000 0.47430  0.30430  0.74160  Biso   1.000  H
  H19      1.0000 0.54510  0.62200  0.33920  Biso   1.000  H
  H20      1.0000 0.45490  0.37800  0.66080  Biso   1.000  H
  O33      1.0000 0.05230  0.85460  0.33610  Biso   1.000  O
  O34      1.0000 0.94770  0.14540  0.66390  Biso   1.000  O
  H21      1.0000 0.14350  0.83480  0.29390  Biso   1.000  H
  H22      1.0000 0.85650  0.16520  0.70610  Biso   1.000  H
  H23      1.0000 0.09770  0.88880  0.37200  Biso   1.000  H
  H24      1.0000 0.90230  0.11120  0.62800  Biso   1.000  H
  O35      1.0000 0.88100  0.69400  0.48840  Biso   1.000  O
  O36      1.0000 0.11900  0.30600  0.51160  Biso   1.000  O
  H25      1.0000 0.89860  0.71470  0.53660  Biso   1.000  H
  H26      1.0000 0.10140  0.28530  0.46340  Biso   1.000  H
  H27      1.0000 0.84370  0.61930  0.49960  Biso   1.000  H
  H28      1.0000 0.15630  0.38070  0.50040  Biso   1.000  H
  O37      1.0000 0.73700  0.42580  0.52510  Biso   1.000  O
  O38      1.0000 0.26300  0.57420  0.47490  Biso   1.000  O
  H29      1.0000 0.61980  0.43990  0.55010  Biso   1.000  H
  H30      1.0000 0.38020  0.56010  0.44990  Biso   1.000  H
  H31      1.0000 0.74060  0.39530  0.47710  Biso   1.000  H
  H32      1.0000 0.25940  0.60470  0.52290  Biso   1.000  H
