data_image0
_cell_length_a       12.2775
_cell_length_b       6.8941
_cell_length_c       23.769
_cell_angle_alpha    90
_cell_angle_beta     95.294
_cell_angle_gamma    90

_symmetry_space_group_name_H-M    "P 1"
_symmetry_int_tables_number       1

loop_
  _symmetry_equiv_pos_as_xyz
  'x, y, z'

loop_
  _atom_site_label
  _atom_site_occupancy
  _atom_site_fract_x
  _atom_site_fract_y
  _atom_site_fract_z
  _atom_site_thermal_displace_type
  _atom_site_B_iso_or_equiv
  _atom_site_type_symbol
  Cu1      1.0000 0.80275  0.63870  0.81245  Biso   1.000  Cu
  Cu2      1.0000 0.19725  0.13870  0.68755  Biso   1.000  Cu
  Cu3      1.0000 0.19725  0.36130  0.18755  Biso   1.000  Cu
  Cu4      1.0000 0.80275  0.86130  0.31245  Biso   1.000  Cu
  Sm1      1.0000 0.61985  0.66119  0.96680  Biso   1.000  Sm
  Sm2      1.0000 0.38015  0.16119  0.53320  Biso   1.000  Sm
  Sm3      1.0000 0.38015  0.33881  0.03320  Biso   1.000  Sm
  Sm4      1.0000 0.61985  0.83881  0.46680  Biso   1.000  Sm
  Sm5      1.0000 0.79072  0.90655  0.13469  Biso   1.000  Sm
  Sm6      1.0000 0.20928  0.40655  0.36531  Biso   1.000  Sm
  Sm7      1.0000 0.20928  0.09345  0.86531  Biso   1.000  Sm
  Sm8      1.0000 0.79072  0.59345  0.63469  Biso   1.000  Sm
  C1       1.0000 0.45650  0.31350  0.89850  Biso   1.000  C
  C2       1.0000 0.54350  0.81350  0.60150  Biso   1.000  C
  C3       1.0000 0.54350  0.68650  0.10150  Biso   1.000  C
  C4       1.0000 0.45650  0.18650  0.39850  Biso   1.000  C
  C5       1.0000 0.53010  0.36900  0.85580  Biso   1.000  C
  C6       1.0000 0.46990  0.86900  0.64420  Biso   1.000  C
  C7       1.0000 0.46990  0.63100  0.14420  Biso   1.000  C
  C8       1.0000 0.53010  0.13100  0.35580  Biso   1.000  C
  C9       1.0000 0.53180  0.31550  0.79960  Biso   1.000  C
  C10      1.0000 0.46820  0.81550  0.70040  Biso   1.000  C
  C11      1.0000 0.46820  0.68450  0.20040  Biso   1.000  C
  C12      1.0000 0.53180  0.18450  0.29960  Biso   1.000  C
  H1       1.0000 0.48390  0.23280  0.77860  Biso   1.000  H
  H2       1.0000 0.51610  0.73280  0.72140  Biso   1.000  H
  H3       1.0000 0.51610  0.76720  0.22140  Biso   1.000  H
  H4       1.0000 0.48390  0.26720  0.27860  Biso   1.000  H
  C13      1.0000 0.61980  0.41180  0.78210  Biso   1.000  C
  C14      1.0000 0.38020  0.91180  0.71790  Biso   1.000  C
  C15      1.0000 0.38020  0.58820  0.21790  Biso   1.000  C
  C16      1.0000 0.61980  0.08820  0.28210  Biso   1.000  C
  C17      1.0000 0.67430  0.43040  0.72970  Biso   1.000  C
  C18      1.0000 0.32570  0.93040  0.77030  Biso   1.000  C
  C19      1.0000 0.32570  0.56960  0.27030  Biso   1.000  C
  C20      1.0000 0.67430  0.06960  0.22970  Biso   1.000  C
  C21      1.0000 0.01840  0.73740  0.84330  Biso   1.000  C
  C22      1.0000 0.98160  0.23740  0.65670  Biso   1.000  C
  C23      1.0000 0.98160  0.26260  0.15670  Biso   1.000  C
  C24      1.0000 0.01840  0.76260  0.34330  Biso   1.000  C
  C25      1.0000 0.96330  0.72840  0.89550  Biso   1.000  C
  C26      1.0000 0.03670  0.22840  0.60450  Biso   1.000  C
  C27      1.0000 0.03670  0.27160  0.10450  Biso   1.000  C
  C28      1.0000 0.96330  0.77160  0.39550  Biso   1.000  C
  C29      1.0000 0.99410  0.75410  0.95380  Biso   1.000  C
  C30      1.0000 0.00590  0.25410  0.54620  Biso   1.000  C
  C31      1.0000 0.00590  0.24590  0.04620  Biso   1.000  C
  C32      1.0000 0.99410  0.74590  0.45380  Biso   1.000  C
  H5       1.0000 0.06260  0.78260  0.97190  Biso   1.000  H
  H6       1.0000 0.93740  0.28260  0.52810  Biso   1.000  H
  H7       1.0000 0.93740  0.21740  0.02810  Biso   1.000  H
  H8       1.0000 0.06260  0.71740  0.47190  Biso   1.000  H
  C33      1.0000 0.89690  0.72600  0.97680  Biso   1.000  C
  C34      1.0000 0.10310  0.22600  0.52320  Biso   1.000  C
  C35      1.0000 0.10310  0.27400  0.02320  Biso   1.000  C
  C36      1.0000 0.89690  0.77400  0.47680  Biso   1.000  C
  C37      1.0000 0.86790  0.74230  0.03570  Biso   1.000  C
  C38      1.0000 0.13210  0.24230  0.46430  Biso   1.000  C
  C39      1.0000 0.13210  0.25770  0.96430  Biso   1.000  C
  C40      1.0000 0.86790  0.75770  0.53570  Biso   1.000  C
  N1       1.0000 0.61200  0.49170  0.87130  Biso   1.000  N
  N2       1.0000 0.38800  0.99170  0.62870  Biso   1.000  N
  N3       1.0000 0.38800  0.50830  0.12870  Biso   1.000  N
  N4       1.0000 0.61200  0.00830  0.37130  Biso   1.000  N
  N5       1.0000 0.66710  0.51570  0.82560  Biso   1.000  N
  N6       1.0000 0.33290  0.01570  0.67440  Biso   1.000  N
  N7       1.0000 0.33290  0.48430  0.17440  Biso   1.000  N
  N8       1.0000 0.66710  0.98430  0.32560  Biso   1.000  N
  N9       1.0000 0.85810  0.68690  0.88860  Biso   1.000  N
  N10      1.0000 0.14190  0.18690  0.61140  Biso   1.000  N
  N11      1.0000 0.14190  0.31310  0.11140  Biso   1.000  N
  N12      1.0000 0.85810  0.81310  0.38860  Biso   1.000  N
  N13      1.0000 0.81430  0.68350  0.93830  Biso   1.000  N
  N14      1.0000 0.18570  0.18350  0.56170  Biso   1.000  N
  N15      1.0000 0.18570  0.31650  0.06170  Biso   1.000  N
  N16      1.0000 0.81430  0.81650  0.43830  Biso   1.000  N
  O1       1.0000 0.39270  0.17510  0.88830  Biso   1.000  O
  O2       1.0000 0.60730  0.67510  0.61170  Biso   1.000  O
  O3       1.0000 0.60730  0.82490  0.11170  Biso   1.000  O
  O4       1.0000 0.39270  0.32490  0.38830  Biso   1.000  O
  O5       1.0000 0.46490  0.41100  0.94470  Biso   1.000  O
  O6       1.0000 0.53510  0.91100  0.55530  Biso   1.000  O
  O7       1.0000 0.53510  0.58900  0.05530  Biso   1.000  O
  O8       1.0000 0.46490  0.08900  0.44470  Biso   1.000  O
  O9       1.0000 0.64850  0.34910  0.68520  Biso   1.000  O
  O10      1.0000 0.35150  0.84910  0.81480  Biso   1.000  O
  O11      1.0000 0.35150  0.65090  0.31480  Biso   1.000  O
  O12      1.0000 0.64850  0.15090  0.18520  Biso   1.000  O
  O13      1.0000 0.75880  0.55070  0.73410  Biso   1.000  O
  O14      1.0000 0.24120  0.05070  0.76590  Biso   1.000  O
  O15      1.0000 0.24120  0.44930  0.26590  Biso   1.000  O
  O16      1.0000 0.75880  0.94930  0.23410  Biso   1.000  O
  O17      1.0000 0.95740  0.68900  0.80010  Biso   1.000  O
  O18      1.0000 0.04260  0.18900  0.69990  Biso   1.000  O
  O19      1.0000 0.04260  0.31100  0.19990  Biso   1.000  O
  O20      1.0000 0.95740  0.81100  0.30010  Biso   1.000  O
  O21      1.0000 0.11290  0.79760  0.84150  Biso   1.000  O
  O22      1.0000 0.88710  0.29760  0.65850  Biso   1.000  O
  O23      1.0000 0.88710  0.20240  0.15850  Biso   1.000  O
  O24      1.0000 0.11290  0.70240  0.34150  Biso   1.000  O
  O25      1.0000 0.93380  0.80470  0.07420  Biso   1.000  O
  O26      1.0000 0.06620  0.30470  0.42580  Biso   1.000  O
  O27      1.0000 0.06620  0.19530  0.92580  Biso   1.000  O
  O28      1.0000 0.93380  0.69530  0.57420  Biso   1.000  O
  O29      1.0000 0.77020  0.70440  0.04510  Biso   1.000  O
  O30      1.0000 0.22980  0.20440  0.45490  Biso   1.000  O
  O31      1.0000 0.22980  0.29560  0.95490  Biso   1.000  O
  O32      1.0000 0.77020  0.79560  0.54510  Biso   1.000  O
  O33      1.0000 0.74280  0.96010  0.79420  Biso   1.000  O
  O34      1.0000 0.25720  0.46010  0.70580  Biso   1.000  O
  O35      1.0000 0.25720  0.03990  0.20580  Biso   1.000  O
  O36      1.0000 0.74280  0.53990  0.29420  Biso   1.000  O
  H9       1.0000 0.72170  0.84210  0.79380  Biso   1.000  H
  H10      1.0000 0.27830  0.34210  0.70620  Biso   1.000  H
  H11      1.0000 0.27830  0.15790  0.20620  Biso   1.000  H
  H12      1.0000 0.72170  0.65790  0.29380  Biso   1.000  H
  H13      1.0000 0.72300  0.01270  0.82410  Biso   1.000  H
  H14      1.0000 0.27700  0.51270  0.67590  Biso   1.000  H
  H15      1.0000 0.27700  0.98730  0.17590  Biso   1.000  H
  H16      1.0000 0.72300  0.48730  0.32410  Biso   1.000  H
  O37      1.0000 0.57490  0.88120  0.87300  Biso   1.000  O
  O38      1.0000 0.42510  0.38120  0.62700  Biso   1.000  O
  O39      1.0000 0.42510  0.11880  0.12700  Biso   1.000  O
  O40      1.0000 0.57490  0.61880  0.37300  Biso   1.000  O
  H17      1.0000 0.54560  0.78390  0.85550  Biso   1.000  H
  H18      1.0000 0.45440  0.28390  0.64450  Biso   1.000  H
  H19      1.0000 0.45440  0.21610  0.14450  Biso   1.000  H
  H20      1.0000 0.54560  0.71610  0.35550  Biso   1.000  H
  H21      1.0000 0.52370  0.95240  0.88350  Biso   1.000  H
  H22      1.0000 0.47630  0.45240  0.61650  Biso   1.000  H
  H23      1.0000 0.47630  0.04760  0.11650  Biso   1.000  H
  H24      1.0000 0.52370  0.54760  0.38350  Biso   1.000  H
  O41      1.0000 0.69170  0.34220  0.98540  Biso   1.000  O
  O42      1.0000 0.30830  0.84220  0.51460  Biso   1.000  O
  O43      1.0000 0.30830  0.65780  0.01460  Biso   1.000  O
  O44      1.0000 0.69170  0.15780  0.48540  Biso   1.000  O
  O45      1.0000 0.74530  0.12890  0.06170  Biso   1.000  O
  O46      1.0000 0.25470  0.62890  0.43830  Biso   1.000  O
  O47      1.0000 0.25470  0.87110  0.93830  Biso   1.000  O
  O48      1.0000 0.74530  0.37110  0.56170  Biso   1.000  O
  O49      1.0000 0.65850  0.00270  0.97540  Biso   1.000  O
  O50      1.0000 0.34150  0.50270  0.52460  Biso   1.000  O
  O51      1.0000 0.34150  0.99730  0.02460  Biso   1.000  O
  O52      1.0000 0.65850  0.49730  0.47540  Biso   1.000  O
  O53      1.0000 0.55540  0.18870  0.03720  Biso   1.000  O
  O54      1.0000 0.44460  0.68870  0.46280  Biso   1.000  O
  O55      1.0000 0.44460  0.81130  0.96280  Biso   1.000  O
  O56      1.0000 0.55540  0.31130  0.53720  Biso   1.000  O
  O57      1.0000 0.96560  0.81670  0.18850  Biso   1.000  O
  O58      1.0000 0.03440  0.31670  0.31150  Biso   1.000  O
  O59      1.0000 0.03440  0.18330  0.81150  Biso   1.000  O
  O60      1.0000 0.96560  0.68330  0.68850  Biso   1.000  O
  H25      1.0000 0.03410  0.82500  0.18580  Biso   1.000  H
  H26      1.0000 0.96590  0.32500  0.31420  Biso   1.000  H
  H27      1.0000 0.96590  0.17500  0.81420  Biso   1.000  H
  H28      1.0000 0.03410  0.67500  0.68580  Biso   1.000  H
  H29      1.0000 0.95670  0.76670  0.22050  Biso   1.000  H
  H30      1.0000 0.04330  0.26670  0.27950  Biso   1.000  H
  H31      1.0000 0.04330  0.23330  0.77950  Biso   1.000  H
  H32      1.0000 0.95670  0.73330  0.72050  Biso   1.000  H
  O61      1.0000 0.76430  0.57330  0.17190  Biso   1.000  O
  O62      1.0000 0.23570  0.07330  0.32810  Biso   1.000  O
  O63      1.0000 0.23570  0.42670  0.82810  Biso   1.000  O
  O64      1.0000 0.76430  0.92670  0.67190  Biso   1.000  O
  H33      1.0000 0.78910  0.46680  0.16000  Biso   1.000  H
  H34      1.0000 0.21090  0.96680  0.34000  Biso   1.000  H
  H35      1.0000 0.21090  0.53320  0.84000  Biso   1.000  H
  H36      1.0000 0.78910  0.03320  0.66000  Biso   1.000  H
  H37      1.0000 0.71860  0.54560  0.19560  Biso   1.000  H
  H38      1.0000 0.28140  0.04560  0.30440  Biso   1.000  H
  H39      1.0000 0.28140  0.45440  0.80440  Biso   1.000  H
  H40      1.0000 0.71860  0.95440  0.69560  Biso   1.000  H
  O65      1.0000 0.83870  0.19830  0.88220  Biso   1.000  O
  O66      1.0000 0.16130  0.69830  0.61780  Biso   1.000  O
  O67      1.0000 0.16130  0.80170  0.11780  Biso   1.000  O
  O68      1.0000 0.83870  0.30170  0.38220  Biso   1.000  O
  H41      1.0000 0.80080  0.23130  0.90890  Biso   1.000  H
  H42      1.0000 0.19920  0.73130  0.59110  Biso   1.000  H
  H43      1.0000 0.19920  0.76870  0.09110  Biso   1.000  H
  H44      1.0000 0.80080  0.26870  0.40890  Biso   1.000  H
  H45      1.0000 0.90570  0.21530  0.89360  Biso   1.000  H
  H46      1.0000 0.09430  0.71530  0.60640  Biso   1.000  H
  H47      1.0000 0.09430  0.78470  0.10640  Biso   1.000  H
  H48      1.0000 0.90570  0.28470  0.39360  Biso   1.000  H
  S1       1.0000 0.66130  0.16590  0.01544  Biso   1.000  S
  S2       1.0000 0.33870  0.66590  0.48456  Biso   1.000  S
  S3       1.0000 0.33870  0.83410  0.98456  Biso   1.000  S
  S4       1.0000 0.66130  0.33410  0.51544  Biso   1.000  S
