data_image0
_cell_length_a       7.2193
_cell_length_b       8.464
_cell_length_c       9.3642
_cell_angle_alpha    101.239
_cell_angle_beta     106.892
_cell_angle_gamma    110.011

_symmetry_space_group_name_H-M    "P 1"
_symmetry_int_tables_number       1

loop_
  _symmetry_equiv_pos_as_xyz
  'x, y, z'

loop_
  _atom_site_label
  _atom_site_occupancy
  _atom_site_fract_x
  _atom_site_fract_y
  _atom_site_fract_z
  _atom_site_thermal_displace_type
  _atom_site_B_iso_or_equiv
  _atom_site_type_symbol
  Cu1      1.0000 0.00000  0.00000  0.00000  Biso   1.000  Cu
  Zn1      1.0000 0.00000  0.50000  0.50000  Biso   1.000  Zn
  O1       1.0000 0.25320  0.74870  0.67090  Biso   1.000  O
  O2       1.0000 0.74680  0.25130  0.32910  Biso   1.000  O
  O3       1.0000 0.97180  0.66890  0.36360  Biso   1.000  O
  O4       1.0000 0.02820  0.33110  0.63640  Biso   1.000  O
  O5       1.0000 0.06480  0.00770  0.28150  Biso   1.000  O
  O6       1.0000 0.93520  0.99230  0.71850  Biso   1.000  O
  O7       1.0000 0.43000  0.28410  0.54810  Biso   1.000  O
  O8       1.0000 0.57000  0.71590  0.45190  Biso   1.000  O
  O9       1.0000 0.55040  0.13290  0.79970  Biso   1.000  O
  O10      1.0000 0.44960  0.86710  0.20030  Biso   1.000  O
  O11      1.0000 0.20220  0.44620  0.40290  Biso   1.000  O
  O12      1.0000 0.79780  0.55380  0.59710  Biso   1.000  O
  H1       1.0000 0.25700  0.37900  0.45800  Biso   1.000  H
  H2       1.0000 0.74300  0.62100  0.54200  Biso   1.000  H
  H3       1.0000 0.31100  0.55300  0.41000  Biso   1.000  H
  H4       1.0000 0.68900  0.44700  0.59000  Biso   1.000  H
  N1       1.0000 0.00300  0.75900  0.95350  Biso   1.000  N
  N2       1.0000 0.99700  0.24100  0.04650  Biso   1.000  N
  H5       1.0000 0.00550  0.72510  0.85710  Biso   1.000  H
  H6       1.0000 0.99450  0.27490  0.14290  Biso   1.000  H
  H7       1.0000 0.12040  0.76310  0.02520  Biso   1.000  H
  H8       1.0000 0.87960  0.23690  0.97480  Biso   1.000  H
  N3       1.0000 0.68960  0.86510  0.95800  Biso   1.000  N
  N4       1.0000 0.31040  0.13490  0.04200  Biso   1.000  N
  H9       1.0000 0.60930  0.90260  0.89240  Biso   1.000  H
  H10      1.0000 0.39070  0.09740  0.10760  Biso   1.000  H
  H11      1.0000 0.66930  0.88430  0.04910  Biso   1.000  H
  H12      1.0000 0.33070  0.11570  0.95090  Biso   1.000  H
  C1       1.0000 0.26120  0.86440  0.60400  Biso   1.000  C
  C2       1.0000 0.73880  0.13560  0.39600  Biso   1.000  C
  C3       1.0000 0.11340  0.82290  0.44440  Biso   1.000  C
  C4       1.0000 0.88660  0.17710  0.55560  Biso   1.000  C
  C5       1.0000 0.16080  0.98670  0.40410  Biso   1.000  C
  C6       1.0000 0.83920  0.01330  0.59590  Biso   1.000  C
  C7       1.0000 0.34490  0.12690  0.54110  Biso   1.000  C
  C8       1.0000 0.65510  0.87310  0.45890  Biso   1.000  C
  C9       1.0000 0.40730  0.05280  0.66690  Biso   1.000  C
  C10      1.0000 0.59270  0.94720  0.33310  Biso   1.000  C
  C11      1.0000 0.80870  0.63100  0.95990  Biso   1.000  C
  C12      1.0000 0.19130  0.36900  0.04010  Biso   1.000  C
  H13      1.0000 0.82910  0.63960  0.06870  Biso   1.000  H
  H14      1.0000 0.17090  0.36040  0.93130  Biso   1.000  H
  H15      1.0000 0.77860  0.51050  0.90270  Biso   1.000  H
  H16      1.0000 0.22140  0.48950  0.09730  Biso   1.000  H
  C13      1.0000 0.62620  0.67460  0.88620  Biso   1.000  C
  C14      1.0000 0.37380  0.32540  0.11380  Biso   1.000  C
  H17      1.0000 0.50150  0.60490  0.90330  Biso   1.000  H
  H18      1.0000 0.49850  0.39510  0.09670  Biso   1.000  H
  H19      1.0000 0.58970  0.64580  0.77330  Biso   1.000  H
  H20      1.0000 0.41030  0.35420  0.22670  Biso   1.000  H
