data_image0
_cell_length_a       12.2698
_cell_length_b       6.8833
_cell_length_c       23.757
_cell_angle_alpha    90
_cell_angle_beta     95.216
_cell_angle_gamma    90

_symmetry_space_group_name_H-M    "P 1"
_symmetry_int_tables_number       1

loop_
  _symmetry_equiv_pos_as_xyz
  'x, y, z'

loop_
  _atom_site_label
  _atom_site_occupancy
  _atom_site_fract_x
  _atom_site_fract_y
  _atom_site_fract_z
  _atom_site_thermal_displace_type
  _atom_site_B_iso_or_equiv
  _atom_site_type_symbol
  Cu1      1.0000 0.80218  0.64185  0.81207  Biso   1.000  Cu
  Cu2      1.0000 0.19782  0.14185  0.68793  Biso   1.000  Cu
  Cu3      1.0000 0.19782  0.35815  0.18793  Biso   1.000  Cu
  Cu4      1.0000 0.80218  0.85815  0.31207  Biso   1.000  Cu
  Eu1      1.0000 0.61992  0.66050  0.96691  Biso   1.000  Eu
  Eu2      1.0000 0.38008  0.16050  0.53309  Biso   1.000  Eu
  Eu3      1.0000 0.38008  0.33950  0.03309  Biso   1.000  Eu
  Eu4      1.0000 0.61992  0.83950  0.46691  Biso   1.000  Eu
  Eu5      1.0000 0.79039  0.90482  0.13463  Biso   1.000  Eu
  Eu6      1.0000 0.20961  0.40482  0.36537  Biso   1.000  Eu
  Eu7      1.0000 0.20961  0.09518  0.86537  Biso   1.000  Eu
  Eu8      1.0000 0.79039  0.59518  0.63463  Biso   1.000  Eu
  C1       1.0000 0.45620  0.31420  0.89930  Biso   1.000  C
  C2       1.0000 0.54380  0.81420  0.60070  Biso   1.000  C
  C3       1.0000 0.54380  0.68580  0.10070  Biso   1.000  C
  C4       1.0000 0.45620  0.18580  0.39930  Biso   1.000  C
  C5       1.0000 0.52920  0.37040  0.85570  Biso   1.000  C
  C6       1.0000 0.47080  0.87040  0.64430  Biso   1.000  C
  C7       1.0000 0.47080  0.62960  0.14430  Biso   1.000  C
  C8       1.0000 0.52920  0.12960  0.35570  Biso   1.000  C
  C9       1.0000 0.53160  0.31640  0.79950  Biso   1.000  C
  C10      1.0000 0.46840  0.81640  0.70050  Biso   1.000  C
  C11      1.0000 0.46840  0.68360  0.20050  Biso   1.000  C
  C12      1.0000 0.53160  0.18360  0.29950  Biso   1.000  C
  H1       1.0000 0.48440  0.23270  0.77850  Biso   1.000  H
  H2       1.0000 0.51560  0.73270  0.72150  Biso   1.000  H
  H3       1.0000 0.51560  0.76730  0.22150  Biso   1.000  H
  H4       1.0000 0.48440  0.26730  0.27850  Biso   1.000  H
  C13      1.0000 0.61970  0.41550  0.78240  Biso   1.000  C
  C14      1.0000 0.38030  0.91550  0.71760  Biso   1.000  C
  C15      1.0000 0.38030  0.58450  0.21760  Biso   1.000  C
  C16      1.0000 0.61970  0.08450  0.28240  Biso   1.000  C
  C17      1.0000 0.67500  0.43310  0.72940  Biso   1.000  C
  C18      1.0000 0.32500  0.93310  0.77060  Biso   1.000  C
  C19      1.0000 0.32500  0.56690  0.27060  Biso   1.000  C
  C20      1.0000 0.67500  0.06690  0.22940  Biso   1.000  C
  C21      1.0000 0.01870  0.74210  0.84360  Biso   1.000  C
  C22      1.0000 0.98130  0.24210  0.65640  Biso   1.000  C
  C23      1.0000 0.98130  0.25790  0.15640  Biso   1.000  C
  C24      1.0000 0.01870  0.75790  0.34360  Biso   1.000  C
  C25      1.0000 0.96390  0.73060  0.89600  Biso   1.000  C
  C26      1.0000 0.03610  0.23060  0.60400  Biso   1.000  C
  C27      1.0000 0.03610  0.26940  0.10400  Biso   1.000  C
  C28      1.0000 0.96390  0.76940  0.39600  Biso   1.000  C
  C29      1.0000 0.99390  0.75600  0.95340  Biso   1.000  C
  C30      1.0000 0.00610  0.25600  0.54660  Biso   1.000  C
  C31      1.0000 0.00610  0.24400  0.04660  Biso   1.000  C
  C32      1.0000 0.99390  0.74400  0.45340  Biso   1.000  C
  H5       1.0000 0.06260  0.78550  0.97110  Biso   1.000  H
  H6       1.0000 0.93740  0.28550  0.52890  Biso   1.000  H
  H7       1.0000 0.93740  0.21450  0.02890  Biso   1.000  H
  H8       1.0000 0.06260  0.71450  0.47110  Biso   1.000  H
  C33      1.0000 0.89710  0.72700  0.97760  Biso   1.000  C
  C34      1.0000 0.10290  0.22700  0.52240  Biso   1.000  C
  C35      1.0000 0.10290  0.27300  0.02240  Biso   1.000  C
  C36      1.0000 0.89710  0.77300  0.47760  Biso   1.000  C
  C37      1.0000 0.86680  0.74380  0.03590  Biso   1.000  C
  C38      1.0000 0.13320  0.24380  0.46410  Biso   1.000  C
  C39      1.0000 0.13320  0.25620  0.96410  Biso   1.000  C
  C40      1.0000 0.86680  0.75620  0.53590  Biso   1.000  C
  N1       1.0000 0.61230  0.49140  0.87100  Biso   1.000  N
  N2       1.0000 0.38770  0.99140  0.62900  Biso   1.000  N
  N3       1.0000 0.38770  0.50860  0.12900  Biso   1.000  N
  N4       1.0000 0.61230  0.00860  0.37100  Biso   1.000  N
  N5       1.0000 0.66640  0.51790  0.82540  Biso   1.000  N
  N6       1.0000 0.33360  0.01790  0.67460  Biso   1.000  N
  N7       1.0000 0.33360  0.48210  0.17460  Biso   1.000  N
  N8       1.0000 0.66640  0.98210  0.32540  Biso   1.000  N
  N9       1.0000 0.85630  0.69000  0.88850  Biso   1.000  N
  N10      1.0000 0.14370  0.19000  0.61150  Biso   1.000  N
  N11      1.0000 0.14370  0.31000  0.11150  Biso   1.000  N
  N12      1.0000 0.85630  0.81000  0.38850  Biso   1.000  N
  N13      1.0000 0.81300  0.68410  0.93780  Biso   1.000  N
  N14      1.0000 0.18700  0.18410  0.56220  Biso   1.000  N
  N15      1.0000 0.18700  0.31590  0.06220  Biso   1.000  N
  N16      1.0000 0.81300  0.81590  0.43780  Biso   1.000  N
  O1       1.0000 0.39240  0.17550  0.88790  Biso   1.000  O
  O2       1.0000 0.60760  0.67550  0.61210  Biso   1.000  O
  O3       1.0000 0.60760  0.82450  0.11210  Biso   1.000  O
  O4       1.0000 0.39240  0.32450  0.38790  Biso   1.000  O
  O5       1.0000 0.46560  0.40920  0.94516  Biso   1.000  O
  O6       1.0000 0.53440  0.90920  0.55484  Biso   1.000  O
  O7       1.0000 0.53440  0.59080  0.05484  Biso   1.000  O
  O8       1.0000 0.46560  0.09080  0.44516  Biso   1.000  O
  O9       1.0000 0.64800  0.34990  0.68500  Biso   1.000  O
  O10      1.0000 0.35200  0.84990  0.81500  Biso   1.000  O
  O11      1.0000 0.35200  0.65010  0.31500  Biso   1.000  O
  O12      1.0000 0.64800  0.15010  0.18500  Biso   1.000  O
  O13      1.0000 0.75770  0.55430  0.73370  Biso   1.000  O
  O14      1.0000 0.24230  0.05430  0.76630  Biso   1.000  O
  O15      1.0000 0.24230  0.44570  0.26630  Biso   1.000  O
  O16      1.0000 0.75770  0.94570  0.23370  Biso   1.000  O
  O17      1.0000 0.95710  0.69130  0.79920  Biso   1.000  O
  O18      1.0000 0.04290  0.19130  0.70080  Biso   1.000  O
  O19      1.0000 0.04290  0.30870  0.20080  Biso   1.000  O
  O20      1.0000 0.95710  0.80870  0.29920  Biso   1.000  O
  O21      1.0000 0.11250  0.80220  0.84170  Biso   1.000  O
  O22      1.0000 0.88750  0.30220  0.65830  Biso   1.000  O
  O23      1.0000 0.88750  0.19780  0.15830  Biso   1.000  O
  O24      1.0000 0.11250  0.69780  0.34170  Biso   1.000  O
  O25      1.0000 0.93360  0.80540  0.07440  Biso   1.000  O
  O26      1.0000 0.06640  0.30540  0.42560  Biso   1.000  O
  O27      1.0000 0.06640  0.19460  0.92560  Biso   1.000  O
  O28      1.0000 0.93360  0.69460  0.57440  Biso   1.000  O
  O29      1.0000 0.76920  0.70280  0.04510  Biso   1.000  O
  O30      1.0000 0.23080  0.20280  0.45490  Biso   1.000  O
  O31      1.0000 0.23080  0.29720  0.95490  Biso   1.000  O
  O32      1.0000 0.76920  0.79720  0.54510  Biso   1.000  O
  O33      1.0000 0.74260  0.96560  0.79370  Biso   1.000  O
  O34      1.0000 0.25740  0.46560  0.70630  Biso   1.000  O
  O35      1.0000 0.25740  0.03440  0.20630  Biso   1.000  O
  O36      1.0000 0.74260  0.53440  0.29370  Biso   1.000  O
  H9       1.0000 0.72160  0.84760  0.79340  Biso   1.000  H
  H10      1.0000 0.27840  0.34760  0.70660  Biso   1.000  H
  H11      1.0000 0.27840  0.15240  0.20660  Biso   1.000  H
  H12      1.0000 0.72160  0.65240  0.29340  Biso   1.000  H
  H13      1.0000 0.72290  0.01830  0.82360  Biso   1.000  H
  H14      1.0000 0.27710  0.51830  0.67640  Biso   1.000  H
  H15      1.0000 0.27710  0.98170  0.17640  Biso   1.000  H
  H16      1.0000 0.72290  0.48170  0.32360  Biso   1.000  H
  O37      1.0000 0.57590  0.88420  0.87330  Biso   1.000  O
  O38      1.0000 0.42410  0.38420  0.62670  Biso   1.000  O
  O39      1.0000 0.42410  0.11580  0.12670  Biso   1.000  O
  O40      1.0000 0.57590  0.61580  0.37330  Biso   1.000  O
  H17      1.0000 0.54660  0.78680  0.85580  Biso   1.000  H
  H18      1.0000 0.45340  0.28680  0.64420  Biso   1.000  H
  H19      1.0000 0.45340  0.21320  0.14420  Biso   1.000  H
  H20      1.0000 0.54660  0.71320  0.35580  Biso   1.000  H
  H21      1.0000 0.52480  0.95530  0.88380  Biso   1.000  H
  H22      1.0000 0.47520  0.45530  0.61620  Biso   1.000  H
  H23      1.0000 0.47520  0.04470  0.11620  Biso   1.000  H
  H24      1.0000 0.52480  0.54470  0.38380  Biso   1.000  H
  O41      1.0000 0.69080  0.34210  0.98540  Biso   1.000  O
  O42      1.0000 0.30920  0.84210  0.51460  Biso   1.000  O
  O43      1.0000 0.30920  0.65790  0.01460  Biso   1.000  O
  O44      1.0000 0.69080  0.15790  0.48540  Biso   1.000  O
  O45      1.0000 0.74580  0.12730  0.06250  Biso   1.000  O
  O46      1.0000 0.25420  0.62730  0.43750  Biso   1.000  O
  O47      1.0000 0.25420  0.87270  0.93750  Biso   1.000  O
  O48      1.0000 0.74580  0.37270  0.56250  Biso   1.000  O
  O49      1.0000 0.65720  0.00160  0.97630  Biso   1.000  O
  O50      1.0000 0.34280  0.50160  0.52370  Biso   1.000  O
  O51      1.0000 0.34280  0.99840  0.02370  Biso   1.000  O
  O52      1.0000 0.65720  0.49840  0.47630  Biso   1.000  O
  O53      1.0000 0.55540  0.19000  0.03840  Biso   1.000  O
  O54      1.0000 0.44460  0.69000  0.46160  Biso   1.000  O
  O55      1.0000 0.44460  0.81000  0.96160  Biso   1.000  O
  O56      1.0000 0.55540  0.31000  0.53840  Biso   1.000  O
  O57      1.0000 0.96470  0.81240  0.18800  Biso   1.000  O
  O58      1.0000 0.03530  0.31240  0.31200  Biso   1.000  O
  O59      1.0000 0.03530  0.18760  0.81200  Biso   1.000  O
  O60      1.0000 0.96470  0.68760  0.68800  Biso   1.000  O
  H25      1.0000 0.03310  0.82070  0.18520  Biso   1.000  H
  H26      1.0000 0.96690  0.32070  0.31480  Biso   1.000  H
  H27      1.0000 0.96690  0.17930  0.81480  Biso   1.000  H
  H28      1.0000 0.03310  0.67930  0.68520  Biso   1.000  H
  H29      1.0000 0.95570  0.76230  0.22000  Biso   1.000  H
  H30      1.0000 0.04430  0.26230  0.28000  Biso   1.000  H
  H31      1.0000 0.04430  0.23770  0.78000  Biso   1.000  H
  H32      1.0000 0.95570  0.73770  0.72000  Biso   1.000  H
  O61      1.0000 0.76530  0.57140  0.17120  Biso   1.000  O
  O62      1.0000 0.23470  0.07140  0.32880  Biso   1.000  O
  O63      1.0000 0.23470  0.42860  0.82880  Biso   1.000  O
  O64      1.0000 0.76530  0.92860  0.67120  Biso   1.000  O
  H33      1.0000 0.79010  0.46490  0.15930  Biso   1.000  H
  H34      1.0000 0.20990  0.96490  0.34070  Biso   1.000  H
  H35      1.0000 0.20990  0.53510  0.84070  Biso   1.000  H
  H36      1.0000 0.79010  0.03510  0.65930  Biso   1.000  H
  H37      1.0000 0.71960  0.54370  0.19490  Biso   1.000  H
  H38      1.0000 0.28040  0.04370  0.30510  Biso   1.000  H
  H39      1.0000 0.28040  0.45630  0.80510  Biso   1.000  H
  H40      1.0000 0.71960  0.95630  0.69490  Biso   1.000  H
  O65      1.0000 0.84050  0.20000  0.88340  Biso   1.000  O
  O66      1.0000 0.15950  0.70000  0.61660  Biso   1.000  O
  O67      1.0000 0.15950  0.80000  0.11660  Biso   1.000  O
  O68      1.0000 0.84050  0.30000  0.38340  Biso   1.000  O
  H41      1.0000 0.80250  0.23310  0.91010  Biso   1.000  H
  H42      1.0000 0.19750  0.73310  0.58990  Biso   1.000  H
  H43      1.0000 0.19750  0.76690  0.08990  Biso   1.000  H
  H44      1.0000 0.80250  0.26690  0.41010  Biso   1.000  H
  H45      1.0000 0.90740  0.21710  0.89480  Biso   1.000  H
  H46      1.0000 0.09260  0.71710  0.60520  Biso   1.000  H
  H47      1.0000 0.09260  0.78290  0.10520  Biso   1.000  H
  H48      1.0000 0.90740  0.28290  0.39480  Biso   1.000  H
  S1       1.0000 0.66088  0.16570  0.01597  Biso   1.000  S
  S2       1.0000 0.33912  0.66570  0.48403  Biso   1.000  S
  S3       1.0000 0.33912  0.83430  0.98403  Biso   1.000  S
  S4       1.0000 0.66088  0.33430  0.51597  Biso   1.000  S
