data_image0
_cell_length_a       7.1295
_cell_length_b       10.2508
_cell_length_c       15.5835
_cell_angle_alpha    80.709
_cell_angle_beta     79.568
_cell_angle_gamma    76.666

_symmetry_space_group_name_H-M    "P 1"
_symmetry_int_tables_number       1

loop_
  _symmetry_equiv_pos_as_xyz
  'x, y, z'

loop_
  _atom_site_label
  _atom_site_occupancy
  _atom_site_fract_x
  _atom_site_fract_y
  _atom_site_fract_z
  _atom_site_thermal_displace_type
  _atom_site_B_iso_or_equiv
  _atom_site_type_symbol
  Cu1      1.0000 0.39385  0.37365  0.97016  Biso   1.000  Cu
  Cu2      1.0000 0.60615  0.62635  0.02984  Biso   1.000  Cu
  Dy1      1.0000 0.34970  0.22073  0.26198  Biso   1.000  Dy
  Dy2      1.0000 0.65030  0.77927  0.73802  Biso   1.000  Dy
  Dy3      1.0000 0.73396  0.80881  0.36565  Biso   1.000  Dy
  Dy4      1.0000 0.26604  0.19119  0.63435  Biso   1.000  Dy
  S1       1.0000 0.63020  0.14439  0.44578  Biso   1.000  S
  S2       1.0000 0.36980  0.85561  0.55422  Biso   1.000  S
  C1       1.0000 0.05150  0.50740  0.29240  Biso   1.000  C
  C2       1.0000 0.94850  0.49260  0.70760  Biso   1.000  C
  C3       1.0000 0.10600  0.52200  0.19600  Biso   1.000  C
  C4       1.0000 0.89400  0.47800  0.80400  Biso   1.000  C
  C5       1.0000 0.04190  0.62260  0.13040  Biso   1.000  C
  C6       1.0000 0.95810  0.37740  0.86960  Biso   1.000  C
  H1       1.0000 0.95060  0.70280  0.13660  Biso   1.000  H
  H2       1.0000 0.04940  0.29720  0.86340  Biso   1.000  H
  C7       1.0000 0.14530  0.57570  0.05400  Biso   1.000  C
  C8       1.0000 0.85470  0.42430  0.94600  Biso   1.000  C
  C9       1.0000 0.14820  0.62480  0.95960  Biso   1.000  C
  C10      1.0000 0.85180  0.37520  0.04040  Biso   1.000  C
  C11      1.0000 0.64540  0.17390  0.88290  Biso   1.000  C
  C12      1.0000 0.35460  0.82610  0.11710  Biso   1.000  C
  C13      1.0000 0.64580  0.12590  0.97830  Biso   1.000  C
  C14      1.0000 0.35420  0.87410  0.02170  Biso   1.000  C
  C15      1.0000 0.73640  0.01450  0.02970  Biso   1.000  C
  C16      1.0000 0.26360  0.98550  0.97030  Biso   1.000  C
  H3       1.0000 0.82940  0.94030  0.01180  Biso   1.000  H
  H4       1.0000 0.17060  0.05970  0.98820  Biso   1.000  H
  C17      1.0000 0.65430  0.04080  0.11480  Biso   1.000  C
  C18      1.0000 0.34570  0.95920  0.88520  Biso   1.000  C
  C19      1.0000 0.67920  0.96260  0.20130  Biso   1.000  C
  C20      1.0000 0.32080  0.03740  0.79870  Biso   1.000  C
  N1       1.0000 0.24030  0.42250  0.16020  Biso   1.000  N
  N2       1.0000 0.75970  0.57750  0.83980  Biso   1.000  N
  N3       1.0000 0.26280  0.45620  0.07330  Biso   1.000  N
  N4       1.0000 0.73720  0.54380  0.92670  Biso   1.000  N
  N5       1.0000 0.52070  0.21030  0.03100  Biso   1.000  N
  N6       1.0000 0.47930  0.78970  0.96900  Biso   1.000  N
  N7       1.0000 0.52560  0.15970  0.11540  Biso   1.000  N
  N8       1.0000 0.47440  0.84030  0.88460  Biso   1.000  N
  O1       1.0000 0.93620  0.60000  0.32970  Biso   1.000  O
  O2       1.0000 0.06380  0.40000  0.67030  Biso   1.000  O
  O3       1.0000 0.13150  0.39400  0.33310  Biso   1.000  O
  O4       1.0000 0.86850  0.60600  0.66690  Biso   1.000  O
  O5       1.0000 0.04260  0.73160  0.93500  Biso   1.000  O
  O6       1.0000 0.95740  0.26840  0.06500  Biso   1.000  O
  O7       1.0000 0.26720  0.54520  0.90810  Biso   1.000  O
  O8       1.0000 0.73280  0.45480  0.09190  Biso   1.000  O
  O9       1.0000 0.52890  0.28790  0.86490  Biso   1.000  O
  O10      1.0000 0.47110  0.71210  0.13510  Biso   1.000  O
  O11      1.0000 0.75240  0.10790  0.82620  Biso   1.000  O
  O12      1.0000 0.24760  0.89210  0.17380  Biso   1.000  O
  O13      1.0000 0.79960  0.85480  0.21100  Biso   1.000  O
  O14      1.0000 0.20040  0.14520  0.78900  Biso   1.000  O
  O15      1.0000 0.56920  0.00960  0.26950  Biso   1.000  O
  O16      1.0000 0.43080  0.99040  0.73050  Biso   1.000  O
  O17      1.0000 0.60370  0.33480  0.24840  Biso   1.000  O
  O18      1.0000 0.39630  0.66520  0.75160  Biso   1.000  O
  H5       1.0000 0.71890  0.34390  0.24910  Biso   1.000  H
  H6       1.0000 0.28110  0.65610  0.75090  Biso   1.000  H
  H7       1.0000 0.55330  0.39790  0.21170  Biso   1.000  H
  H8       1.0000 0.44670  0.60210  0.78830  Biso   1.000  H
  O19      1.0000 0.10850  0.15350  0.20480  Biso   1.000  O
  O20      1.0000 0.89150  0.84650  0.79520  Biso   1.000  O
  H9       1.0000 0.06740  0.19530  0.15790  Biso   1.000  H
  H10      1.0000 0.93260  0.80470  0.84210  Biso   1.000  H
  H11      1.0000 0.13690  0.06950  0.19980  Biso   1.000  H
  H12      1.0000 0.86310  0.93050  0.80020  Biso   1.000  H
  O21      1.0000 0.15130  0.09030  0.37670  Biso   1.000  O
  O22      1.0000 0.84870  0.90970  0.62330  Biso   1.000  O
  H13      1.0000 0.03340  0.13040  0.38960  Biso   1.000  H
  H14      1.0000 0.96660  0.86960  0.61040  Biso   1.000  H
  H15      1.0000 0.19990  0.06710  0.42420  Biso   1.000  H
  H16      1.0000 0.80010  0.93290  0.57580  Biso   1.000  H
  O23      1.0000 0.46180  0.18310  0.39810  Biso   1.000  O
  O24      1.0000 0.53820  0.81690  0.60190  Biso   1.000  O
  O25      1.0000 0.56050  0.16760  0.53860  Biso   1.000  O
  O26      1.0000 0.43950  0.83240  0.46140  Biso   1.000  O
  O27      1.0000 0.77310  0.22870  0.40730  Biso   1.000  O
  O28      1.0000 0.22690  0.77130  0.59270  Biso   1.000  O
  O29      1.0000 0.72280  0.00020  0.44200  Biso   1.000  O
  O30      1.0000 0.27720  0.99980  0.55800  Biso   1.000  O
  O31      1.0000 0.52130  0.69970  0.31550  Biso   1.000  O
  O32      1.0000 0.47870  0.30030  0.68450  Biso   1.000  O
  H17      1.0000 0.52710  0.69370  0.26130  Biso   1.000  H
  H18      1.0000 0.47290  0.30630  0.73870  Biso   1.000  H
  H19      1.0000 0.54660  0.61990  0.34210  Biso   1.000  H
  H20      1.0000 0.45340  0.38010  0.65790  Biso   1.000  H
  O33      1.0000 0.04720  0.85640  0.33620  Biso   1.000  O
  O34      1.0000 0.95280  0.14360  0.66380  Biso   1.000  O
  H21      1.0000 0.13840  0.83660  0.29400  Biso   1.000  H
  H22      1.0000 0.86160  0.16340  0.70600  Biso   1.000  H
  H23      1.0000 0.09250  0.89060  0.37210  Biso   1.000  H
  H24      1.0000 0.90750  0.10940  0.62790  Biso   1.000  H
  O35      1.0000 0.86980  0.69170  0.48780  Biso   1.000  O
  O36      1.0000 0.13020  0.30830  0.51220  Biso   1.000  O
  H25      1.0000 0.88740  0.71250  0.53590  Biso   1.000  H
  H26      1.0000 0.11260  0.28750  0.46410  Biso   1.000  H
  H27      1.0000 0.83250  0.61700  0.49900  Biso   1.000  H
  H28      1.0000 0.16750  0.38300  0.50100  Biso   1.000  H
  O37      1.0000 0.26810  0.57860  0.47010  Biso   1.000  O
  O38      1.0000 0.73190  0.42140  0.52990  Biso   1.000  O
  H29      1.0000 0.30120  0.61910  0.50670  Biso   1.000  H
  H30      1.0000 0.69880  0.38090  0.49330  Biso   1.000  H
  H31      1.0000 0.20540  0.63830  0.43530  Biso   1.000  H
  H32      1.0000 0.79460  0.36170  0.56470  Biso   1.000  H
