data_image0
_cell_length_a       12.2664
_cell_length_b       6.8633
_cell_length_c       23.739
_cell_angle_alpha    90
_cell_angle_beta     95.118
_cell_angle_gamma    90

_symmetry_space_group_name_H-M    "P 1"
_symmetry_int_tables_number       1

loop_
  _symmetry_equiv_pos_as_xyz
  'x, y, z'

loop_
  _atom_site_label
  _atom_site_occupancy
  _atom_site_fract_x
  _atom_site_fract_y
  _atom_site_fract_z
  _atom_site_thermal_displace_type
  _atom_site_B_iso_or_equiv
  _atom_site_type_symbol
  Cu1      1.0000 0.80168  0.64495  0.81171  Biso   1.000  Cu
  Cu2      1.0000 0.19832  0.14495  0.68829  Biso   1.000  Cu
  Cu3      1.0000 0.19832  0.35505  0.18829  Biso   1.000  Cu
  Cu4      1.0000 0.80168  0.85505  0.31171  Biso   1.000  Cu
  Gd1      1.0000 0.61994  0.65992  0.96690  Biso   1.000  Gd
  Gd2      1.0000 0.38006  0.15992  0.53310  Biso   1.000  Gd
  Gd3      1.0000 0.38006  0.34008  0.03310  Biso   1.000  Gd
  Gd4      1.0000 0.61994  0.84008  0.46690  Biso   1.000  Gd
  Gd5      1.0000 0.79022  0.90363  0.13459  Biso   1.000  Gd
  Gd6      1.0000 0.20978  0.40363  0.36541  Biso   1.000  Gd
  Gd7      1.0000 0.20978  0.09637  0.86541  Biso   1.000  Gd
  Gd8      1.0000 0.79022  0.59637  0.63459  Biso   1.000  Gd
  C1       1.0000 0.45740  0.31460  0.89900  Biso   1.000  C
  C2       1.0000 0.54260  0.81460  0.60100  Biso   1.000  C
  C3       1.0000 0.54260  0.68540  0.10100  Biso   1.000  C
  C4       1.0000 0.45740  0.18540  0.39900  Biso   1.000  C
  C5       1.0000 0.52910  0.36800  0.85660  Biso   1.000  C
  C6       1.0000 0.47090  0.86800  0.64340  Biso   1.000  C
  C7       1.0000 0.47090  0.63200  0.14340  Biso   1.000  C
  C8       1.0000 0.52910  0.13200  0.35660  Biso   1.000  C
  C9       1.0000 0.53100  0.31640  0.79990  Biso   1.000  C
  C10      1.0000 0.46900  0.81640  0.70010  Biso   1.000  C
  C11      1.0000 0.46900  0.68360  0.20010  Biso   1.000  C
  C12      1.0000 0.53100  0.18360  0.29990  Biso   1.000  C
  H1       1.0000 0.48300  0.23450  0.77870  Biso   1.000  H
  H2       1.0000 0.51700  0.73450  0.72130  Biso   1.000  H
  H3       1.0000 0.51700  0.76550  0.22130  Biso   1.000  H
  H4       1.0000 0.48300  0.26550  0.27870  Biso   1.000  H
  C13      1.0000 0.62050  0.41470  0.78230  Biso   1.000  C
  C14      1.0000 0.37950  0.91470  0.71770  Biso   1.000  C
  C15      1.0000 0.37950  0.58530  0.21770  Biso   1.000  C
  C16      1.0000 0.62050  0.08530  0.28230  Biso   1.000  C
  C17      1.0000 0.67440  0.43290  0.72910  Biso   1.000  C
  C18      1.0000 0.32560  0.93290  0.77090  Biso   1.000  C
  C19      1.0000 0.32560  0.56710  0.27090  Biso   1.000  C
  C20      1.0000 0.67440  0.06710  0.22910  Biso   1.000  C
  C21      1.0000 0.01750  0.74520  0.84260  Biso   1.000  C
  C22      1.0000 0.98250  0.24520  0.65740  Biso   1.000  C
  C23      1.0000 0.98250  0.25480  0.15740  Biso   1.000  C
  C24      1.0000 0.01750  0.75480  0.34260  Biso   1.000  C
  C25      1.0000 0.96300  0.73300  0.89580  Biso   1.000  C
  C26      1.0000 0.03700  0.23300  0.60420  Biso   1.000  C
  C27      1.0000 0.03700  0.26700  0.10420  Biso   1.000  C
  C28      1.0000 0.96300  0.76700  0.39580  Biso   1.000  C
  C29      1.0000 0.99300  0.75500  0.95300  Biso   1.000  C
  C30      1.0000 0.00700  0.25500  0.54700  Biso   1.000  C
  C31      1.0000 0.00700  0.24500  0.04700  Biso   1.000  C
  C32      1.0000 0.99300  0.74500  0.45300  Biso   1.000  C
  H5       1.0000 0.06200  0.78190  0.97080  Biso   1.000  H
  H6       1.0000 0.93800  0.28190  0.52920  Biso   1.000  H
  H7       1.0000 0.93800  0.21810  0.02920  Biso   1.000  H
  H8       1.0000 0.06200  0.71810  0.47080  Biso   1.000  H
  C33      1.0000 0.89630  0.72770  0.97730  Biso   1.000  C
  C34      1.0000 0.10370  0.22770  0.52270  Biso   1.000  C
  C35      1.0000 0.10370  0.27230  0.02270  Biso   1.000  C
  C36      1.0000 0.89630  0.77230  0.47730  Biso   1.000  C
  C37      1.0000 0.86550  0.74160  0.03560  Biso   1.000  C
  C38      1.0000 0.13450  0.24160  0.46440  Biso   1.000  C
  C39      1.0000 0.13450  0.25840  0.96440  Biso   1.000  C
  C40      1.0000 0.86550  0.75840  0.53560  Biso   1.000  C
  N1       1.0000 0.61250  0.49230  0.87130  Biso   1.000  N
  N2       1.0000 0.38750  0.99230  0.62870  Biso   1.000  N
  N3       1.0000 0.38750  0.50770  0.12870  Biso   1.000  N
  N4       1.0000 0.61250  0.00770  0.37130  Biso   1.000  N
  N5       1.0000 0.66620  0.51960  0.82560  Biso   1.000  N
  N6       1.0000 0.33380  0.01960  0.67440  Biso   1.000  N
  N7       1.0000 0.33380  0.48040  0.17440  Biso   1.000  N
  N8       1.0000 0.66620  0.98040  0.32560  Biso   1.000  N
  N9       1.0000 0.85500  0.69310  0.88820  Biso   1.000  N
  N10      1.0000 0.14500  0.19310  0.61180  Biso   1.000  N
  N11      1.0000 0.14500  0.30690  0.11180  Biso   1.000  N
  N12      1.0000 0.85500  0.80690  0.38820  Biso   1.000  N
  N13      1.0000 0.81300  0.68640  0.93790  Biso   1.000  N
  N14      1.0000 0.18700  0.18640  0.56210  Biso   1.000  N
  N15      1.0000 0.18700  0.31360  0.06210  Biso   1.000  N
  N16      1.0000 0.81300  0.81360  0.43790  Biso   1.000  N
  O1       1.0000 0.39290  0.17350  0.88830  Biso   1.000  O
  O2       1.0000 0.60710  0.67350  0.61170  Biso   1.000  O
  O3       1.0000 0.60710  0.82650  0.11170  Biso   1.000  O
  O4       1.0000 0.39290  0.32650  0.38830  Biso   1.000  O
  O5       1.0000 0.46490  0.40760  0.94570  Biso   1.000  O
  O6       1.0000 0.53510  0.90760  0.55430  Biso   1.000  O
  O7       1.0000 0.53510  0.59240  0.05430  Biso   1.000  O
  O8       1.0000 0.46490  0.09240  0.44570  Biso   1.000  O
  O9       1.0000 0.64800  0.34960  0.68440  Biso   1.000  O
  O10      1.0000 0.35200  0.84960  0.81560  Biso   1.000  O
  O11      1.0000 0.35200  0.65040  0.31560  Biso   1.000  O
  O12      1.0000 0.64800  0.15040  0.18440  Biso   1.000  O
  O13      1.0000 0.75690  0.55810  0.73300  Biso   1.000  O
  O14      1.0000 0.24310  0.05810  0.76700  Biso   1.000  O
  O15      1.0000 0.24310  0.44190  0.26700  Biso   1.000  O
  O16      1.0000 0.75690  0.94190  0.23300  Biso   1.000  O
  O17      1.0000 0.95690  0.69510  0.79830  Biso   1.000  O
  O18      1.0000 0.04310  0.19510  0.70170  Biso   1.000  O
  O19      1.0000 0.04310  0.30490  0.20170  Biso   1.000  O
  O20      1.0000 0.95690  0.80490  0.29830  Biso   1.000  O
  O21      1.0000 0.11280  0.80420  0.84120  Biso   1.000  O
  O22      1.0000 0.88720  0.30420  0.65880  Biso   1.000  O
  O23      1.0000 0.88720  0.19580  0.15880  Biso   1.000  O
  O24      1.0000 0.11280  0.69580  0.34120  Biso   1.000  O
  O25      1.0000 0.93270  0.80530  0.07440  Biso   1.000  O
  O26      1.0000 0.06730  0.30530  0.42560  Biso   1.000  O
  O27      1.0000 0.06730  0.19470  0.92560  Biso   1.000  O
  O28      1.0000 0.93270  0.69470  0.57440  Biso   1.000  O
  O29      1.0000 0.76820  0.70170  0.04510  Biso   1.000  O
  O30      1.0000 0.23180  0.20170  0.45490  Biso   1.000  O
  O31      1.0000 0.23180  0.29830  0.95490  Biso   1.000  O
  O32      1.0000 0.76820  0.79830  0.54510  Biso   1.000  O
  O33      1.0000 0.74480  0.96940  0.79310  Biso   1.000  O
  O34      1.0000 0.25520  0.46940  0.70690  Biso   1.000  O
  O35      1.0000 0.25520  0.03060  0.20690  Biso   1.000  O
  O36      1.0000 0.74480  0.53060  0.29310  Biso   1.000  O
  H9       1.0000 0.72380  0.85140  0.79270  Biso   1.000  H
  H10      1.0000 0.27620  0.35140  0.70730  Biso   1.000  H
  H11      1.0000 0.27620  0.14860  0.20730  Biso   1.000  H
  H12      1.0000 0.72380  0.64860  0.29270  Biso   1.000  H
  H13      1.0000 0.72500  0.02210  0.82290  Biso   1.000  H
  H14      1.0000 0.27500  0.52210  0.67710  Biso   1.000  H
  H15      1.0000 0.27500  0.97790  0.17710  Biso   1.000  H
  H16      1.0000 0.72500  0.47790  0.32290  Biso   1.000  H
  O37      1.0000 0.57940  0.88570  0.87380  Biso   1.000  O
  O38      1.0000 0.42060  0.38570  0.62620  Biso   1.000  O
  O39      1.0000 0.42060  0.11430  0.12620  Biso   1.000  O
  O40      1.0000 0.57940  0.61430  0.37380  Biso   1.000  O
  H17      1.0000 0.55010  0.78830  0.85620  Biso   1.000  H
  H18      1.0000 0.44990  0.28830  0.64380  Biso   1.000  H
  H19      1.0000 0.44990  0.21170  0.14380  Biso   1.000  H
  H20      1.0000 0.55010  0.71170  0.35620  Biso   1.000  H
  H21      1.0000 0.52830  0.95680  0.88430  Biso   1.000  H
  H22      1.0000 0.47170  0.45680  0.61570  Biso   1.000  H
  H23      1.0000 0.47170  0.04320  0.11570  Biso   1.000  H
  H24      1.0000 0.52830  0.54320  0.38430  Biso   1.000  H
  O41      1.0000 0.69060  0.34060  0.98570  Biso   1.000  O
  O42      1.0000 0.30940  0.84060  0.51430  Biso   1.000  O
  O43      1.0000 0.30940  0.65940  0.01430  Biso   1.000  O
  O44      1.0000 0.69060  0.15940  0.48570  Biso   1.000  O
  O45      1.0000 0.74650  0.12710  0.06280  Biso   1.000  O
  O46      1.0000 0.25350  0.62710  0.43720  Biso   1.000  O
  O47      1.0000 0.25350  0.87290  0.93720  Biso   1.000  O
  O48      1.0000 0.74650  0.37290  0.56280  Biso   1.000  O
  O49      1.0000 0.65560  0.00120  0.97690  Biso   1.000  O
  O50      1.0000 0.34440  0.50120  0.52310  Biso   1.000  O
  O51      1.0000 0.34440  0.99880  0.02310  Biso   1.000  O
  O52      1.0000 0.65560  0.49880  0.47690  Biso   1.000  O
  O53      1.0000 0.55530  0.19270  0.04020  Biso   1.000  O
  O54      1.0000 0.44470  0.69270  0.45980  Biso   1.000  O
  O55      1.0000 0.44470  0.80730  0.95980  Biso   1.000  O
  O56      1.0000 0.55530  0.30730  0.54020  Biso   1.000  O
  O57      1.0000 0.96450  0.80950  0.18790  Biso   1.000  O
  O58      1.0000 0.03550  0.30950  0.31210  Biso   1.000  O
  O59      1.0000 0.03550  0.19050  0.81210  Biso   1.000  O
  O60      1.0000 0.96450  0.69050  0.68790  Biso   1.000  O
  H25      1.0000 0.03290  0.81780  0.18520  Biso   1.000  H
  H26      1.0000 0.96710  0.31780  0.31480  Biso   1.000  H
  H27      1.0000 0.96710  0.18220  0.81480  Biso   1.000  H
  H28      1.0000 0.03290  0.68220  0.68520  Biso   1.000  H
  H29      1.0000 0.95550  0.75950  0.22000  Biso   1.000  H
  H30      1.0000 0.04450  0.25950  0.28000  Biso   1.000  H
  H31      1.0000 0.04450  0.24050  0.78000  Biso   1.000  H
  H32      1.0000 0.95550  0.74050  0.72000  Biso   1.000  H
  O61      1.0000 0.76500  0.57130  0.16980  Biso   1.000  O
  O62      1.0000 0.23500  0.07130  0.33020  Biso   1.000  O
  O63      1.0000 0.23500  0.42870  0.83020  Biso   1.000  O
  O64      1.0000 0.76500  0.92870  0.66980  Biso   1.000  O
  H33      1.0000 0.78980  0.46480  0.15790  Biso   1.000  H
  H34      1.0000 0.21020  0.96480  0.34210  Biso   1.000  H
  H35      1.0000 0.21020  0.53520  0.84210  Biso   1.000  H
  H36      1.0000 0.78980  0.03520  0.65790  Biso   1.000  H
  H37      1.0000 0.71930  0.54360  0.19350  Biso   1.000  H
  H38      1.0000 0.28070  0.04360  0.30650  Biso   1.000  H
  H39      1.0000 0.28070  0.45640  0.80650  Biso   1.000  H
  H40      1.0000 0.71930  0.95640  0.69350  Biso   1.000  H
  O65      1.0000 0.83950  0.20200  0.88350  Biso   1.000  O
  O66      1.0000 0.16050  0.70200  0.61650  Biso   1.000  O
  O67      1.0000 0.16050  0.79800  0.11650  Biso   1.000  O
  O68      1.0000 0.83950  0.29800  0.38350  Biso   1.000  O
  H41      1.0000 0.80150  0.23500  0.91020  Biso   1.000  H
  H42      1.0000 0.19850  0.73500  0.58980  Biso   1.000  H
  H43      1.0000 0.19850  0.76500  0.08980  Biso   1.000  H
  H44      1.0000 0.80150  0.26500  0.41020  Biso   1.000  H
  H45      1.0000 0.90650  0.21900  0.89490  Biso   1.000  H
  H46      1.0000 0.09350  0.71900  0.60510  Biso   1.000  H
  H47      1.0000 0.09350  0.78100  0.10510  Biso   1.000  H
  H48      1.0000 0.90650  0.28100  0.39490  Biso   1.000  H
  S1       1.0000 0.66074  0.16640  0.01700  Biso   1.000  S
  S2       1.0000 0.33926  0.66640  0.48300  Biso   1.000  S
  S3       1.0000 0.33926  0.83360  0.98300  Biso   1.000  S
  S4       1.0000 0.66074  0.33360  0.51700  Biso   1.000  S
