data_image0
_cell_length_a       12.212
_cell_length_b       6.814
_cell_length_c       23.693
_cell_angle_alpha    90
_cell_angle_beta     95.087
_cell_angle_gamma    90

_symmetry_space_group_name_H-M    "P 1"
_symmetry_int_tables_number       1

loop_
  _symmetry_equiv_pos_as_xyz
  'x, y, z'

loop_
  _atom_site_label
  _atom_site_occupancy
  _atom_site_fract_x
  _atom_site_fract_y
  _atom_site_fract_z
  _atom_site_thermal_displace_type
  _atom_site_B_iso_or_equiv
  _atom_site_type_symbol
  Cu1      1.0000 0.80126  0.64850  0.81146  Biso   1.000  Cu
  Cu2      1.0000 0.19874  0.14850  0.68854  Biso   1.000  Cu
  Cu3      1.0000 0.19874  0.35150  0.18854  Biso   1.000  Cu
  Cu4      1.0000 0.80126  0.85150  0.31146  Biso   1.000  Cu
  Tb1      1.0000 0.61989  0.65920  0.96701  Biso   1.000  Tb
  Tb2      1.0000 0.38011  0.15920  0.53299  Biso   1.000  Tb
  Tb3      1.0000 0.38011  0.34080  0.03299  Biso   1.000  Tb
  Tb4      1.0000 0.61989  0.84080  0.46701  Biso   1.000  Tb
  Tb5      1.0000 0.78989  0.90187  0.13462  Biso   1.000  Tb
  Tb6      1.0000 0.21011  0.40187  0.36538  Biso   1.000  Tb
  Tb7      1.0000 0.21011  0.09813  0.86538  Biso   1.000  Tb
  Tb8      1.0000 0.78989  0.59813  0.63462  Biso   1.000  Tb
  C1       1.0000 0.45480  0.30970  0.89910  Biso   1.000  C
  C2       1.0000 0.54520  0.80970  0.60090  Biso   1.000  C
  C3       1.0000 0.54520  0.69030  0.10090  Biso   1.000  C
  C4       1.0000 0.45480  0.19030  0.39910  Biso   1.000  C
  C5       1.0000 0.53000  0.36920  0.85620  Biso   1.000  C
  C6       1.0000 0.47000  0.86920  0.64380  Biso   1.000  C
  C7       1.0000 0.47000  0.63080  0.14380  Biso   1.000  C
  C8       1.0000 0.53000  0.13080  0.35620  Biso   1.000  C
  C9       1.0000 0.53200  0.31760  0.80040  Biso   1.000  C
  C10      1.0000 0.46800  0.81760  0.69960  Biso   1.000  C
  C11      1.0000 0.46800  0.68240  0.19960  Biso   1.000  C
  C12      1.0000 0.53200  0.18240  0.30040  Biso   1.000  C
  H1       1.0000 0.48380  0.23400  0.77950  Biso   1.000  H
  H2       1.0000 0.51620  0.73400  0.72050  Biso   1.000  H
  H3       1.0000 0.51620  0.76600  0.22050  Biso   1.000  H
  H4       1.0000 0.48380  0.26600  0.27950  Biso   1.000  H
  C13      1.0000 0.62020  0.41540  0.78210  Biso   1.000  C
  C14      1.0000 0.37980  0.91540  0.71790  Biso   1.000  C
  C15      1.0000 0.37980  0.58460  0.21790  Biso   1.000  C
  C16      1.0000 0.62020  0.08460  0.28210  Biso   1.000  C
  C17      1.0000 0.67420  0.43570  0.72940  Biso   1.000  C
  C18      1.0000 0.32580  0.93570  0.77060  Biso   1.000  C
  C19      1.0000 0.32580  0.56430  0.27060  Biso   1.000  C
  C20      1.0000 0.67420  0.06430  0.22940  Biso   1.000  C
  C21      1.0000 0.01800  0.74950  0.84270  Biso   1.000  C
  C22      1.0000 0.98200  0.24950  0.65730  Biso   1.000  C
  C23      1.0000 0.98200  0.25050  0.15730  Biso   1.000  C
  C24      1.0000 0.01800  0.75050  0.34270  Biso   1.000  C
  C25      1.0000 0.96150  0.73590  0.89510  Biso   1.000  C
  C26      1.0000 0.03850  0.23590  0.60490  Biso   1.000  C
  C27      1.0000 0.03850  0.26410  0.10490  Biso   1.000  C
  C28      1.0000 0.96150  0.76410  0.39510  Biso   1.000  C
  C29      1.0000 0.99140  0.75620  0.95290  Biso   1.000  C
  C30      1.0000 0.00860  0.25620  0.54710  Biso   1.000  C
  C31      1.0000 0.00860  0.24380  0.04710  Biso   1.000  C
  C32      1.0000 0.99140  0.74380  0.45290  Biso   1.000  C
  H5       1.0000 0.06080  0.78330  0.97070  Biso   1.000  H
  H6       1.0000 0.93920  0.28330  0.52930  Biso   1.000  H
  H7       1.0000 0.93920  0.21670  0.02930  Biso   1.000  H
  H8       1.0000 0.06080  0.71670  0.47070  Biso   1.000  H
  C33      1.0000 0.89550  0.72720  0.97770  Biso   1.000  C
  C34      1.0000 0.10450  0.22720  0.52230  Biso   1.000  C
  C35      1.0000 0.10450  0.27280  0.02230  Biso   1.000  C
  C36      1.0000 0.89550  0.77280  0.47770  Biso   1.000  C
  C37      1.0000 0.86530  0.74220  0.03620  Biso   1.000  C
  C38      1.0000 0.13470  0.24220  0.46380  Biso   1.000  C
  C39      1.0000 0.13470  0.25780  0.96380  Biso   1.000  C
  C40      1.0000 0.86530  0.75780  0.53620  Biso   1.000  C
  N1       1.0000 0.61200  0.49660  0.87170  Biso   1.000  N
  N2       1.0000 0.38800  0.99660  0.62830  Biso   1.000  N
  N3       1.0000 0.38800  0.50340  0.12830  Biso   1.000  N
  N4       1.0000 0.61200  0.00340  0.37170  Biso   1.000  N
  N5       1.0000 0.66590  0.52260  0.82580  Biso   1.000  N
  N6       1.0000 0.33410  0.02260  0.67420  Biso   1.000  N
  N7       1.0000 0.33410  0.47740  0.17420  Biso   1.000  N
  N8       1.0000 0.66590  0.97740  0.32580  Biso   1.000  N
  N9       1.0000 0.85480  0.69630  0.88780  Biso   1.000  N
  N10      1.0000 0.14520  0.19630  0.61220  Biso   1.000  N
  N11      1.0000 0.14520  0.30370  0.11220  Biso   1.000  N
  N12      1.0000 0.85480  0.80370  0.38780  Biso   1.000  N
  N13      1.0000 0.81230  0.68670  0.93800  Biso   1.000  N
  N14      1.0000 0.18770  0.18670  0.56200  Biso   1.000  N
  N15      1.0000 0.18770  0.31330  0.06200  Biso   1.000  N
  N16      1.0000 0.81230  0.81330  0.43800  Biso   1.000  N
  O1       1.0000 0.39040  0.17150  0.88780  Biso   1.000  O
  O2       1.0000 0.60960  0.67150  0.61220  Biso   1.000  O
  O3       1.0000 0.60960  0.82850  0.11220  Biso   1.000  O
  O4       1.0000 0.39040  0.32850  0.38780  Biso   1.000  O
  O5       1.0000 0.46690  0.40590  0.94660  Biso   1.000  O
  O6       1.0000 0.53310  0.90590  0.55340  Biso   1.000  O
  O7       1.0000 0.53310  0.59410  0.05340  Biso   1.000  O
  O8       1.0000 0.46690  0.09410  0.44660  Biso   1.000  O
  O9       1.0000 0.64740  0.34990  0.68500  Biso   1.000  O
  O10      1.0000 0.35260  0.84990  0.81500  Biso   1.000  O
  O11      1.0000 0.35260  0.65010  0.31500  Biso   1.000  O
  O12      1.0000 0.64740  0.15010  0.18500  Biso   1.000  O
  O13      1.0000 0.75590  0.56040  0.73290  Biso   1.000  O
  O14      1.0000 0.24410  0.06040  0.76710  Biso   1.000  O
  O15      1.0000 0.24410  0.43960  0.26710  Biso   1.000  O
  O16      1.0000 0.75590  0.93960  0.23290  Biso   1.000  O
  O17      1.0000 0.95750  0.69800  0.79870  Biso   1.000  O
  O18      1.0000 0.04250  0.19800  0.70130  Biso   1.000  O
  O19      1.0000 0.04250  0.30200  0.20130  Biso   1.000  O
  O20      1.0000 0.95750  0.80200  0.29870  Biso   1.000  O
  O21      1.0000 0.11370  0.80850  0.84120  Biso   1.000  O
  O22      1.0000 0.88630  0.30850  0.65880  Biso   1.000  O
  O23      1.0000 0.88630  0.19150  0.15880  Biso   1.000  O
  O24      1.0000 0.11370  0.69150  0.34120  Biso   1.000  O
  O25      1.0000 0.93190  0.80290  0.07500  Biso   1.000  O
  O26      1.0000 0.06810  0.30290  0.42500  Biso   1.000  O
  O27      1.0000 0.06810  0.19710  0.92500  Biso   1.000  O
  O28      1.0000 0.93190  0.69710  0.57500  Biso   1.000  O
  O29      1.0000 0.76770  0.70280  0.04510  Biso   1.000  O
  O30      1.0000 0.23230  0.20280  0.45490  Biso   1.000  O
  O31      1.0000 0.23230  0.29720  0.95490  Biso   1.000  O
  O32      1.0000 0.76770  0.79720  0.54510  Biso   1.000  O
  O33      1.0000 0.74630  0.97460  0.79200  Biso   1.000  O
  O34      1.0000 0.25370  0.47460  0.70800  Biso   1.000  O
  O35      1.0000 0.25370  0.02540  0.20800  Biso   1.000  O
  O36      1.0000 0.74630  0.52540  0.29200  Biso   1.000  O
  H9       1.0000 0.72520  0.85650  0.79170  Biso   1.000  H
  H10      1.0000 0.27480  0.35650  0.70830  Biso   1.000  H
  H11      1.0000 0.27480  0.14350  0.20830  Biso   1.000  H
  H12      1.0000 0.72520  0.64350  0.29170  Biso   1.000  H
  H13      1.0000 0.72650  0.02720  0.82190  Biso   1.000  H
  H14      1.0000 0.27350  0.52720  0.67810  Biso   1.000  H
  H15      1.0000 0.27350  0.97280  0.17810  Biso   1.000  H
  H16      1.0000 0.72650  0.47280  0.32190  Biso   1.000  H
  O37      1.0000 0.58130  0.88620  0.87410  Biso   1.000  O
  O38      1.0000 0.41870  0.38620  0.62590  Biso   1.000  O
  O39      1.0000 0.41870  0.11380  0.12590  Biso   1.000  O
  O40      1.0000 0.58130  0.61380  0.37410  Biso   1.000  O
  H17      1.0000 0.55190  0.78880  0.85650  Biso   1.000  H
  H18      1.0000 0.44810  0.28880  0.64350  Biso   1.000  H
  H19      1.0000 0.44810  0.21120  0.14350  Biso   1.000  H
  H20      1.0000 0.55190  0.71120  0.35650  Biso   1.000  H
  H21      1.0000 0.53010  0.95730  0.88460  Biso   1.000  H
  H22      1.0000 0.46990  0.45730  0.61540  Biso   1.000  H
  H23      1.0000 0.46990  0.04270  0.11540  Biso   1.000  H
  H24      1.0000 0.53010  0.54270  0.38460  Biso   1.000  H
  O41      1.0000 0.68960  0.34300  0.98650  Biso   1.000  O
  O42      1.0000 0.31040  0.84300  0.51350  Biso   1.000  O
  O43      1.0000 0.31040  0.65700  0.01350  Biso   1.000  O
  O44      1.0000 0.68960  0.15700  0.48650  Biso   1.000  O
  O45      1.0000 0.74570  0.12710  0.06350  Biso   1.000  O
  O46      1.0000 0.25430  0.62710  0.43650  Biso   1.000  O
  O47      1.0000 0.25430  0.87290  0.93650  Biso   1.000  O
  O48      1.0000 0.74570  0.37290  0.56350  Biso   1.000  O
  O49      1.0000 0.65370  0.00020  0.97830  Biso   1.000  O
  O50      1.0000 0.34630  0.50020  0.52170  Biso   1.000  O
  O51      1.0000 0.34630  0.99980  0.02170  Biso   1.000  O
  O52      1.0000 0.65370  0.49980  0.47830  Biso   1.000  O
  O53      1.0000 0.55530  0.19770  0.04150  Biso   1.000  O
  O54      1.0000 0.44470  0.69770  0.45850  Biso   1.000  O
  O55      1.0000 0.44470  0.80230  0.95850  Biso   1.000  O
  O56      1.0000 0.55530  0.30230  0.54150  Biso   1.000  O
  O57      1.0000 0.96010  0.80650  0.18730  Biso   1.000  O
  O58      1.0000 0.03990  0.30650  0.31270  Biso   1.000  O
  O59      1.0000 0.03990  0.19350  0.81270  Biso   1.000  O
  O60      1.0000 0.96010  0.69350  0.68730  Biso   1.000  O
  H25      1.0000 0.02860  0.81480  0.18450  Biso   1.000  H
  H26      1.0000 0.97140  0.31480  0.31550  Biso   1.000  H
  H27      1.0000 0.97140  0.18520  0.81550  Biso   1.000  H
  H28      1.0000 0.02860  0.68520  0.68450  Biso   1.000  H
  H29      1.0000 0.95110  0.75650  0.21930  Biso   1.000  H
  H30      1.0000 0.04890  0.25650  0.28070  Biso   1.000  H
  H31      1.0000 0.04890  0.24350  0.78070  Biso   1.000  H
  H32      1.0000 0.95110  0.74350  0.71930  Biso   1.000  H
  O61      1.0000 0.76470  0.56690  0.16810  Biso   1.000  O
  O62      1.0000 0.23530  0.06690  0.33190  Biso   1.000  O
  O63      1.0000 0.23530  0.43310  0.83190  Biso   1.000  O
  O64      1.0000 0.76470  0.93310  0.66810  Biso   1.000  O
  H33      1.0000 0.78950  0.46040  0.15620  Biso   1.000  H
  H34      1.0000 0.21050  0.96040  0.34380  Biso   1.000  H
  H35      1.0000 0.21050  0.53960  0.84380  Biso   1.000  H
  H36      1.0000 0.78950  0.03960  0.65620  Biso   1.000  H
  H37      1.0000 0.71900  0.53920  0.19170  Biso   1.000  H
  H38      1.0000 0.28100  0.03920  0.30830  Biso   1.000  H
  H39      1.0000 0.28100  0.46080  0.80830  Biso   1.000  H
  H40      1.0000 0.71900  0.96080  0.69170  Biso   1.000  H
  O65      1.0000 0.83970  0.20180  0.88380  Biso   1.000  O
  O66      1.0000 0.16030  0.70180  0.61620  Biso   1.000  O
  O67      1.0000 0.16030  0.79820  0.11620  Biso   1.000  O
  O68      1.0000 0.83970  0.29820  0.38380  Biso   1.000  O
  H41      1.0000 0.80170  0.23480  0.91050  Biso   1.000  H
  H42      1.0000 0.19830  0.73480  0.58950  Biso   1.000  H
  H43      1.0000 0.19830  0.76520  0.08950  Biso   1.000  H
  H44      1.0000 0.80170  0.26520  0.41050  Biso   1.000  H
  H45      1.0000 0.90670  0.21880  0.89510  Biso   1.000  H
  H46      1.0000 0.09330  0.71880  0.60490  Biso   1.000  H
  H47      1.0000 0.09330  0.78120  0.10490  Biso   1.000  H
  H48      1.0000 0.90670  0.28120  0.39510  Biso   1.000  H
  S1       1.0000 0.65980  0.16580  0.01779  Biso   1.000  S
  S2       1.0000 0.34020  0.66580  0.48221  Biso   1.000  S
  S3       1.0000 0.34020  0.83420  0.98221  Biso   1.000  S
  S4       1.0000 0.65980  0.33420  0.51779  Biso   1.000  S
