data_image0
_cell_length_a       12.2024
_cell_length_b       6.7802
_cell_length_c       23.664
_cell_angle_alpha    90
_cell_angle_beta     94.75
_cell_angle_gamma    90

_symmetry_space_group_name_H-M    "P 1"
_symmetry_int_tables_number       1

loop_
  _symmetry_equiv_pos_as_xyz
  'x, y, z'

loop_
  _atom_site_label
  _atom_site_occupancy
  _atom_site_fract_x
  _atom_site_fract_y
  _atom_site_fract_z
  _atom_site_thermal_displace_type
  _atom_site_B_iso_or_equiv
  _atom_site_type_symbol
  Cu1      1.0000 0.80021  0.65501  0.81108  Biso   1.000  Cu
  Cu2      1.0000 0.19979  0.15501  0.68892  Biso   1.000  Cu
  Cu3      1.0000 0.19979  0.34499  0.18892  Biso   1.000  Cu
  Cu4      1.0000 0.80021  0.84499  0.31108  Biso   1.000  Cu
  Dy1      1.0000 0.62006  0.65897  0.96727  Biso   1.000  Dy
  Dy2      1.0000 0.37994  0.15897  0.53273  Biso   1.000  Dy
  Dy3      1.0000 0.37994  0.34103  0.03273  Biso   1.000  Dy
  Dy4      1.0000 0.62006  0.84103  0.46727  Biso   1.000  Dy
  Dy5      1.0000 0.78942  0.89945  0.13457  Biso   1.000  Dy
  Dy6      1.0000 0.21058  0.39945  0.36543  Biso   1.000  Dy
  Dy7      1.0000 0.21058  0.10055  0.86543  Biso   1.000  Dy
  Dy8      1.0000 0.78942  0.60055  0.63457  Biso   1.000  Dy
  C1       1.0000 0.45680  0.31200  0.89950  Biso   1.000  C
  C2       1.0000 0.54320  0.81200  0.60050  Biso   1.000  C
  C3       1.0000 0.54320  0.68800  0.10050  Biso   1.000  C
  C4       1.0000 0.45680  0.18800  0.39950  Biso   1.000  C
  C5       1.0000 0.53000  0.37470  0.85660  Biso   1.000  C
  C6       1.0000 0.47000  0.87470  0.64340  Biso   1.000  C
  C7       1.0000 0.47000  0.62530  0.14340  Biso   1.000  C
  C8       1.0000 0.53000  0.12530  0.35660  Biso   1.000  C
  C9       1.0000 0.53130  0.31840  0.80000  Biso   1.000  C
  C10      1.0000 0.46870  0.81840  0.70000  Biso   1.000  C
  C11      1.0000 0.46870  0.68160  0.20000  Biso   1.000  C
  C12      1.0000 0.53130  0.18160  0.30000  Biso   1.000  C
  H1       1.0000 0.48400  0.23260  0.77930  Biso   1.000  H
  H2       1.0000 0.51600  0.73260  0.72070  Biso   1.000  H
  H3       1.0000 0.51600  0.76740  0.22070  Biso   1.000  H
  H4       1.0000 0.48400  0.26740  0.27930  Biso   1.000  H
  C13      1.0000 0.62010  0.42070  0.78220  Biso   1.000  C
  C14      1.0000 0.37990  0.92070  0.71780  Biso   1.000  C
  C15      1.0000 0.37990  0.57930  0.21780  Biso   1.000  C
  C16      1.0000 0.62010  0.07930  0.28220  Biso   1.000  C
  C17      1.0000 0.67510  0.43930  0.72910  Biso   1.000  C
  C18      1.0000 0.32490  0.93930  0.77090  Biso   1.000  C
  C19      1.0000 0.32490  0.56070  0.27090  Biso   1.000  C
  C20      1.0000 0.67510  0.06070  0.22910  Biso   1.000  C
  C21      1.0000 0.01800  0.75370  0.84220  Biso   1.000  C
  C22      1.0000 0.98200  0.25370  0.65780  Biso   1.000  C
  C23      1.0000 0.98200  0.24630  0.15780  Biso   1.000  C
  C24      1.0000 0.01800  0.74630  0.34220  Biso   1.000  C
  C25      1.0000 0.96270  0.73830  0.89540  Biso   1.000  C
  C26      1.0000 0.03730  0.23830  0.60460  Biso   1.000  C
  C27      1.0000 0.03730  0.26170  0.10460  Biso   1.000  C
  C28      1.0000 0.96270  0.76170  0.39540  Biso   1.000  C
  C29      1.0000 0.99190  0.75790  0.95330  Biso   1.000  C
  C30      1.0000 0.00810  0.25790  0.54670  Biso   1.000  C
  C31      1.0000 0.00810  0.24210  0.04670  Biso   1.000  C
  C32      1.0000 0.99190  0.74210  0.45330  Biso   1.000  C
  H5       1.0000 0.06090  0.78540  0.97130  Biso   1.000  H
  H6       1.0000 0.93910  0.28540  0.52870  Biso   1.000  H
  H7       1.0000 0.93910  0.21460  0.02870  Biso   1.000  H
  H8       1.0000 0.06090  0.71460  0.47130  Biso   1.000  H
  C33      1.0000 0.89520  0.72690  0.97730  Biso   1.000  C
  C34      1.0000 0.10480  0.22690  0.52270  Biso   1.000  C
  C35      1.0000 0.10480  0.27310  0.02270  Biso   1.000  C
  C36      1.0000 0.89520  0.77310  0.47730  Biso   1.000  C
  C37      1.0000 0.86420  0.74090  0.03540  Biso   1.000  C
  C38      1.0000 0.13580  0.24090  0.46460  Biso   1.000  C
  C39      1.0000 0.13580  0.25910  0.96460  Biso   1.000  C
  C40      1.0000 0.86420  0.75910  0.53540  Biso   1.000  C
  N1       1.0000 0.61180  0.49850  0.87140  Biso   1.000  N
  N2       1.0000 0.38820  0.99850  0.62860  Biso   1.000  N
  N3       1.0000 0.38820  0.50150  0.12860  Biso   1.000  N
  N4       1.0000 0.61180  0.00150  0.37140  Biso   1.000  N
  N5       1.0000 0.66560  0.52630  0.82570  Biso   1.000  N
  N6       1.0000 0.33440  0.02630  0.67430  Biso   1.000  N
  N7       1.0000 0.33440  0.47370  0.17430  Biso   1.000  N
  N8       1.0000 0.66560  0.97370  0.32570  Biso   1.000  N
  N9       1.0000 0.85360  0.69800  0.88790  Biso   1.000  N
  N10      1.0000 0.14640  0.19800  0.61210  Biso   1.000  N
  N11      1.0000 0.14640  0.30200  0.11210  Biso   1.000  N
  N12      1.0000 0.85360  0.80200  0.38790  Biso   1.000  N
  N13      1.0000 0.81000  0.69060  0.93760  Biso   1.000  N
  N14      1.0000 0.19000  0.19060  0.56240  Biso   1.000  N
  N15      1.0000 0.19000  0.30940  0.06240  Biso   1.000  N
  N16      1.0000 0.81000  0.80940  0.43760  Biso   1.000  N
  O1       1.0000 0.39180  0.17300  0.88760  Biso   1.000  O
  O2       1.0000 0.60820  0.67300  0.61240  Biso   1.000  O
  O3       1.0000 0.60820  0.82700  0.11240  Biso   1.000  O
  O4       1.0000 0.39180  0.32700  0.38760  Biso   1.000  O
  O5       1.0000 0.46650  0.40140  0.94700  Biso   1.000  O
  O6       1.0000 0.53350  0.90140  0.55300  Biso   1.000  O
  O7       1.0000 0.53350  0.59860  0.05300  Biso   1.000  O
  O8       1.0000 0.46650  0.09860  0.44700  Biso   1.000  O
  O9       1.0000 0.64820  0.35000  0.68510  Biso   1.000  O
  O10      1.0000 0.35180  0.85000  0.81490  Biso   1.000  O
  O11      1.0000 0.35180  0.65000  0.31490  Biso   1.000  O
  O12      1.0000 0.64820  0.15000  0.18510  Biso   1.000  O
  O13      1.0000 0.75570  0.56540  0.73250  Biso   1.000  O
  O14      1.0000 0.24430  0.06540  0.76750  Biso   1.000  O
  O15      1.0000 0.24430  0.43460  0.26750  Biso   1.000  O
  O16      1.0000 0.75570  0.93460  0.23250  Biso   1.000  O
  O17      1.0000 0.95740  0.70250  0.79800  Biso   1.000  O
  O18      1.0000 0.04260  0.20250  0.70200  Biso   1.000  O
  O19      1.0000 0.04260  0.29750  0.20200  Biso   1.000  O
  O20      1.0000 0.95740  0.79750  0.29800  Biso   1.000  O
  O21      1.0000 0.11190  0.81350  0.84050  Biso   1.000  O
  O22      1.0000 0.88810  0.31350  0.65950  Biso   1.000  O
  O23      1.0000 0.88810  0.18650  0.15950  Biso   1.000  O
  O24      1.0000 0.11190  0.68650  0.34050  Biso   1.000  O
  O25      1.0000 0.93020  0.80460  0.07460  Biso   1.000  O
  O26      1.0000 0.06980  0.30460  0.42540  Biso   1.000  O
  O27      1.0000 0.06980  0.19540  0.92540  Biso   1.000  O
  O28      1.0000 0.93020  0.69540  0.57460  Biso   1.000  O
  O29      1.0000 0.76610  0.70120  0.04500  Biso   1.000  O
  O30      1.0000 0.23390  0.20120  0.45500  Biso   1.000  O
  O31      1.0000 0.23390  0.29880  0.95500  Biso   1.000  O
  O32      1.0000 0.76610  0.79880  0.54500  Biso   1.000  O
  O33      1.0000 0.74770  0.98120  0.79170  Biso   1.000  O
  O34      1.0000 0.25230  0.48120  0.70830  Biso   1.000  O
  O35      1.0000 0.25230  0.01880  0.20830  Biso   1.000  O
  O36      1.0000 0.74770  0.51880  0.29170  Biso   1.000  O
  H9       1.0000 0.72670  0.86320  0.79130  Biso   1.000  H
  H10      1.0000 0.27330  0.36320  0.70870  Biso   1.000  H
  H11      1.0000 0.27330  0.13680  0.20870  Biso   1.000  H
  H12      1.0000 0.72670  0.63680  0.29130  Biso   1.000  H
  H13      1.0000 0.72790  0.03380  0.82150  Biso   1.000  H
  H14      1.0000 0.27210  0.53380  0.67850  Biso   1.000  H
  H15      1.0000 0.27210  0.96620  0.17850  Biso   1.000  H
  H16      1.0000 0.72790  0.46620  0.32150  Biso   1.000  H
  O37      1.0000 0.58510  0.89190  0.87420  Biso   1.000  O
  O38      1.0000 0.41490  0.39190  0.62580  Biso   1.000  O
  O39      1.0000 0.41490  0.10810  0.12580  Biso   1.000  O
  O40      1.0000 0.58510  0.60810  0.37420  Biso   1.000  O
  H17      1.0000 0.55580  0.79450  0.85660  Biso   1.000  H
  H18      1.0000 0.44420  0.29450  0.64340  Biso   1.000  H
  H19      1.0000 0.44420  0.20550  0.14340  Biso   1.000  H
  H20      1.0000 0.55580  0.70550  0.35660  Biso   1.000  H
  H21      1.0000 0.53390  0.96310  0.88470  Biso   1.000  H
  H22      1.0000 0.46610  0.46310  0.61530  Biso   1.000  H
  H23      1.0000 0.46610  0.03690  0.11530  Biso   1.000  H
  H24      1.0000 0.53390  0.53690  0.38470  Biso   1.000  H
  O41      1.0000 0.69020  0.33990  0.98620  Biso   1.000  O
  O42      1.0000 0.30980  0.83990  0.51380  Biso   1.000  O
  O43      1.0000 0.30980  0.66010  0.01380  Biso   1.000  O
  O44      1.0000 0.69020  0.16010  0.48620  Biso   1.000  O
  O45      1.0000 0.74660  0.12700  0.06410  Biso   1.000  O
  O46      1.0000 0.25340  0.62700  0.43590  Biso   1.000  O
  O47      1.0000 0.25340  0.87300  0.93590  Biso   1.000  O
  O48      1.0000 0.74660  0.37300  0.56410  Biso   1.000  O
  O49      1.0000 0.65170  0.99820  0.97900  Biso   1.000  O
  O50      1.0000 0.34830  0.49820  0.52100  Biso   1.000  O
  O51      1.0000 0.34830  0.00180  0.02100  Biso   1.000  O
  O52      1.0000 0.65170  0.50180  0.47900  Biso   1.000  O
  O53      1.0000 0.55520  0.19580  0.04300  Biso   1.000  O
  O54      1.0000 0.44480  0.69580  0.45700  Biso   1.000  O
  O55      1.0000 0.44480  0.80420  0.95700  Biso   1.000  O
  O56      1.0000 0.55520  0.30420  0.54300  Biso   1.000  O
  O57      1.0000 0.96100  0.79960  0.18680  Biso   1.000  O
  O58      1.0000 0.03900  0.29960  0.31320  Biso   1.000  O
  O59      1.0000 0.03900  0.20040  0.81320  Biso   1.000  O
  O60      1.0000 0.96100  0.70040  0.68680  Biso   1.000  O
  H25      1.0000 0.02940  0.80790  0.18400  Biso   1.000  H
  H26      1.0000 0.97060  0.30790  0.31600  Biso   1.000  H
  H27      1.0000 0.97060  0.19210  0.81600  Biso   1.000  H
  H28      1.0000 0.02940  0.69210  0.68400  Biso   1.000  H
  H29      1.0000 0.95200  0.74950  0.21880  Biso   1.000  H
  H30      1.0000 0.04800  0.24950  0.28120  Biso   1.000  H
  H31      1.0000 0.04800  0.25050  0.78120  Biso   1.000  H
  H32      1.0000 0.95200  0.75050  0.71880  Biso   1.000  H
  O61      1.0000 0.76410  0.56470  0.16720  Biso   1.000  O
  O62      1.0000 0.23590  0.06470  0.33280  Biso   1.000  O
  O63      1.0000 0.23590  0.43530  0.83280  Biso   1.000  O
  O64      1.0000 0.76410  0.93530  0.66720  Biso   1.000  O
  H33      1.0000 0.78890  0.45810  0.15530  Biso   1.000  H
  H34      1.0000 0.21110  0.95810  0.34470  Biso   1.000  H
  H35      1.0000 0.21110  0.54190  0.84470  Biso   1.000  H
  H36      1.0000 0.78890  0.04190  0.65530  Biso   1.000  H
  H37      1.0000 0.71840  0.53690  0.19090  Biso   1.000  H
  H38      1.0000 0.28160  0.03690  0.30910  Biso   1.000  H
  H39      1.0000 0.28160  0.46310  0.80910  Biso   1.000  H
  H40      1.0000 0.71840  0.96310  0.69090  Biso   1.000  H
  O65      1.0000 0.84160  0.20730  0.88470  Biso   1.000  O
  O66      1.0000 0.15840  0.70730  0.61530  Biso   1.000  O
  O67      1.0000 0.15840  0.79270  0.11530  Biso   1.000  O
  O68      1.0000 0.84160  0.29270  0.38470  Biso   1.000  O
  H41      1.0000 0.80360  0.24040  0.91140  Biso   1.000  H
  H42      1.0000 0.19640  0.74040  0.58860  Biso   1.000  H
  H43      1.0000 0.19640  0.75960  0.08860  Biso   1.000  H
  H44      1.0000 0.80360  0.25960  0.41140  Biso   1.000  H
  H45      1.0000 0.90860  0.22440  0.89610  Biso   1.000  H
  H46      1.0000 0.09140  0.72440  0.60390  Biso   1.000  H
  H47      1.0000 0.09140  0.77560  0.10390  Biso   1.000  H
  H48      1.0000 0.90860  0.27560  0.39610  Biso   1.000  H
  S1       1.0000 0.65896  0.16640  0.01840  Biso   1.000  S
  S2       1.0000 0.34104  0.66640  0.48160  Biso   1.000  S
  S3       1.0000 0.34104  0.83360  0.98160  Biso   1.000  S
  S4       1.0000 0.65896  0.33360  0.51840  Biso   1.000  S
