data_image0
_cell_length_a       8.697
_cell_length_b       13.039
_cell_length_c       12.418
_cell_angle_alpha    110.49
_cell_angle_beta     108.61
_cell_angle_gamma    63.65

_symmetry_space_group_name_H-M    "P 1"
_symmetry_int_tables_number       1

loop_
  _symmetry_equiv_pos_as_xyz
  'x, y, z'

loop_
  _atom_site_label
  _atom_site_occupancy
  _atom_site_fract_x
  _atom_site_fract_y
  _atom_site_fract_z
  _atom_site_thermal_displace_type
  _atom_site_B_iso_or_equiv
  _atom_site_type_symbol
  Cu1      1.0000 0.21610  0.06460  0.48920  Biso   1.000  Cu
  Cu2      1.0000 0.78390  0.93540  0.51080  Biso   1.000  Cu
  P1       1.0000 0.79490  0.21400  0.37960  Biso   1.000  P
  P2       1.0000 0.20510  0.78600  0.62040  Biso   1.000  P
  O1       1.0000 0.74600  0.27210  0.50750  Biso   1.000  O
  O2       1.0000 0.25400  0.72790  0.49250  Biso   1.000  O
  O3       1.0000 0.94000  0.09420  0.37560  Biso   1.000  O
  O4       1.0000 0.06000  0.90580  0.62440  Biso   1.000  O
  O5       1.0000 0.81600  0.30380  0.34600  Biso   1.000  O
  O6       1.0000 0.18400  0.69620  0.65400  Biso   1.000  O
  O7       1.0000 0.63200  0.18500  0.29550  Biso   1.000  O
  O8       1.0000 0.36800  0.81500  0.70450  Biso   1.000  O
  O9       1.0000 0.20500  0.22250  0.54990  Biso   1.000  O
  O10      1.0000 0.79500  0.77750  0.45010  Biso   1.000  O
  O11      1.0000 0.29300  0.89030  0.42400  Biso   1.000  O
  O12      1.0000 0.70700  0.10970  0.57600  Biso   1.000  O
  O13      1.0000 0.41200  0.73700  0.28500  Biso   1.000  O
  O14      1.0000 0.58800  0.26300  0.71500  Biso   1.000  O
  N1       1.0000 0.25000  0.47400  0.53400  Biso   1.000  N
  N2       1.0000 0.75000  0.52600  0.46600  Biso   1.000  N
  N3       1.0000 0.32100  0.04700  0.35700  Biso   1.000  N
  N4       1.0000 0.67900  0.95300  0.64300  Biso   1.000  N
  C1       1.0000 0.32800  0.43300  0.43900  Biso   1.000  C
  C2       1.0000 0.67200  0.56700  0.56100  Biso   1.000  C
  C3       1.0000 0.37200  0.31700  0.37800  Biso   1.000  C
  C4       1.0000 0.62800  0.68300  0.62200  Biso   1.000  C
  C5       1.0000 0.32800  0.24800  0.41200  Biso   1.000  C
  C6       1.0000 0.67200  0.75200  0.58800  Biso   1.000  C
  C7       1.0000 0.24700  0.28300  0.51000  Biso   1.000  C
  C8       1.0000 0.75300  0.71700  0.49000  Biso   1.000  C
  C9       1.0000 0.21200  0.40500  0.57200  Biso   1.000  C
  C10      1.0000 0.78800  0.59500  0.42800  Biso   1.000  C
  C11      1.0000 0.45900  0.28300  0.27700  Biso   1.000  C
  C12      1.0000 0.54100  0.71700  0.72300  Biso   1.000  C
  C13      1.0000 0.13200  0.46000  0.67600  Biso   1.000  C
  C14      1.0000 0.86800  0.54000  0.32400  Biso   1.000  C
  C15      1.0000 0.37000  0.12300  0.34600  Biso   1.000  C
  C16      1.0000 0.63000  0.87700  0.65400  Biso   1.000  C
  C17      1.0000 0.35500  0.84300  0.33000  Biso   1.000  C
  C18      1.0000 0.64500  0.15700  0.67000  Biso   1.000  C
  C19      1.0000 0.35400  0.93000  0.27300  Biso   1.000  C
  C20      1.0000 0.64600  0.07000  0.72700  Biso   1.000  C
  C21      1.0000 0.19800  0.94500  0.16700  Biso   1.000  C
  C22      1.0000 0.80200  0.05500  0.83300  Biso   1.000  C
  C23      1.0000 0.18100  0.02300  0.09800  Biso   1.000  C
  C24      1.0000 0.81900  0.97700  0.90200  Biso   1.000  C
  C25      1.0000 0.27300  0.98300  0.01200  Biso   1.000  C
  C26      1.0000 0.72700  0.01700  0.98800  Biso   1.000  C
  C27      1.0000 0.26300  0.05300  0.95200  Biso   1.000  C
  C28      1.0000 0.73700  0.94700  0.04800  Biso   1.000  C
  C29      1.0000 0.16500  0.17500  0.98500  Biso   1.000  C
  C30      1.0000 0.83500  0.82500  0.01500  Biso   1.000  C
  C31      1.0000 0.06600  0.21800  0.06900  Biso   1.000  C
  C32      1.0000 0.93400  0.78200  0.93100  Biso   1.000  C
  C33      1.0000 0.08000  0.14200  0.12500  Biso   1.000  C
  C34      1.0000 0.92000  0.85800  0.87500  Biso   1.000  C
  O15      1.0000 0.17200  0.04650  0.62810  Biso   1.000  O
  O16      1.0000 0.82800  0.95350  0.37190  Biso   1.000  O
  O17      1.0000 0.01700  0.70800  0.25300  Biso   1.000  O
  O18      1.0000 0.98300  0.29200  0.74700  Biso   1.000  O
  O19      1.0000 0.36500  0.63800  0.88500  Biso   1.000  O
  O20      1.0000 0.63500  0.36200  0.11500  Biso   1.000  O
  O21      1.0000 0.43100  0.32900  0.91200  Biso   1.000  O
  O22      1.0000 0.56900  0.67100  0.08800  Biso   1.000  O
  O23      1.0000 0.33300  0.55800  0.22300  Biso   1.000  O
  O24      1.0000 0.66700  0.44200  0.77700  Biso   1.000  O
  H1       1.0000 0.35640  0.49480  0.41620  Biso   1.000  H
  H2       1.0000 0.64360  0.50520  0.58380  Biso   1.000  H
  H3       1.0000 0.37500  0.25550  0.19380  Biso   1.000  H
  H4       1.0000 0.62500  0.74450  0.80620  Biso   1.000  H
  H5       1.0000 0.47430  0.35890  0.26850  Biso   1.000  H
  H6       1.0000 0.52570  0.64110  0.73150  Biso   1.000  H
  H7       1.0000 0.00440  0.45180  0.65120  Biso   1.000  H
  H8       1.0000 0.99560  0.54820  0.34880  Biso   1.000  H
  H9       1.0000 0.21830  0.40940  0.74270  Biso   1.000  H
  H10      1.0000 0.78170  0.59060  0.25730  Biso   1.000  H
  H11      1.0000 0.10580  0.55460  0.72570  Biso   1.000  H
  H12      1.0000 0.89420  0.44540  0.27430  Biso   1.000  H
  H13      1.0000 0.45180  0.09020  0.27860  Biso   1.000  H
  H14      1.0000 0.54820  0.90980  0.72140  Biso   1.000  H
  H15      1.0000 0.47380  0.89890  0.24080  Biso   1.000  H
  H16      1.0000 0.52620  0.10110  0.75920  Biso   1.000  H
  H17      1.0000 0.20890  0.85980  0.10810  Biso   1.000  H
  H18      1.0000 0.79110  0.14020  0.89190  Biso   1.000  H
  H19      1.0000 0.07840  0.98140  0.20020  Biso   1.000  H
  H20      1.0000 0.92160  0.01860  0.79980  Biso   1.000  H
  H21      1.0000 0.35620  0.88880  0.99080  Biso   1.000  H
  H22      1.0000 0.64380  0.11120  0.00920  Biso   1.000  H
  H23      1.0000 0.33830  0.01970  0.88000  Biso   1.000  H
  H24      1.0000 0.66170  0.98030  0.12000  Biso   1.000  H
  H25      1.0000 0.17580  0.23340  0.94320  Biso   1.000  H
  H26      1.0000 0.82420  0.76660  0.05680  Biso   1.000  H
  H27      1.0000 0.97050  0.31270  0.08100  Biso   1.000  H
  H28      1.0000 0.02950  0.68730  0.91900  Biso   1.000  H
  H29      1.0000 0.00520  0.17730  0.19380  Biso   1.000  H
  H30      1.0000 0.99480  0.82270  0.80620  Biso   1.000  H
