data_image0
_cell_length_a       9.9084
_cell_length_b       11.0461
_cell_length_c       12.9719
_cell_angle_alpha    65.659
_cell_angle_beta     84.796
_cell_angle_gamma    80.094

_symmetry_space_group_name_H-M    "P 1"
_symmetry_int_tables_number       1

loop_
  _symmetry_equiv_pos_as_xyz
  'x, y, z'

loop_
  _atom_site_label
  _atom_site_occupancy
  _atom_site_fract_x
  _atom_site_fract_y
  _atom_site_fract_z
  _atom_site_thermal_displace_type
  _atom_site_B_iso_or_equiv
  _atom_site_type_symbol
  C1       1.0000 0.93120  0.89500  0.68160  Biso   1.000  C
  C2       1.0000 0.06880  0.10500  0.31840  Biso   1.000  C
  C3       1.0000 0.44050  0.78590  0.94481  Biso   1.000  C
  C4       1.0000 0.55950  0.21410  0.05519  Biso   1.000  C
  C5       1.0000 0.79380  0.90980  0.66100  Biso   1.000  C
  C6       1.0000 0.20620  0.09020  0.33900  Biso   1.000  C
  C7       1.0000 0.56340  0.81880  0.07951  Biso   1.000  C
  C8       1.0000 0.43660  0.18120  0.92049  Biso   1.000  C
  C9       1.0000 0.69880  0.94630  0.72962  Biso   1.000  C
  C10      1.0000 0.30120  0.05370  0.27038  Biso   1.000  C
  C11      1.0000 0.83860  0.66600  0.11120  Biso   1.000  C
  C12      1.0000 0.16140  0.33400  0.88880  Biso   1.000  C
  C13      1.0000 0.85140  0.46420  0.07570  Biso   1.000  C
  C14      1.0000 0.14860  0.53580  0.92430  Biso   1.000  C
  C15      1.0000 0.74140  0.97170  0.81600  Biso   1.000  C
  C16      1.0000 0.25860  0.02830  0.18400  Biso   1.000  C
  C17      1.0000 0.88110  0.95700  0.83123  Biso   1.000  C
  C18      1.0000 0.11890  0.04300  0.16877  Biso   1.000  C
  C19      1.0000 0.65510  0.64040  0.00894  Biso   1.000  C
  C20      1.0000 0.34490  0.35960  0.99106  Biso   1.000  C
  C21      1.0000 0.94000  0.98030  0.92096  Biso   1.000  C
  C22      1.0000 0.06000  0.01970  0.07904  Biso   1.000  C
  C23      1.0000 0.55720  0.74640  0.01304  Biso   1.000  C
  C24      1.0000 0.44280  0.25360  0.98696  Biso   1.000  C
  C25      1.0000 0.78120  0.59330  0.06200  Biso   1.000  C
  C26      1.0000 0.21880  0.40670  0.93800  Biso   1.000  C
  C27      1.0000 0.86430  0.03560  0.98988  Biso   1.000  C
  C28      1.0000 0.13570  0.96440  0.01012  Biso   1.000  C
  C29      1.0000 0.70510  0.54940  0.86560  Biso   1.000  C
  C30      1.0000 0.29490  0.45060  0.13440  Biso   1.000  C
  H1       1.0000 0.73510  0.45330  0.89250  Biso   1.000  H
  H2       1.0000 0.26490  0.54670  0.10750  Biso   1.000  H
  H3       1.0000 0.78510  0.59420  0.85140  Biso   1.000  H
  H4       1.0000 0.21490  0.40580  0.14860  Biso   1.000  H
  C31      1.0000 0.62460  0.59910  0.76000  Biso   1.000  C
  C32      1.0000 0.37540  0.40090  0.24000  Biso   1.000  C
  H5       1.0000 0.68080  0.58050  0.70240  Biso   1.000  H
  H6       1.0000 0.31920  0.41950  0.29760  Biso   1.000  H
  H7       1.0000 0.59590  0.69420  0.73430  Biso   1.000  H
  H8       1.0000 0.40410  0.30580  0.26570  Biso   1.000  H
  H9       1.0000 0.54550  0.55430  0.77550  Biso   1.000  H
  H10      1.0000 0.45450  0.44570  0.22450  Biso   1.000  H
  C33      1.0000 0.30790  0.81310  0.61707  Biso   1.000  C
  C34      1.0000 0.69210  0.18690  0.38293  Biso   1.000  C
  C35      1.0000 0.51030  0.83260  0.49760  Biso   1.000  C
  C36      1.0000 0.48970  0.16740  0.50240  Biso   1.000  C
  C37      1.0000 0.52670  0.64930  0.39030  Biso   1.000  C
  C38      1.0000 0.47330  0.35070  0.60970  Biso   1.000  C
  C39      1.0000 0.31690  0.70340  0.28740  Biso   1.000  C
  C40      1.0000 0.68310  0.29660  0.71260  Biso   1.000  C
  C41      1.0000 0.31530  0.74460  0.45975  Biso   1.000  C
  C42      1.0000 0.68470  0.25540  0.54025  Biso   1.000  C
  C43      1.0000 0.38060  0.78910  0.52758  Biso   1.000  C
  C44      1.0000 0.61940  0.21090  0.47242  Biso   1.000  C
  C45      1.0000 0.38370  0.69840  0.38229  Biso   1.000  C
  C46      1.0000 0.61630  0.30160  0.61771  Biso   1.000  C
  C47      1.0000 0.09900  0.67010  0.45870  Biso   1.000  C
  C48      1.0000 0.90100  0.32990  0.54130  Biso   1.000  C
  H11      1.0000 0.15480  0.58390  0.47240  Biso   1.000  H
  H12      1.0000 0.84520  0.41610  0.52760  Biso   1.000  H
  H13      1.0000 0.06610  0.70830  0.38200  Biso   1.000  H
  H14      1.0000 0.93390  0.29170  0.61800  Biso   1.000  H
  C49      1.0000 0.98180  0.65310  0.54070  Biso   1.000  C
  C50      1.0000 0.01820  0.34690  0.45930  Biso   1.000  C
  H15      1.0000 0.92690  0.59380  0.53290  Biso   1.000  H
  H16      1.0000 0.07310  0.40620  0.46710  Biso   1.000  H
  H17      1.0000 0.92700  0.73890  0.52600  Biso   1.000  H
  H18      1.0000 0.07300  0.26110  0.47400  Biso   1.000  H
  H19      1.0000 0.01560  0.61550  0.61630  Biso   1.000  H
  H20      1.0000 0.98440  0.38450  0.38370  Biso   1.000  H
  N1       1.0000 0.34368  0.82250  0.89130  Biso   1.000  N
  N2       1.0000 0.65632  0.17750  0.10870  Biso   1.000  N
  N3       1.0000 0.97546  0.91805  0.76505  Biso   1.000  N
  N4       1.0000 0.02454  0.08195  0.23495  Biso   1.000  N
  N5       1.0000 0.07637  0.94533  0.93142  Biso   1.000  N
  N6       1.0000 0.92363  0.05467  0.06858  Biso   1.000  N
  N7       1.0000 0.56426  0.88250  0.13072  Biso   1.000  N
  N8       1.0000 0.43574  0.11750  0.86928  Biso   1.000  N
  N9       1.0000 0.88657  0.72600  0.14920  Biso   1.000  N
  N10      1.0000 0.11343  0.27400  0.85080  Biso   1.000  N
  N11      1.0000 0.90300  0.35880  0.08608  Biso   1.000  N
  N12      1.0000 0.09700  0.64120  0.91392  Biso   1.000  N
  N13      1.0000 0.24962  0.83370  0.68962  Biso   1.000  N
  N14      1.0000 0.75038  0.16630  0.31038  Biso   1.000  N
  N15      1.0000 0.61388  0.87060  0.47028  Biso   1.000  N
  N16      1.0000 0.38612  0.12940  0.52972  Biso   1.000  N
  N17      1.0000 0.64050  0.60650  0.39788  Biso   1.000  N
  N18      1.0000 0.35950  0.39350  0.60212  Biso   1.000  N
  N19      1.0000 0.26540  0.71120  0.20878  Biso   1.000  N
  N20      1.0000 0.73460  0.28880  0.79122  Biso   1.000  N
  O1       1.0000 0.61388  0.58012  0.94833  Biso   1.000  O
  O2       1.0000 0.38612  0.41988  0.05167  Biso   1.000  O
  O3       1.0000 0.18420  0.10670  0.71141  Biso   1.000  O
  O4       1.0000 0.81580  0.89330  0.28859  Biso   1.000  O
  O5       1.0000 0.17906  0.75976  0.47422  Biso   1.000  O
  O6       1.0000 0.82094  0.24024  0.52578  Biso   1.000  O
  Cu1      1.0000 0.16849  0.88411  0.81296  Biso   1.000  Cu
  Cu2      1.0000 0.83151  0.11589  0.18704  Biso   1.000  Cu
  H21      1.0000 0.99500  0.87400  0.63560  Biso   1.000  H
  H22      1.0000 0.00500  0.12600  0.36440  Biso   1.000  H
  H23      1.0000 0.76800  0.89400  0.60280  Biso   1.000  H
  H24      1.0000 0.23200  0.10600  0.39720  Biso   1.000  H
  H25      1.0000 0.60390  0.95350  0.71930  Biso   1.000  H
  H26      1.0000 0.39610  0.04650  0.28070  Biso   1.000  H
  H27      1.0000 0.67700  0.00200  0.86040  Biso   1.000  H
  H28      1.0000 0.32300  0.99800  0.13960  Biso   1.000  H
  H29      1.0000 0.18100  0.15000  0.73900  Biso   1.000  H
  H30      1.0000 0.81900  0.85000  0.26100  Biso   1.000  H
  H31      1.0000 0.24400  0.12200  0.66200  Biso   1.000  H
  H32      1.0000 0.75600  0.87800  0.33800  Biso   1.000  H
  H33      1.0000 0.76600  0.06100  0.98480  Biso   1.000  H
  H34      1.0000 0.23400  0.93900  0.01520  Biso   1.000  H
