data_image0
_cell_length_a       28.255
_cell_length_b       7.764
_cell_length_c       18.6
_cell_angle_alpha    90
_cell_angle_beta     125.57
_cell_angle_gamma    90

_symmetry_space_group_name_H-M    "P 1"
_symmetry_int_tables_number       1

loop_
  _symmetry_equiv_pos_as_xyz
  'x, y, z'

loop_
  _atom_site_label
  _atom_site_occupancy
  _atom_site_fract_x
  _atom_site_fract_y
  _atom_site_fract_z
  _atom_site_thermal_displace_type
  _atom_site_B_iso_or_equiv
  _atom_site_type_symbol
  Cu1      1.0000 0.25000  0.25000  0.50000  Biso   1.000  Cu
  Cu2      1.0000 0.75000  0.25000  0.00000  Biso   1.000  Cu
  Cu3      1.0000 0.75000  0.75000  0.50000  Biso   1.000  Cu
  Cu4      1.0000 0.25000  0.75000  0.00000  Biso   1.000  Cu
  P1       1.0000 0.11559  0.19983  0.36668  Biso   1.000  P
  P2       1.0000 0.88441  0.19983  0.13332  Biso   1.000  P
  P3       1.0000 0.61559  0.69983  0.36668  Biso   1.000  P
  P4       1.0000 0.38441  0.69983  0.13332  Biso   1.000  P
  P5       1.0000 0.88441  0.80017  0.63332  Biso   1.000  P
  P6       1.0000 0.11559  0.80017  0.86668  Biso   1.000  P
  P7       1.0000 0.38441  0.30017  0.63332  Biso   1.000  P
  P8       1.0000 0.61559  0.30017  0.86668  Biso   1.000  P
  S1       1.0000 0.12961  0.41714  0.49844  Biso   1.000  S
  S2       1.0000 0.87039  0.41714  0.00156  Biso   1.000  S
  S3       1.0000 0.62961  0.91714  0.49844  Biso   1.000  S
  S4       1.0000 0.37039  0.91714  0.00156  Biso   1.000  S
  S5       1.0000 0.87039  0.58286  0.50156  Biso   1.000  S
  S6       1.0000 0.12961  0.58286  0.99844  Biso   1.000  S
  S7       1.0000 0.37039  0.08286  0.50156  Biso   1.000  S
  S8       1.0000 0.62961  0.08286  0.99844  Biso   1.000  S
  N1       1.0000 0.10138  0.36660  0.40058  Biso   1.000  N
  N2       1.0000 0.89862  0.36660  0.09942  Biso   1.000  N
  N3       1.0000 0.60138  0.86660  0.40058  Biso   1.000  N
  N4       1.0000 0.39862  0.86660  0.09942  Biso   1.000  N
  N5       1.0000 0.89862  0.63340  0.59942  Biso   1.000  N
  N6       1.0000 0.10138  0.63340  0.90058  Biso   1.000  N
  N7       1.0000 0.39862  0.13340  0.59942  Biso   1.000  N
  N8       1.0000 0.60138  0.13340  0.90058  Biso   1.000  N
  N9       1.0000 0.22968  0.41965  0.40119  Biso   1.000  N
  N10      1.0000 0.77032  0.41965  0.09881  Biso   1.000  N
  N11      1.0000 0.72968  0.91965  0.40119  Biso   1.000  N
  N12      1.0000 0.27032  0.91965  0.09881  Biso   1.000  N
  N13      1.0000 0.77032  0.58035  0.59881  Biso   1.000  N
  N14      1.0000 0.22968  0.58035  0.90119  Biso   1.000  N
  N15      1.0000 0.27032  0.08035  0.59881  Biso   1.000  N
  N16      1.0000 0.72968  0.08035  0.90119  Biso   1.000  N
  O1       1.0000 0.11185  0.58880  0.50226  Biso   1.000  O
  O2       1.0000 0.88815  0.58880  0.99774  Biso   1.000  O
  O3       1.0000 0.61185  0.08880  0.50226  Biso   1.000  O
  O4       1.0000 0.38815  0.08880  0.99774  Biso   1.000  O
  O5       1.0000 0.88815  0.41120  0.49774  Biso   1.000  O
  O6       1.0000 0.11185  0.41120  0.00226  Biso   1.000  O
  O7       1.0000 0.38815  0.91120  0.49774  Biso   1.000  O
  O8       1.0000 0.61185  0.91120  0.00226  Biso   1.000  O
  O9       1.0000 0.19200  0.38970  0.55282  Biso   1.000  O
  O10      1.0000 0.80800  0.38970  0.94718  Biso   1.000  O
  O11      1.0000 0.69200  0.88970  0.55282  Biso   1.000  O
  O12      1.0000 0.30800  0.88970  0.94718  Biso   1.000  O
  O13      1.0000 0.80800  0.61030  0.44718  Biso   1.000  O
  O14      1.0000 0.19200  0.61030  0.05282  Biso   1.000  O
  O15      1.0000 0.30800  0.11030  0.44718  Biso   1.000  O
  O16      1.0000 0.69200  0.11030  0.05282  Biso   1.000  O
  O17      1.0000 0.17642  0.13144  0.41838  Biso   1.000  O
  O18      1.0000 0.82358  0.13144  0.08162  Biso   1.000  O
  O19      1.0000 0.67642  0.63144  0.41838  Biso   1.000  O
  O20      1.0000 0.32358  0.63144  0.08162  Biso   1.000  O
  O21      1.0000 0.82358  0.86856  0.58162  Biso   1.000  O
  O22      1.0000 0.17642  0.86856  0.91838  Biso   1.000  O
  O23      1.0000 0.32358  0.36856  0.58162  Biso   1.000  O
  O24      1.0000 0.67642  0.36856  0.91838  Biso   1.000  O
  O25      1.0000 0.09848  0.24290  0.27151  Biso   1.000  O
  O26      1.0000 0.90152  0.24290  0.22849  Biso   1.000  O
  O27      1.0000 0.59848  0.74290  0.27151  Biso   1.000  O
  O28      1.0000 0.40152  0.74290  0.22849  Biso   1.000  O
  O29      1.0000 0.90152  0.75710  0.72849  Biso   1.000  O
  O30      1.0000 0.09848  0.75710  0.77151  Biso   1.000  O
  O31      1.0000 0.40152  0.25710  0.72849  Biso   1.000  O
  O32      1.0000 0.59848  0.25710  0.77151  Biso   1.000  O
  O33      1.0000 0.07332  0.05510  0.35602  Biso   1.000  O
  O34      1.0000 0.92668  0.05510  0.14398  Biso   1.000  O
  O35      1.0000 0.57332  0.55510  0.35602  Biso   1.000  O
  O36      1.0000 0.42668  0.55510  0.14398  Biso   1.000  O
  O37      1.0000 0.92668  0.94490  0.64398  Biso   1.000  O
  O38      1.0000 0.07332  0.94490  0.85602  Biso   1.000  O
  O39      1.0000 0.42668  0.44490  0.64398  Biso   1.000  O
  O40      1.0000 0.57332  0.44490  0.85602  Biso   1.000  O
  C1       1.0000 0.10151  0.27650  0.54035  Biso   1.000  C
  C2       1.0000 0.89849  0.27650  0.95965  Biso   1.000  C
  C3       1.0000 0.60151  0.77650  0.54035  Biso   1.000  C
  C4       1.0000 0.39849  0.77650  0.95965  Biso   1.000  C
  C5       1.0000 0.89849  0.72350  0.45965  Biso   1.000  C
  C6       1.0000 0.10151  0.72350  0.04035  Biso   1.000  C
  C7       1.0000 0.39849  0.22350  0.45965  Biso   1.000  C
  C8       1.0000 0.60151  0.22350  0.04035  Biso   1.000  C
  C9       1.0000 0.06062  0.33850  0.55178  Biso   1.000  C
  C10      1.0000 0.93938  0.33850  0.94822  Biso   1.000  C
  C11      1.0000 0.56062  0.83850  0.55178  Biso   1.000  C
  C12      1.0000 0.43938  0.83850  0.94822  Biso   1.000  C
  C13      1.0000 0.93938  0.66150  0.44822  Biso   1.000  C
  C14      1.0000 0.06062  0.66150  0.05178  Biso   1.000  C
  C15      1.0000 0.43938  0.16150  0.44822  Biso   1.000  C
  C16      1.0000 0.56062  0.16150  0.05178  Biso   1.000  C
  H1       1.0000 0.04810  0.45210  0.53760  Biso   1.000  H
  H2       1.0000 0.95190  0.45210  0.96240  Biso   1.000  H
  H3       1.0000 0.54810  0.95210  0.53760  Biso   1.000  H
  H4       1.0000 0.45190  0.95210  0.96240  Biso   1.000  H
  H5       1.0000 0.95190  0.54790  0.46240  Biso   1.000  H
  H6       1.0000 0.04810  0.54790  0.03760  Biso   1.000  H
  H7       1.0000 0.45190  0.04790  0.46240  Biso   1.000  H
  H8       1.0000 0.54810  0.04790  0.03760  Biso   1.000  H
  C17      1.0000 0.03831  0.23130  0.58440  Biso   1.000  C
  C18      1.0000 0.96169  0.23130  0.91560  Biso   1.000  C
  C19      1.0000 0.53831  0.73130  0.58440  Biso   1.000  C
  C20      1.0000 0.46169  0.73130  0.91560  Biso   1.000  C
  C21      1.0000 0.96169  0.76870  0.41560  Biso   1.000  C
  C22      1.0000 0.03831  0.76870  0.08440  Biso   1.000  C
  C23      1.0000 0.46169  0.26870  0.41560  Biso   1.000  C
  C24      1.0000 0.53831  0.26870  0.08440  Biso   1.000  C
  H9       1.0000 0.01030  0.27210  0.59150  Biso   1.000  H
  H10      1.0000 0.98970  0.27210  0.90850  Biso   1.000  H
  H11      1.0000 0.51030  0.77210  0.59150  Biso   1.000  H
  H12      1.0000 0.48970  0.77210  0.90850  Biso   1.000  H
  H13      1.0000 0.98970  0.72790  0.40850  Biso   1.000  H
  H14      1.0000 0.01030  0.72790  0.09150  Biso   1.000  H
  H15      1.0000 0.48970  0.22790  0.40850  Biso   1.000  H
  H16      1.0000 0.51030  0.22790  0.09150  Biso   1.000  H
  C25      1.0000 0.05736  0.06540  0.60630  Biso   1.000  C
  C26      1.0000 0.94264  0.06540  0.89370  Biso   1.000  C
  C27      1.0000 0.55736  0.56540  0.60630  Biso   1.000  C
  C28      1.0000 0.44264  0.56540  0.89370  Biso   1.000  C
  C29      1.0000 0.94264  0.93460  0.39370  Biso   1.000  C
  C30      1.0000 0.05736  0.93460  0.10630  Biso   1.000  C
  C31      1.0000 0.44264  0.43460  0.39370  Biso   1.000  C
  C32      1.0000 0.55736  0.43460  0.10630  Biso   1.000  C
  H17      1.0000 0.04250  0.99380  0.62880  Biso   1.000  H
  H18      1.0000 0.95750  0.99380  0.87120  Biso   1.000  H
  H19      1.0000 0.54250  0.49380  0.62880  Biso   1.000  H
  H20      1.0000 0.45750  0.49380  0.87120  Biso   1.000  H
  H21      1.0000 0.95750  0.00620  0.37120  Biso   1.000  H
  H22      1.0000 0.04250  0.00620  0.12880  Biso   1.000  H
  H23      1.0000 0.45750  0.50620  0.37120  Biso   1.000  H
  H24      1.0000 0.54250  0.50620  0.12880  Biso   1.000  H
  C33      1.0000 0.09874  0.00220  0.59520  Biso   1.000  C
  C34      1.0000 0.90126  0.00220  0.90480  Biso   1.000  C
  C35      1.0000 0.59874  0.50220  0.59520  Biso   1.000  C
  C36      1.0000 0.40126  0.50220  0.90480  Biso   1.000  C
  C37      1.0000 0.90126  0.99780  0.40480  Biso   1.000  C
  C38      1.0000 0.09874  0.99780  0.09520  Biso   1.000  C
  C39      1.0000 0.40126  0.49780  0.40480  Biso   1.000  C
  C40      1.0000 0.59874  0.49780  0.09520  Biso   1.000  C
  H25      1.0000 0.11150  0.88890  0.61030  Biso   1.000  H
  H26      1.0000 0.88850  0.88890  0.88970  Biso   1.000  H
  H27      1.0000 0.61150  0.38890  0.61030  Biso   1.000  H
  H28      1.0000 0.38850  0.38890  0.88970  Biso   1.000  H
  H29      1.0000 0.88850  0.11110  0.38970  Biso   1.000  H
  H30      1.0000 0.11150  0.11110  0.11030  Biso   1.000  H
  H31      1.0000 0.38850  0.61110  0.38970  Biso   1.000  H
  H32      1.0000 0.61150  0.61110  0.11030  Biso   1.000  H
  C41      1.0000 0.12079  0.10720  0.56213  Biso   1.000  C
  C42      1.0000 0.87921  0.10720  0.93787  Biso   1.000  C
  C43      1.0000 0.62079  0.60720  0.56213  Biso   1.000  C
  C44      1.0000 0.37921  0.60720  0.93787  Biso   1.000  C
  C45      1.0000 0.87921  0.89280  0.43787  Biso   1.000  C
  C46      1.0000 0.12079  0.89280  0.06213  Biso   1.000  C
  C47      1.0000 0.37921  0.39280  0.43787  Biso   1.000  C
  C48      1.0000 0.62079  0.39280  0.06213  Biso   1.000  C
  H33      1.0000 0.14840  0.06560  0.55430  Biso   1.000  H
  H34      1.0000 0.85160  0.06560  0.94570  Biso   1.000  H
  H35      1.0000 0.64840  0.56560  0.55430  Biso   1.000  H
  H36      1.0000 0.35160  0.56560  0.94570  Biso   1.000  H
  H37      1.0000 0.85160  0.93440  0.44570  Biso   1.000  H
  H38      1.0000 0.14840  0.93440  0.05430  Biso   1.000  H
  H39      1.0000 0.35160  0.43440  0.44570  Biso   1.000  H
  H40      1.0000 0.64840  0.43440  0.05430  Biso   1.000  H
  C49      1.0000 0.05335  0.35630  0.21239  Biso   1.000  C
  C50      1.0000 0.94665  0.35630  0.28761  Biso   1.000  C
  C51      1.0000 0.55335  0.85630  0.21239  Biso   1.000  C
  C52      1.0000 0.44665  0.85630  0.28761  Biso   1.000  C
  C53      1.0000 0.94665  0.64370  0.78761  Biso   1.000  C
  C54      1.0000 0.05335  0.64370  0.71239  Biso   1.000  C
  C55      1.0000 0.44665  0.14370  0.78761  Biso   1.000  C
  C56      1.0000 0.55335  0.14370  0.71239  Biso   1.000  C
  H41      1.0000 0.05220  0.36820  0.16010  Biso   1.000  H
  H42      1.0000 0.94780  0.36820  0.33990  Biso   1.000  H
  H43      1.0000 0.55220  0.86820  0.16010  Biso   1.000  H
  H44      1.0000 0.44780  0.86820  0.33990  Biso   1.000  H
  H45      1.0000 0.94780  0.63180  0.83990  Biso   1.000  H
  H46      1.0000 0.05220  0.63180  0.66010  Biso   1.000  H
  H47      1.0000 0.44780  0.13180  0.83990  Biso   1.000  H
  H48      1.0000 0.55220  0.13180  0.66010  Biso   1.000  H
  H49      1.0000 0.06010  0.46680  0.23990  Biso   1.000  H
  H50      1.0000 0.93990  0.46680  0.26010  Biso   1.000  H
  H51      1.0000 0.56010  0.96680  0.23990  Biso   1.000  H
  H52      1.0000 0.43990  0.96680  0.26010  Biso   1.000  H
  H53      1.0000 0.93990  0.53320  0.76010  Biso   1.000  H
  H54      1.0000 0.06010  0.53320  0.73990  Biso   1.000  H
  H55      1.0000 0.43990  0.03320  0.76010  Biso   1.000  H
  H56      1.0000 0.56010  0.03320  0.73990  Biso   1.000  H
  H57      1.0000 0.01690  0.31110  0.19680  Biso   1.000  H
  H58      1.0000 0.98310  0.31110  0.30320  Biso   1.000  H
  H59      1.0000 0.51690  0.81110  0.19680  Biso   1.000  H
  H60      1.0000 0.48310  0.81110  0.30320  Biso   1.000  H
  H61      1.0000 0.98310  0.68890  0.80320  Biso   1.000  H
  H62      1.0000 0.01690  0.68890  0.69680  Biso   1.000  H
  H63      1.0000 0.48310  0.18890  0.80320  Biso   1.000  H
  H64      1.0000 0.51690  0.18890  0.69680  Biso   1.000  H
  C57      1.0000 0.08300  0.87700  0.34640  Biso   1.000  C
  C58      1.0000 0.91700  0.87700  0.15360  Biso   1.000  C
  C59      1.0000 0.58300  0.37700  0.34640  Biso   1.000  C
  C60      1.0000 0.41700  0.37700  0.15360  Biso   1.000  C
  C61      1.0000 0.91700  0.12300  0.65360  Biso   1.000  C
  C62      1.0000 0.08300  0.12300  0.84640  Biso   1.000  C
  C63      1.0000 0.41700  0.62300  0.65360  Biso   1.000  C
  C64      1.0000 0.58300  0.62300  0.84640  Biso   1.000  C
  H65      1.0000 0.05100  0.80880  0.33500  Biso   1.000  H
  H66      1.0000 0.94900  0.80880  0.16500  Biso   1.000  H
  H67      1.0000 0.55100  0.30880  0.33500  Biso   1.000  H
  H68      1.0000 0.44900  0.30880  0.16500  Biso   1.000  H
  H69      1.0000 0.94900  0.19120  0.66500  Biso   1.000  H
  H70      1.0000 0.05100  0.19120  0.83500  Biso   1.000  H
  H71      1.0000 0.44900  0.69120  0.66500  Biso   1.000  H
  H72      1.0000 0.55100  0.69120  0.83500  Biso   1.000  H
  H73      1.0000 0.11830  0.83780  0.39970  Biso   1.000  H
  H74      1.0000 0.88170  0.83780  0.10030  Biso   1.000  H
  H75      1.0000 0.61830  0.33780  0.39970  Biso   1.000  H
  H76      1.0000 0.38170  0.33780  0.10030  Biso   1.000  H
  H77      1.0000 0.88170  0.16220  0.60030  Biso   1.000  H
  H78      1.0000 0.11830  0.16220  0.89970  Biso   1.000  H
  H79      1.0000 0.38170  0.66220  0.60030  Biso   1.000  H
  H80      1.0000 0.61830  0.66220  0.89970  Biso   1.000  H
  H81      1.0000 0.08620  0.86560  0.29790  Biso   1.000  H
  H82      1.0000 0.91380  0.86560  0.20210  Biso   1.000  H
  H83      1.0000 0.58620  0.36560  0.29790  Biso   1.000  H
  H84      1.0000 0.41380  0.36560  0.20210  Biso   1.000  H
  H85      1.0000 0.91380  0.13440  0.70210  Biso   1.000  H
  H86      1.0000 0.08620  0.13440  0.79790  Biso   1.000  H
  H87      1.0000 0.41380  0.63440  0.70210  Biso   1.000  H
  H88      1.0000 0.58620  0.63440  0.79790  Biso   1.000  H
  C65      1.0000 0.21594  0.34820  0.32562  Biso   1.000  C
  C66      1.0000 0.78406  0.34820  0.17438  Biso   1.000  C
  C67      1.0000 0.71594  0.84820  0.32562  Biso   1.000  C
  C68      1.0000 0.28406  0.84820  0.17438  Biso   1.000  C
  C69      1.0000 0.78406  0.65180  0.67438  Biso   1.000  C
  C70      1.0000 0.21594  0.65180  0.82562  Biso   1.000  C
  C71      1.0000 0.28406  0.15180  0.67438  Biso   1.000  C
  C72      1.0000 0.71594  0.15180  0.82562  Biso   1.000  C
  H89      1.0000 0.21360  0.22880  0.32060  Biso   1.000  H
  H90      1.0000 0.78640  0.22880  0.17940  Biso   1.000  H
  H91      1.0000 0.71360  0.72880  0.32060  Biso   1.000  H
  H92      1.0000 0.28640  0.72880  0.17940  Biso   1.000  H
  H93      1.0000 0.78640  0.77120  0.67940  Biso   1.000  H
  H94      1.0000 0.21360  0.77120  0.82060  Biso   1.000  H
  H95      1.0000 0.28640  0.27120  0.67940  Biso   1.000  H
  H96      1.0000 0.71360  0.27120  0.82060  Biso   1.000  H
  C73      1.0000 0.20503  0.44430  0.25460  Biso   1.000  C
  C74      1.0000 0.79497  0.44430  0.24540  Biso   1.000  C
  C75      1.0000 0.70503  0.94430  0.25460  Biso   1.000  C
  C76      1.0000 0.29497  0.94430  0.24540  Biso   1.000  C
  C77      1.0000 0.79497  0.55570  0.74540  Biso   1.000  C
  C78      1.0000 0.20503  0.55570  0.75460  Biso   1.000  C
  C79      1.0000 0.29497  0.05570  0.74540  Biso   1.000  C
  C80      1.0000 0.70503  0.05570  0.75460  Biso   1.000  C
  H97      1.0000 0.19500  0.39080  0.20280  Biso   1.000  H
  H98      1.0000 0.80500  0.39080  0.29720  Biso   1.000  H
  H99      1.0000 0.69500  0.89080  0.20280  Biso   1.000  H
  H100     1.0000 0.30500  0.89080  0.29720  Biso   1.000  H
  H101     1.0000 0.80500  0.60920  0.79720  Biso   1.000  H
  H102     1.0000 0.19500  0.60920  0.70280  Biso   1.000  H
  H103     1.0000 0.30500  0.10920  0.79720  Biso   1.000  H
  H104     1.0000 0.69500  0.10920  0.70280  Biso   1.000  H
  C81      1.0000 0.20933  0.61930  0.26255  Biso   1.000  C
  C82      1.0000 0.79067  0.61930  0.23745  Biso   1.000  C
  C83      1.0000 0.70933  0.11930  0.26255  Biso   1.000  C
  C84      1.0000 0.29067  0.11930  0.23745  Biso   1.000  C
  C85      1.0000 0.79067  0.38070  0.73745  Biso   1.000  C
  C86      1.0000 0.20933  0.38070  0.76255  Biso   1.000  C
  C87      1.0000 0.29067  0.88070  0.73745  Biso   1.000  C
  C88      1.0000 0.70933  0.88070  0.76255  Biso   1.000  C
  H105     1.0000 0.20310  0.68650  0.21640  Biso   1.000  H
  H106     1.0000 0.79690  0.68650  0.28360  Biso   1.000  H
  H107     1.0000 0.70310  0.18650  0.21640  Biso   1.000  H
  H108     1.0000 0.29690  0.18650  0.28360  Biso   1.000  H
  H109     1.0000 0.79690  0.31350  0.78360  Biso   1.000  H
  H110     1.0000 0.20310  0.31350  0.71640  Biso   1.000  H
  H111     1.0000 0.29690  0.81350  0.78360  Biso   1.000  H
  H112     1.0000 0.70310  0.81350  0.71640  Biso   1.000  H
  C89      1.0000 0.22283  0.69570  0.33880  Biso   1.000  C
  C90      1.0000 0.77717  0.69570  0.16120  Biso   1.000  C
  C91      1.0000 0.72283  0.19570  0.33880  Biso   1.000  C
  C92      1.0000 0.27717  0.19570  0.16120  Biso   1.000  C
  C93      1.0000 0.77717  0.30430  0.66120  Biso   1.000  C
  C94      1.0000 0.22283  0.30430  0.83880  Biso   1.000  C
  C95      1.0000 0.27717  0.80430  0.66120  Biso   1.000  C
  C96      1.0000 0.72283  0.80430  0.83880  Biso   1.000  C
  H113     1.0000 0.22560  0.81490  0.34450  Biso   1.000  H
  H114     1.0000 0.77440  0.81490  0.15550  Biso   1.000  H
  H115     1.0000 0.72560  0.31490  0.34450  Biso   1.000  H
  H116     1.0000 0.27440  0.31490  0.15550  Biso   1.000  H
  H117     1.0000 0.77440  0.18510  0.65550  Biso   1.000  H
  H118     1.0000 0.22560  0.18510  0.84450  Biso   1.000  H
  H119     1.0000 0.27440  0.68510  0.65550  Biso   1.000  H
  H120     1.0000 0.72560  0.68510  0.84450  Biso   1.000  H
  C97      1.0000 0.23244  0.59320  0.40811  Biso   1.000  C
  C98      1.0000 0.76756  0.59320  0.09189  Biso   1.000  C
  C99      1.0000 0.73244  0.09320  0.40811  Biso   1.000  C
  C100     1.0000 0.26756  0.09320  0.09189  Biso   1.000  C
  C101     1.0000 0.76756  0.40680  0.59189  Biso   1.000  C
  C102     1.0000 0.23244  0.40680  0.90811  Biso   1.000  C
  C103     1.0000 0.26756  0.90680  0.59189  Biso   1.000  C
  C104     1.0000 0.73244  0.90680  0.90811  Biso   1.000  C
  C105     1.0000 0.24470  0.66790  0.48958  Biso   1.000  C
  C106     1.0000 0.75530  0.66790  0.01042  Biso   1.000  C
  C107     1.0000 0.74470  0.16790  0.48958  Biso   1.000  C
  C108     1.0000 0.25530  0.16790  0.01042  Biso   1.000  C
  C109     1.0000 0.75530  0.33210  0.51042  Biso   1.000  C
  C110     1.0000 0.24470  0.33210  0.98958  Biso   1.000  C
  C111     1.0000 0.25530  0.83210  0.51042  Biso   1.000  C
  C112     1.0000 0.74470  0.83210  0.98958  Biso   1.000  C
  H121     1.0000 0.24500  0.59430  0.52930  Biso   1.000  H
  H122     1.0000 0.75500  0.59430  0.97070  Biso   1.000  H
  H123     1.0000 0.74500  0.09430  0.52930  Biso   1.000  H
  H124     1.0000 0.25500  0.09430  0.97070  Biso   1.000  H
  H125     1.0000 0.75500  0.40570  0.47070  Biso   1.000  H
  H126     1.0000 0.24500  0.40570  0.02930  Biso   1.000  H
  H127     1.0000 0.25500  0.90570  0.47070  Biso   1.000  H
  H128     1.0000 0.74500  0.90570  0.02930  Biso   1.000  H
