data_image0
_cell_length_a       9.8065
_cell_length_b       11.5724
_cell_length_c       15.232
_cell_angle_alpha    102.894
_cell_angle_beta     91.067
_cell_angle_gamma    106.558

_symmetry_space_group_name_H-M    "P 1"
_symmetry_int_tables_number       1

loop_
  _symmetry_equiv_pos_as_xyz
  'x, y, z'

loop_
  _atom_site_label
  _atom_site_occupancy
  _atom_site_fract_x
  _atom_site_fract_y
  _atom_site_fract_z
  _atom_site_thermal_displace_type
  _atom_site_B_iso_or_equiv
  _atom_site_type_symbol
  O1       1.0000 0.71260  0.69720  0.36493  Biso   1.000  O
  O2       1.0000 0.28740  0.30280  0.63507  Biso   1.000  O
  C1       1.0000 0.77280  0.61150  0.36022  Biso   1.000  C
  C2       1.0000 0.22720  0.38850  0.63978  Biso   1.000  C
  Cu1      1.0000 0.53438  0.70185  0.41159  Biso   1.000  Cu
  Cu2      1.0000 0.46562  0.29815  0.58841  Biso   1.000  Cu
  N1       1.0000 0.36240  0.72260  0.47188  Biso   1.000  N
  N2       1.0000 0.63760  0.27740  0.52812  Biso   1.000  N
  O3       1.0000 0.43130  0.56726  0.30940  Biso   1.000  O
  O4       1.0000 0.56870  0.43274  0.69060  Biso   1.000  O
  N3       1.0000 0.62750  0.85760  0.50583  Biso   1.000  N
  N4       1.0000 0.37250  0.14240  0.49417  Biso   1.000  N
  O5       1.0000 0.19590  0.62862  0.11236  Biso   1.000  O
  O6       1.0000 0.80410  0.37138  0.88764  Biso   1.000  O
  O7       1.0000 0.75050  0.53506  0.40764  Biso   1.000  O
  O8       1.0000 0.24950  0.46494  0.59236  Biso   1.000  O
  O9       1.0000 0.43090  0.72873  0.25472  Biso   1.000  O
  O10      1.0000 0.56910  0.27127  0.74528  Biso   1.000  O
  C3       1.0000 0.41140  0.61510  0.24455  Biso   1.000  C
  C4       1.0000 0.58860  0.38490  0.75545  Biso   1.000  C
  C5       1.0000 0.26580  0.53720  0.09123  Biso   1.000  C
  C6       1.0000 0.73420  0.46280  0.90877  Biso   1.000  C
  C7       1.0000 0.88170  0.61070  0.29216  Biso   1.000  C
  C8       1.0000 0.11830  0.38930  0.70784  Biso   1.000  C
  C9       1.0000 0.36680  0.52800  0.15288  Biso   1.000  C
  C10      1.0000 0.63320  0.47200  0.84712  Biso   1.000  C
  C11      1.0000 0.09200  0.61580  0.17249  Biso   1.000  C
  C12      1.0000 0.90800  0.38420  0.82751  Biso   1.000  C
  C13      1.0000 0.38650  0.82550  0.53967  Biso   1.000  C
  C14      1.0000 0.61350  0.17450  0.46033  Biso   1.000  C
  C15      1.0000 0.05100  0.51830  0.21469  Biso   1.000  C
  C16      1.0000 0.94900  0.48170  0.78531  Biso   1.000  C
  H1       1.0000 0.09320  0.45460  0.20290  Biso   1.000  H
  H2       1.0000 0.90680  0.54540  0.79710  Biso   1.000  H
  C17      1.0000 0.02740  0.71010  0.18854  Biso   1.000  C
  C18      1.0000 0.97260  0.28990  0.81146  Biso   1.000  C
  H3       1.0000 0.05530  0.77520  0.16000  Biso   1.000  H
  H4       1.0000 0.94470  0.22480  0.84000  Biso   1.000  H
  C19      1.0000 0.92150  0.70640  0.24728  Biso   1.000  C
  C20      1.0000 0.07850  0.29360  0.75272  Biso   1.000  C
  H5       1.0000 0.87630  0.76820  0.25700  Biso   1.000  H
  H6       1.0000 0.12370  0.23180  0.74300  Biso   1.000  H
  C21      1.0000 0.53700  0.90230  0.55936  Biso   1.000  C
  C22      1.0000 0.46300  0.09770  0.44064  Biso   1.000  C
  C23      1.0000 0.94660  0.51690  0.27450  Biso   1.000  C
  C24      1.0000 0.05340  0.48310  0.72550  Biso   1.000  C
  H7       1.0000 0.91940  0.45210  0.30340  Biso   1.000  H
  H8       1.0000 0.08060  0.54790  0.69660  Biso   1.000  H
  C25      1.0000 0.40050  0.35750  0.03989  Biso   1.000  C
  C26      1.0000 0.59950  0.64250  0.96011  Biso   1.000  C
  H9       1.0000 0.44600  0.29680  0.02230  Biso   1.000  H
  H10      1.0000 0.55400  0.70320  0.97770  Biso   1.000  H
  C27      1.0000 0.23350  0.46070  0.00588  Biso   1.000  C
  C28      1.0000 0.76650  0.53930  0.99412  Biso   1.000  C
  H11      1.0000 0.16660  0.46950  0.96580  Biso   1.000  H
  H12      1.0000 0.83340  0.53050  0.03420  Biso   1.000  H
  C29      1.0000 0.43300  0.43470  0.12625  Biso   1.000  C
  C30      1.0000 0.56700  0.56530  0.87375  Biso   1.000  C
  C31      1.0000 0.22930  0.64580  0.45083  Biso   1.000  C
  C32      1.0000 0.77070  0.35420  0.54917  Biso   1.000  C
  H13      1.0000 0.21270  0.57540  0.40360  Biso   1.000  H
  H14      1.0000 0.78730  0.42460  0.59640  Biso   1.000  H
  C33      1.0000 0.27670  0.85330  0.58756  Biso   1.000  C
  C34      1.0000 0.72330  0.14670  0.41244  Biso   1.000  C
  H15      1.0000 0.29450  0.92510  0.63350  Biso   1.000  H
  H16      1.0000 0.70550  0.07490  0.36650  Biso   1.000  H
  C35      1.0000 0.14030  0.77240  0.56590  Biso   1.000  C
  C36      1.0000 0.85970  0.22760  0.43410  Biso   1.000  C
  H17      1.0000 0.06540  0.78890  0.59780  Biso   1.000  H
  H18      1.0000 0.93460  0.21110  0.40220  Biso   1.000  H
  C37      1.0000 0.30150  0.37000  0.97989  Biso   1.000  C
  C38      1.0000 0.69850  0.63000  0.02011  Biso   1.000  C
  H19      1.0000 0.28030  0.31780  0.92220  Biso   1.000  H
  H20      1.0000 0.71970  0.68220  0.07780  Biso   1.000  H
  C39      1.0000 0.72860  0.07120  0.64160  Biso   1.000  C
  C40      1.0000 0.27140  0.92880  0.35840  Biso   1.000  C
  H21      1.0000 0.76240  0.14430  0.68640  Biso   1.000  H
  H22      1.0000 0.23760  0.85570  0.31360  Biso   1.000  H
  C41      1.0000 0.11560  0.66780  0.49720  Biso   1.000  C
  C42      1.0000 0.88440  0.33220  0.50280  Biso   1.000  C
  H23      1.0000 0.02420  0.61260  0.48200  Biso   1.000  H
  H24      1.0000 0.97580  0.38740  0.51800  Biso   1.000  H
  C43      1.0000 0.76710  0.91800  0.52120  Biso   1.000  C
  C44      1.0000 0.23290  0.08200  0.47880  Biso   1.000  C
  H25      1.0000 0.83000  0.88720  0.48480  Biso   1.000  H
  H26      1.0000 0.17000  0.11280  0.51520  Biso   1.000  H
  C45      1.0000 0.58460  0.00900  0.62722  Biso   1.000  C
  C46      1.0000 0.41540  0.99100  0.37278  Biso   1.000  C
  H27      1.0000 0.52030  0.03870  0.66300  Biso   1.000  H
  H28      1.0000 0.47970  0.96130  0.33700  Biso   1.000  H
  C47      1.0000 0.82150  0.02400  0.58890  Biso   1.000  C
  C48      1.0000 0.17850  0.97600  0.41110  Biso   1.000  C
  H29      1.0000 0.91930  0.06300  0.59890  Biso   1.000  H
  H30      1.0000 0.08070  0.93700  0.40110  Biso   1.000  H
  O11      1.0000 0.37870  0.39654  0.44977  Biso   1.000  O
  O12      1.0000 0.62130  0.60346  0.55023  Biso   1.000  O
  H31      1.0000 0.33680  0.43140  0.48820  Biso   1.000  H
  H32      1.0000 0.66320  0.56860  0.51180  Biso   1.000  H
  O13      1.0000 0.51690  0.07651  0.08752  Biso   1.000  O
  O14      1.0000 0.48310  0.92349  0.91248  Biso   1.000  O
  C49      1.0000 0.66330  0.09830  0.08385  Biso   1.000  C
  C50      1.0000 0.33670  0.90170  0.91615  Biso   1.000  C
  O15      1.0000 0.16270  0.32510  0.37467  Biso   1.000  O
  O16      1.0000 0.83730  0.67490  0.62533  Biso   1.000  O
  C51      1.0000 0.46920  0.13900  0.16270  Biso   1.000  C
  C52      1.0000 0.53080  0.86100  0.83730  Biso   1.000  C
  C53      1.0000 0.49950  0.28870  0.30350  Biso   1.000  C
  C54      1.0000 0.50050  0.71130  0.69650  Biso   1.000  C
  H33      1.0000 0.55900  0.34750  0.35100  Biso   1.000  H
  H34      1.0000 0.44100  0.65250  0.64900  Biso   1.000  H
  C55      1.0000 0.35370  0.26360  0.30454  Biso   1.000  C
  C56      1.0000 0.64630  0.73640  0.69546  Biso   1.000  C
  C57      1.0000 0.32220  0.11070  0.16323  Biso   1.000  C
  C58      1.0000 0.67780  0.88930  0.83677  Biso   1.000  C
  H35      1.0000 0.26270  0.05000  0.11670  Biso   1.000  H
  H36      1.0000 0.73730  0.95000  0.88330  Biso   1.000  H
  O17      1.0000 0.53210  0.87280  0.14508  Biso   1.000  O
  O18      1.0000 0.46790  0.12720  0.85492  Biso   1.000  O
  H37      1.0000 0.50330  0.82170  0.17530  Biso   1.000  H
  H38      1.0000 0.49670  0.17830  0.82470  Biso   1.000  H
  C59      1.0000 0.28740  0.33060  0.37849  Biso   1.000  C
  C60      1.0000 0.71260  0.66940  0.62151  Biso   1.000  C
  C61      1.0000 0.55900  0.22750  0.23256  Biso   1.000  C
  C62      1.0000 0.44100  0.77250  0.76744  Biso   1.000  C
  H39      1.0000 0.65760  0.24560  0.23190  Biso   1.000  H
  H40      1.0000 0.34240  0.75440  0.76810  Biso   1.000  H
  C63      1.0000 0.95340  0.14580  0.07120  Biso   1.000  C
  C64      1.0000 0.04660  0.85420  0.92880  Biso   1.000  C
  H41      1.0000 0.05120  0.16160  0.06690  Biso   1.000  H
  H42      1.0000 0.94880  0.83840  0.93310  Biso   1.000  H
  C65      1.0000 0.73430  0.02870  0.12026  Biso   1.000  C
  C66      1.0000 0.26570  0.97130  0.87974  Biso   1.000  C
  C67      1.0000 0.26510  0.17380  0.23399  Biso   1.000  C
  C68      1.0000 0.73490  0.82620  0.76601  Biso   1.000  C
  H43      1.0000 0.16650  0.15620  0.23450  Biso   1.000  H
  H44      1.0000 0.83350  0.84380  0.76550  Biso   1.000  H
  O19      1.0000 0.73370  0.91430  0.23026  Biso   1.000  O
  O20      1.0000 0.26630  0.08570  0.76974  Biso   1.000  O
  C69      1.0000 0.73540  0.18940  0.04213  Biso   1.000  C
  C70      1.0000 0.26460  0.81060  0.95787  Biso   1.000  C
  H45      1.0000 0.68610  0.23440  0.01790  Biso   1.000  H
  H46      1.0000 0.31390  0.76560  0.98210  Biso   1.000  H
  C71      1.0000 0.88050  0.21350  0.03640  Biso   1.000  C
  C72      1.0000 0.11950  0.78650  0.96360  Biso   1.000  C
  H47      1.0000 0.92920  0.27550  0.00890  Biso   1.000  H
  H48      1.0000 0.07080  0.72450  0.99110  Biso   1.000  H
  C73      1.0000 0.66670  0.93190  0.16980  Biso   1.000  C
  C74      1.0000 0.33330  0.06810  0.83020  Biso   1.000  C
  C75      1.0000 0.88100  0.05470  0.11260  Biso   1.000  C
  C76      1.0000 0.11900  0.94530  0.88740  Biso   1.000  C
  H49      1.0000 0.93100  0.00940  0.13590  Biso   1.000  H
  H50      1.0000 0.06900  0.99060  0.86410  Biso   1.000  H
