data_image0
_cell_length_a       8.2118
_cell_length_b       10.4158
_cell_length_c       21.484
_cell_angle_alpha    90
_cell_angle_beta     104.341
_cell_angle_gamma    90

_symmetry_space_group_name_H-M    "P 1"
_symmetry_int_tables_number       1

loop_
  _symmetry_equiv_pos_as_xyz
  'x, y, z'

loop_
  _atom_site_label
  _atom_site_occupancy
  _atom_site_fract_x
  _atom_site_fract_y
  _atom_site_fract_z
  _atom_site_thermal_displace_type
  _atom_site_B_iso_or_equiv
  _atom_site_type_symbol
  Cu1      1.0000 0.38380  0.03515  0.02844  Biso   1.000  Cu
  Cu2      1.0000 0.38380  0.46485  0.52844  Biso   1.000  Cu
  Cu3      1.0000 0.61620  0.96485  0.97156  Biso   1.000  Cu
  Cu4      1.0000 0.61620  0.53515  0.47156  Biso   1.000  Cu
  O1       1.0000 0.22850  0.97461  0.94900  Biso   1.000  O
  O2       1.0000 0.22850  0.52539  0.44900  Biso   1.000  O
  O3       1.0000 0.77150  0.02539  0.05100  Biso   1.000  O
  O4       1.0000 0.77150  0.47461  0.55100  Biso   1.000  O
  O5       1.0000 0.42800  0.91843  0.89916  Biso   1.000  O
  O6       1.0000 0.42800  0.58157  0.39916  Biso   1.000  O
  O7       1.0000 0.57200  0.08157  0.10084  Biso   1.000  O
  O8       1.0000 0.57200  0.41843  0.60084  Biso   1.000  O
  O9       1.0000 0.01570  0.76037  0.90694  Biso   1.000  O
  O10      1.0000 0.01570  0.73963  0.40694  Biso   1.000  O
  O11      1.0000 0.98430  0.23963  0.09306  Biso   1.000  O
  O12      1.0000 0.98430  0.26037  0.59306  Biso   1.000  O
  O13      1.0000 0.81940  0.89270  0.92718  Biso   1.000  O
  O14      1.0000 0.81940  0.60730  0.42718  Biso   1.000  O
  O15      1.0000 0.18060  0.10730  0.07282  Biso   1.000  O
  O16      1.0000 0.18060  0.39270  0.57282  Biso   1.000  O
  O17      1.0000 0.40460  0.19889  0.98567  Biso   1.000  O
  O18      1.0000 0.40460  0.30111  0.48567  Biso   1.000  O
  O19      1.0000 0.59540  0.80111  0.01433  Biso   1.000  O
  O20      1.0000 0.59540  0.69889  0.51433  Biso   1.000  O
  O21      1.0000 0.60380  0.13963  0.93713  Biso   1.000  O
  O22      1.0000 0.60380  0.36037  0.43713  Biso   1.000  O
  O23      1.0000 0.39620  0.86037  0.06287  Biso   1.000  O
  O24      1.0000 0.39620  0.63963  0.56287  Biso   1.000  O
  O25      1.0000 0.69390  0.30453  0.85604  Biso   1.000  O
  O26      1.0000 0.69390  0.19547  0.35604  Biso   1.000  O
  O27      1.0000 0.30610  0.69547  0.14396  Biso   1.000  O
  O28      1.0000 0.30610  0.80453  0.64396  Biso   1.000  O
  O29      1.0000 0.48180  0.19830  0.78980  Biso   1.000  O
  O30      1.0000 0.48180  0.30170  0.28980  Biso   1.000  O
  O31      1.0000 0.51820  0.80170  0.21020  Biso   1.000  O
  O32      1.0000 0.51820  0.69830  0.71020  Biso   1.000  O
  C1       1.0000 0.14450  0.89620  0.84335  Biso   1.000  C
  C2       1.0000 0.14450  0.60380  0.34335  Biso   1.000  C
  C3       1.0000 0.85550  0.10380  0.15665  Biso   1.000  C
  C4       1.0000 0.85550  0.39620  0.65665  Biso   1.000  C
  C5       1.0000 0.00980  0.81910  0.84712  Biso   1.000  C
  C6       1.0000 0.00980  0.68090  0.34712  Biso   1.000  C
  C7       1.0000 0.99020  0.18090  0.15288  Biso   1.000  C
  C8       1.0000 0.99020  0.31910  0.65288  Biso   1.000  C
  C9       1.0000 0.88350  0.78930  0.79380  Biso   1.000  C
  C10      1.0000 0.88350  0.71070  0.29380  Biso   1.000  C
  C11      1.0000 0.11650  0.21070  0.20620  Biso   1.000  C
  C12      1.0000 0.11650  0.28930  0.70620  Biso   1.000  C
  H1       1.0000 0.79520  0.73630  0.79740  Biso   1.000  H
  H2       1.0000 0.79520  0.76370  0.29740  Biso   1.000  H
  H3       1.0000 0.20480  0.26370  0.20260  Biso   1.000  H
  H4       1.0000 0.20480  0.23630  0.70260  Biso   1.000  H
  C13      1.0000 0.88970  0.83910  0.73478  Biso   1.000  C
  C14      1.0000 0.88970  0.66090  0.23478  Biso   1.000  C
  C15      1.0000 0.11030  0.16090  0.26522  Biso   1.000  C
  C16      1.0000 0.11030  0.33910  0.76522  Biso   1.000  C
  H5       1.0000 0.80440  0.82070  0.69850  Biso   1.000  H
  H6       1.0000 0.80440  0.67930  0.19850  Biso   1.000  H
  H7       1.0000 0.19560  0.17930  0.30150  Biso   1.000  H
  H8       1.0000 0.19560  0.32070  0.80150  Biso   1.000  H
  C17      1.0000 0.02280  0.91650  0.72969  Biso   1.000  C
  C18      1.0000 0.02280  0.58350  0.22969  Biso   1.000  C
  C19      1.0000 0.97720  0.08350  0.27031  Biso   1.000  C
  C20      1.0000 0.97720  0.41650  0.77031  Biso   1.000  C
  H9       1.0000 0.02640  0.95000  0.68990  Biso   1.000  H
  H10      1.0000 0.02640  0.55000  0.18990  Biso   1.000  H
  H11      1.0000 0.97360  0.05000  0.31010  Biso   1.000  H
  H12      1.0000 0.97360  0.45000  0.81010  Biso   1.000  H
  C21      1.0000 0.15020  0.94420  0.78315  Biso   1.000  C
  C22      1.0000 0.15020  0.55580  0.28315  Biso   1.000  C
  C23      1.0000 0.84980  0.05580  0.21685  Biso   1.000  C
  C24      1.0000 0.84980  0.44420  0.71685  Biso   1.000  C
  H13      1.0000 0.24020  0.99500  0.77910  Biso   1.000  H
  H14      1.0000 0.24020  0.50500  0.27910  Biso   1.000  H
  H15      1.0000 0.75980  0.00500  0.22090  Biso   1.000  H
  H16      1.0000 0.75980  0.49500  0.72090  Biso   1.000  H
  C25      1.0000 0.27800  0.93180  0.90179  Biso   1.000  C
  C26      1.0000 0.27800  0.56820  0.40179  Biso   1.000  C
  C27      1.0000 0.72200  0.06820  0.09821  Biso   1.000  C
  C28      1.0000 0.72200  0.43180  0.59821  Biso   1.000  C
  C29      1.0000 0.92510  0.81260  0.94557  Biso   1.000  C
  C30      1.0000 0.92510  0.68740  0.44557  Biso   1.000  C
  C31      1.0000 0.07490  0.18740  0.05443  Biso   1.000  C
  C32      1.0000 0.07490  0.31260  0.55443  Biso   1.000  C
  C33      1.0000 0.97970  0.75680  0.01154  Biso   1.000  C
  C34      1.0000 0.97970  0.74320  0.51154  Biso   1.000  C
  C35      1.0000 0.02030  0.24320  0.98846  Biso   1.000  C
  C36      1.0000 0.02030  0.25680  0.48846  Biso   1.000  C
  H17      1.0000 0.91510  0.79440  0.03850  Biso   1.000  H
  H18      1.0000 0.91510  0.70560  0.53850  Biso   1.000  H
  H19      1.0000 0.08490  0.20560  0.96150  Biso   1.000  H
  H20      1.0000 0.08490  0.29440  0.46150  Biso   1.000  H
  H21      1.0000 0.96230  0.66570  0.00940  Biso   1.000  H
  H22      1.0000 0.96230  0.83430  0.50940  Biso   1.000  H
  H23      1.0000 0.03770  0.33430  0.99060  Biso   1.000  H
  H24      1.0000 0.03770  0.16570  0.49060  Biso   1.000  H
  H25      1.0000 0.09680  0.77470  0.02910  Biso   1.000  H
  H26      1.0000 0.09680  0.72530  0.52910  Biso   1.000  H
  H27      1.0000 0.90320  0.22530  0.97090  Biso   1.000  H
  H28      1.0000 0.90320  0.27470  0.47090  Biso   1.000  H
  C37      1.0000 0.48870  0.34990  0.91822  Biso   1.000  C
  C38      1.0000 0.48870  0.15010  0.41822  Biso   1.000  C
  C39      1.0000 0.51130  0.65010  0.08178  Biso   1.000  C
  C40      1.0000 0.51130  0.84990  0.58178  Biso   1.000  C
  C41      1.0000 0.57940  0.38690  0.87435  Biso   1.000  C
  C42      1.0000 0.57940  0.11310  0.37435  Biso   1.000  C
  C43      1.0000 0.42060  0.61310  0.12565  Biso   1.000  C
  C44      1.0000 0.42060  0.88690  0.62565  Biso   1.000  C
  C45      1.0000 0.56660  0.50910  0.84914  Biso   1.000  C
  C46      1.0000 0.56660  0.99090  0.34914  Biso   1.000  C
  C47      1.0000 0.43340  0.49090  0.15086  Biso   1.000  C
  C48      1.0000 0.43340  0.00910  0.65086  Biso   1.000  C
  H29      1.0000 0.62900  0.53170  0.82010  Biso   1.000  H
  H30      1.0000 0.62900  0.96830  0.32010  Biso   1.000  H
  H31      1.0000 0.37100  0.46830  0.17990  Biso   1.000  H
  H32      1.0000 0.37100  0.03170  0.67990  Biso   1.000  H
  C49      1.0000 0.46210  0.59820  0.86655  Biso   1.000  C
  C50      1.0000 0.46210  0.90180  0.36655  Biso   1.000  C
  C51      1.0000 0.53790  0.40180  0.13345  Biso   1.000  C
  C52      1.0000 0.53790  0.09820  0.63345  Biso   1.000  C
  H33      1.0000 0.45500  0.68100  0.84990  Biso   1.000  H
  H34      1.0000 0.45500  0.81900  0.34990  Biso   1.000  H
  H35      1.0000 0.54500  0.31900  0.15010  Biso   1.000  H
  H36      1.0000 0.54500  0.18100  0.65010  Biso   1.000  H
  C53      1.0000 0.36850  0.56350  0.90864  Biso   1.000  C
  C54      1.0000 0.36850  0.93650  0.40864  Biso   1.000  C
  C55      1.0000 0.63150  0.43650  0.09136  Biso   1.000  C
  C56      1.0000 0.63150  0.06350  0.59136  Biso   1.000  C
  H37      1.0000 0.29600  0.62260  0.92010  Biso   1.000  H
  H38      1.0000 0.29600  0.87740  0.42010  Biso   1.000  H
  H39      1.0000 0.70400  0.37740  0.07990  Biso   1.000  H
  H40      1.0000 0.70400  0.12260  0.57990  Biso   1.000  H
  C57      1.0000 0.38150  0.44110  0.93408  Biso   1.000  C
  C58      1.0000 0.38150  0.05890  0.43408  Biso   1.000  C
  C59      1.0000 0.61850  0.55890  0.06592  Biso   1.000  C
  C60      1.0000 0.61850  0.94110  0.56592  Biso   1.000  C
  H41      1.0000 0.31720  0.41900  0.96250  Biso   1.000  H
  H42      1.0000 0.31720  0.08100  0.46250  Biso   1.000  H
  H43      1.0000 0.68280  0.58100  0.03750  Biso   1.000  H
  H44      1.0000 0.68280  0.91900  0.53750  Biso   1.000  H
  C61      1.0000 0.50030  0.21920  0.94886  Biso   1.000  C
  C62      1.0000 0.50030  0.28080  0.44886  Biso   1.000  C
  C63      1.0000 0.49970  0.78080  0.05114  Biso   1.000  C
  C64      1.0000 0.49970  0.71920  0.55114  Biso   1.000  C
  C65      1.0000 0.62820  0.20710  0.81448  Biso   1.000  C
  C66      1.0000 0.62820  0.29290  0.31448  Biso   1.000  C
  C67      1.0000 0.37180  0.79290  0.18552  Biso   1.000  C
  C68      1.0000 0.37180  0.70710  0.68552  Biso   1.000  C
  C69      1.0000 0.76300  0.11850  0.80616  Biso   1.000  C
  C70      1.0000 0.76300  0.38150  0.30616  Biso   1.000  C
  C71      1.0000 0.23700  0.88150  0.19384  Biso   1.000  C
  C72      1.0000 0.23700  0.61850  0.69384  Biso   1.000  C
  H45      1.0000 0.71470  0.05120  0.77680  Biso   1.000  H
  H46      1.0000 0.71470  0.44880  0.27680  Biso   1.000  H
  H47      1.0000 0.28530  0.94880  0.22320  Biso   1.000  H
  H48      1.0000 0.28530  0.55120  0.72320  Biso   1.000  H
  H49      1.0000 0.81800  0.08190  0.84690  Biso   1.000  H
  H50      1.0000 0.81800  0.41810  0.34690  Biso   1.000  H
  H51      1.0000 0.18200  0.91810  0.15310  Biso   1.000  H
  H52      1.0000 0.18200  0.58190  0.65310  Biso   1.000  H
  H53      1.0000 0.84340  0.16520  0.78930  Biso   1.000  H
  H54      1.0000 0.84340  0.33480  0.28930  Biso   1.000  H
  H55      1.0000 0.15660  0.83480  0.21070  Biso   1.000  H
  H56      1.0000 0.15660  0.66520  0.71070  Biso   1.000  H
