data_image0
_cell_length_a       8.208
_cell_length_b       10.39
_cell_length_c       21.56
_cell_angle_alpha    90
_cell_angle_beta     104.74
_cell_angle_gamma    90

_symmetry_space_group_name_H-M    "P 1"
_symmetry_int_tables_number       1

loop_
  _symmetry_equiv_pos_as_xyz
  'x, y, z'

loop_
  _atom_site_label
  _atom_site_occupancy
  _atom_site_fract_x
  _atom_site_fract_y
  _atom_site_fract_z
  _atom_site_thermal_displace_type
  _atom_site_B_iso_or_equiv
  _atom_site_type_symbol
  Cu1      1.0000 0.38420  0.03560  0.02840  Biso   1.000  Cu
  Cu2      1.0000 0.61580  0.53560  0.47160  Biso   1.000  Cu
  Cu3      1.0000 0.61580  0.96440  0.97160  Biso   1.000  Cu
  Cu4      1.0000 0.38420  0.46440  0.52840  Biso   1.000  Cu
  C1       1.0000 0.14030  0.89430  0.84320  Biso   1.000  C
  C2       1.0000 0.85970  0.39430  0.65680  Biso   1.000  C
  C3       1.0000 0.85970  0.10570  0.15680  Biso   1.000  C
  C4       1.0000 0.14030  0.60570  0.34320  Biso   1.000  C
  C5       1.0000 0.49020  0.34730  0.91800  Biso   1.000  C
  C6       1.0000 0.50980  0.84730  0.58200  Biso   1.000  C
  C7       1.0000 0.50980  0.65270  0.08200  Biso   1.000  C
  C8       1.0000 0.49020  0.15270  0.41800  Biso   1.000  C
  C9       1.0000 0.58010  0.38500  0.87340  Biso   1.000  C
  C10      1.0000 0.41990  0.88500  0.62660  Biso   1.000  C
  C11      1.0000 0.41990  0.61500  0.12660  Biso   1.000  C
  C12      1.0000 0.58010  0.11500  0.37340  Biso   1.000  C
  C13      1.0000 0.57370  0.50830  0.84830  Biso   1.000  C
  C14      1.0000 0.42630  0.00830  0.65170  Biso   1.000  C
  C15      1.0000 0.42630  0.49170  0.15170  Biso   1.000  C
  C16      1.0000 0.57370  0.99170  0.34830  Biso   1.000  C
  C17      1.0000 0.46590  0.59460  0.86460  Biso   1.000  C
  C18      1.0000 0.53410  0.09460  0.63540  Biso   1.000  C
  C19      1.0000 0.53410  0.40540  0.13540  Biso   1.000  C
  C20      1.0000 0.46590  0.90540  0.36460  Biso   1.000  C
  C21      1.0000 0.36770  0.56620  0.90690  Biso   1.000  C
  C22      1.0000 0.63230  0.06620  0.59310  Biso   1.000  C
  C23      1.0000 0.63230  0.43380  0.09310  Biso   1.000  C
  C24      1.0000 0.36770  0.93380  0.40690  Biso   1.000  C
  C25      1.0000 0.38060  0.44330  0.93310  Biso   1.000  C
  C26      1.0000 0.61940  0.94330  0.56690  Biso   1.000  C
  C27      1.0000 0.61940  0.55670  0.06690  Biso   1.000  C
  C28      1.0000 0.38060  0.05670  0.43310  Biso   1.000  C
  C29      1.0000 0.49940  0.21970  0.94880  Biso   1.000  C
  C30      1.0000 0.50060  0.71970  0.55120  Biso   1.000  C
  C31      1.0000 0.50060  0.78030  0.05120  Biso   1.000  C
  C32      1.0000 0.49940  0.28030  0.44880  Biso   1.000  C
  C33      1.0000 0.63760  0.21050  0.81630  Biso   1.000  C
  C34      1.0000 0.36240  0.71050  0.68370  Biso   1.000  C
  C35      1.0000 0.36240  0.78950  0.18370  Biso   1.000  C
  C36      1.0000 0.63760  0.28950  0.31630  Biso   1.000  C
  C37      1.0000 0.76730  0.11560  0.80740  Biso   1.000  C
  C38      1.0000 0.23270  0.61560  0.69260  Biso   1.000  C
  C39      1.0000 0.23270  0.88440  0.19260  Biso   1.000  C
  C40      1.0000 0.76730  0.38440  0.30740  Biso   1.000  C
  C41      1.0000 0.00430  0.82020  0.84530  Biso   1.000  C
  C42      1.0000 0.99570  0.32020  0.65470  Biso   1.000  C
  C43      1.0000 0.99570  0.17980  0.15470  Biso   1.000  C
  C44      1.0000 0.00430  0.67980  0.34530  Biso   1.000  C
  C45      1.0000 0.87630  0.78780  0.79400  Biso   1.000  C
  C46      1.0000 0.12370  0.28780  0.70600  Biso   1.000  C
  C47      1.0000 0.12370  0.21220  0.20600  Biso   1.000  C
  C48      1.0000 0.87630  0.71220  0.29400  Biso   1.000  C
  C49      1.0000 0.88460  0.83800  0.73370  Biso   1.000  C
  C50      1.0000 0.11540  0.33800  0.76630  Biso   1.000  C
  C51      1.0000 0.11540  0.16200  0.26630  Biso   1.000  C
  C52      1.0000 0.88460  0.66200  0.23370  Biso   1.000  C
  C53      1.0000 0.02150  0.91370  0.72990  Biso   1.000  C
  C54      1.0000 0.97850  0.41370  0.77010  Biso   1.000  C
  C55      1.0000 0.97850  0.08630  0.27010  Biso   1.000  C
  C56      1.0000 0.02150  0.58630  0.22990  Biso   1.000  C
  C57      1.0000 0.15180  0.94210  0.78360  Biso   1.000  C
  C58      1.0000 0.84820  0.44210  0.71640  Biso   1.000  C
  C59      1.0000 0.84820  0.05790  0.21640  Biso   1.000  C
  C60      1.0000 0.15180  0.55790  0.28360  Biso   1.000  C
  C61      1.0000 0.27700  0.93090  0.90160  Biso   1.000  C
  C62      1.0000 0.72300  0.43090  0.59840  Biso   1.000  C
  C63      1.0000 0.72300  0.06910  0.09840  Biso   1.000  C
  C64      1.0000 0.27700  0.56910  0.40160  Biso   1.000  C
  C65      1.0000 0.92370  0.81360  0.94640  Biso   1.000  C
  C66      1.0000 0.07630  0.31360  0.55360  Biso   1.000  C
  C67      1.0000 0.07630  0.18640  0.05360  Biso   1.000  C
  C68      1.0000 0.92370  0.68640  0.44640  Biso   1.000  C
  C69      1.0000 0.98060  0.75420  0.01350  Biso   1.000  C
  C70      1.0000 0.01940  0.25420  0.48650  Biso   1.000  C
  C71      1.0000 0.01940  0.24580  0.98650  Biso   1.000  C
  C72      1.0000 0.98060  0.74580  0.51350  Biso   1.000  C
  O1       1.0000 0.22810  0.97330  0.94930  Biso   1.000  O
  O2       1.0000 0.77190  0.47330  0.55070  Biso   1.000  O
  O3       1.0000 0.77190  0.02670  0.05070  Biso   1.000  O
  O4       1.0000 0.22810  0.52670  0.44930  Biso   1.000  O
  O5       1.0000 0.42610  0.91840  0.89890  Biso   1.000  O
  O6       1.0000 0.57390  0.41840  0.60110  Biso   1.000  O
  O7       1.0000 0.57390  0.08160  0.10110  Biso   1.000  O
  O8       1.0000 0.42610  0.58160  0.39890  Biso   1.000  O
  O9       1.0000 0.01510  0.76070  0.90720  Biso   1.000  O
  O10      1.0000 0.98490  0.26070  0.59280  Biso   1.000  O
  O11      1.0000 0.98490  0.23930  0.09280  Biso   1.000  O
  O12      1.0000 0.01510  0.73930  0.40720  Biso   1.000  O
  O13      1.0000 0.81750  0.89120  0.92750  Biso   1.000  O
  O14      1.0000 0.18250  0.39120  0.57250  Biso   1.000  O
  O15      1.0000 0.18250  0.10880  0.07250  Biso   1.000  O
  O16      1.0000 0.81750  0.60880  0.42750  Biso   1.000  O
  O17      1.0000 0.40520  0.19920  0.98530  Biso   1.000  O
  O18      1.0000 0.59480  0.69920  0.51470  Biso   1.000  O
  O19      1.0000 0.59480  0.80080  0.01470  Biso   1.000  O
  O20      1.0000 0.40520  0.30080  0.48530  Biso   1.000  O
  O21      1.0000 0.60420  0.13910  0.93730  Biso   1.000  O
  O22      1.0000 0.39580  0.63910  0.56270  Biso   1.000  O
  O23      1.0000 0.39580  0.86090  0.06270  Biso   1.000  O
  O24      1.0000 0.60420  0.36090  0.43730  Biso   1.000  O
  O25      1.0000 0.69400  0.30350  0.85670  Biso   1.000  O
  O26      1.0000 0.30600  0.80350  0.64330  Biso   1.000  O
  O27      1.0000 0.30600  0.69650  0.14330  Biso   1.000  O
  O28      1.0000 0.69400  0.19650  0.35670  Biso   1.000  O
  O29      1.0000 0.48700  0.20130  0.79160  Biso   1.000  O
  O30      1.0000 0.51300  0.70130  0.70840  Biso   1.000  O
  O31      1.0000 0.51300  0.79870  0.20840  Biso   1.000  O
  O32      1.0000 0.48700  0.29870  0.29160  Biso   1.000  O
