data_image0
_cell_length_a       8.1606
_cell_length_b       10.3474
_cell_length_c       20.7708
_cell_angle_alpha    90
_cell_angle_beta     98.152
_cell_angle_gamma    90

_symmetry_space_group_name_H-M    "P 1"
_symmetry_int_tables_number       1

loop_
  _symmetry_equiv_pos_as_xyz
  'x, y, z'

loop_
  _atom_site_label
  _atom_site_occupancy
  _atom_site_fract_x
  _atom_site_fract_y
  _atom_site_fract_z
  _atom_site_thermal_displace_type
  _atom_site_B_iso_or_equiv
  _atom_site_type_symbol
  Cu1      1.0000 0.14577  0.46605  0.02894  Biso   1.000  Cu
  Cu2      1.0000 0.35423  0.96605  0.47106  Biso   1.000  Cu
  Cu3      1.0000 0.85423  0.53395  0.97106  Biso   1.000  Cu
  Cu4      1.0000 0.64577  0.03395  0.52894  Biso   1.000  Cu
  O1       1.0000 0.33888  0.80949  0.14475  Biso   1.000  O
  O2       1.0000 0.16112  0.30949  0.35525  Biso   1.000  O
  O3       1.0000 0.66112  0.19051  0.85525  Biso   1.000  O
  O4       1.0000 0.83888  0.69051  0.64475  Biso   1.000  O
  O5       1.0000 0.60842  0.26006  0.09487  Biso   1.000  O
  O6       1.0000 0.89158  0.76006  0.40513  Biso   1.000  O
  O7       1.0000 0.39158  0.73994  0.90513  Biso   1.000  O
  O8       1.0000 0.10842  0.23994  0.59487  Biso   1.000  O
  O9       1.0000 0.16901  0.64218  0.06276  Biso   1.000  O
  O10      1.0000 0.33099  0.14218  0.43724  Biso   1.000  O
  O11      1.0000 0.83099  0.35782  0.93724  Biso   1.000  O
  O12      1.0000 0.66901  0.85782  0.56276  Biso   1.000  O
  O13      1.0000 0.39289  0.39604  0.07354  Biso   1.000  O
  O14      1.0000 0.10711  0.89604  0.42646  Biso   1.000  O
  O15      1.0000 0.60711  0.60396  0.92646  Biso   1.000  O
  O16      1.0000 0.89289  0.10396  0.57354  Biso   1.000  O
  O17      1.0000 0.91737  0.70009  0.01322  Biso   1.000  O
  O18      1.0000 0.58263  0.20009  0.48678  Biso   1.000  O
  O19      1.0000 0.08263  0.29991  0.98678  Biso   1.000  O
  O20      1.0000 0.41737  0.79991  0.51322  Biso   1.000  O
  O21      1.0000 0.77788  0.47463  0.05135  Biso   1.000  O
  O22      1.0000 0.72212  0.97463  0.44865  Biso   1.000  O
  O23      1.0000 0.22212  0.52537  0.94865  Biso   1.000  O
  O24      1.0000 0.27788  0.02537  0.55135  Biso   1.000  O
  O25      1.0000 0.03138  0.42117  0.10259  Biso   1.000  O
  O26      1.0000 0.46862  0.92117  0.39741  Biso   1.000  O
  O27      1.0000 0.96862  0.57883  0.89741  Biso   1.000  O
  O28      1.0000 0.53138  0.07883  0.60259  Biso   1.000  O
  O29      1.0000 0.18927  0.69763  0.20930  Biso   1.000  O
  O30      1.0000 0.31073  0.19763  0.29070  Biso   1.000  O
  O31      1.0000 0.81073  0.30237  0.79070  Biso   1.000  O
  O32      1.0000 0.68927  0.80237  0.70930  Biso   1.000  O
  C1       1.0000 0.66241  0.31945  0.15480  Biso   1.000  C
  C2       1.0000 0.83759  0.81945  0.34520  Biso   1.000  C
  C3       1.0000 0.33759  0.68055  0.84520  Biso   1.000  C
  C4       1.0000 0.16241  0.18055  0.65480  Biso   1.000  C
  C5       1.0000 0.80213  0.39860  0.15886  Biso   1.000  C
  C6       1.0000 0.69787  0.89860  0.34114  Biso   1.000  C
  C7       1.0000 0.19787  0.60140  0.84114  Biso   1.000  C
  C8       1.0000 0.30213  0.10140  0.65886  Biso   1.000  C
  C9       1.0000 0.05116  0.72176  0.05042  Biso   1.000  C
  C10      1.0000 0.44884  0.22176  0.44958  Biso   1.000  C
  C11      1.0000 0.94884  0.27824  0.94958  Biso   1.000  C
  C12      1.0000 0.55116  0.77824  0.55042  Biso   1.000  C
  C13      1.0000 0.87666  0.43349  0.09945  Biso   1.000  C
  C14      1.0000 0.62334  0.93349  0.40055  Biso   1.000  C
  C15      1.0000 0.12334  0.56651  0.90055  Biso   1.000  C
  C16      1.0000 0.37666  0.06651  0.59945  Biso   1.000  C
  C17      1.0000 0.94204  0.94370  0.06472  Biso   1.000  C
  C18      1.0000 0.55796  0.44370  0.43528  Biso   1.000  C
  C19      1.0000 0.05796  0.05630  0.93528  Biso   1.000  C
  C20      1.0000 0.44204  0.55630  0.56472  Biso   1.000  C
  C21      1.0000 0.86924  0.44866  0.21941  Biso   1.000  C
  C22      1.0000 0.63076  0.94866  0.28059  Biso   1.000  C
  C23      1.0000 0.13076  0.55134  0.78059  Biso   1.000  C
  C24      1.0000 0.36924  0.05134  0.71941  Biso   1.000  C
  C25      1.0000 0.58884  0.28975  0.20906  Biso   1.000  C
  C26      1.0000 0.91116  0.78975  0.29094  Biso   1.000  C
  C27      1.0000 0.41116  0.71025  0.79094  Biso   1.000  C
  C28      1.0000 0.08884  0.21025  0.70906  Biso   1.000  C
  C29      1.0000 0.20520  0.89080  0.12619  Biso   1.000  C
  C30      1.0000 0.29480  0.39080  0.37381  Biso   1.000  C
  C31      1.0000 0.79480  0.10920  0.87381  Biso   1.000  C
  C32      1.0000 0.70520  0.60920  0.62619  Biso   1.000  C
  C33      1.0000 0.06879  0.85282  0.08136  Biso   1.000  C
  C34      1.0000 0.43121  0.35282  0.41864  Biso   1.000  C
  C35      1.0000 0.93121  0.14718  0.91864  Biso   1.000  C
  C36      1.0000 0.56879  0.64718  0.58136  Biso   1.000  C
  C37      1.0000 0.48082  0.31315  0.05505  Biso   1.000  C
  C38      1.0000 0.01918  0.81315  0.44495  Biso   1.000  C
  C39      1.0000 0.51918  0.68685  0.94495  Biso   1.000  C
  C40      1.0000 0.98082  0.18685  0.55505  Biso   1.000  C
  C41      1.0000 0.46858  0.25710  0.98837  Biso   1.000  C
  C42      1.0000 0.03142  0.75710  0.51163  Biso   1.000  C
  C43      1.0000 0.53142  0.74290  0.01163  Biso   1.000  C
  C44      1.0000 0.96858  0.24290  0.48837  Biso   1.000  C
  C45      1.0000 0.21595  0.01463  0.15230  Biso   1.000  C
  C46      1.0000 0.28405  0.51463  0.34770  Biso   1.000  C
  C47      1.0000 0.78405  0.98537  0.84770  Biso   1.000  C
  C48      1.0000 0.71595  0.48537  0.65230  Biso   1.000  C
  C49      1.0000 0.95195  0.06777  0.09063  Biso   1.000  C
  C50      1.0000 0.54805  0.56777  0.40937  Biso   1.000  C
  C51      1.0000 0.04805  0.93223  0.90937  Biso   1.000  C
  C52      1.0000 0.45195  0.43223  0.59063  Biso   1.000  C
  C53      1.0000 0.65478  0.34264  0.26901  Biso   1.000  C
  C54      1.0000 0.84522  0.84264  0.23099  Biso   1.000  C
  C55      1.0000 0.34522  0.65736  0.73099  Biso   1.000  C
  C56      1.0000 0.15478  0.15736  0.76901  Biso   1.000  C
  C57      1.0000 0.46091  0.62195  0.19461  Biso   1.000  C
  C58      1.0000 0.03909  0.12195  0.30539  Biso   1.000  C
  C59      1.0000 0.53909  0.37805  0.80539  Biso   1.000  C
  C60      1.0000 0.96091  0.87805  0.69461  Biso   1.000  C
  C61      1.0000 0.31446  0.70929  0.18517  Biso   1.000  C
  C62      1.0000 0.18554  0.20929  0.31483  Biso   1.000  C
  C63      1.0000 0.68554  0.29071  0.81483  Biso   1.000  C
  C64      1.0000 0.81446  0.79071  0.68517  Biso   1.000  C
  C65      1.0000 0.09010  0.10392  0.13421  Biso   1.000  C
  C66      1.0000 0.40990  0.60392  0.36579  Biso   1.000  C
  C67      1.0000 0.90990  0.89608  0.86579  Biso   1.000  C
  C68      1.0000 0.59010  0.39608  0.63421  Biso   1.000  C
  C69      1.0000 0.79439  0.42178  0.27418  Biso   1.000  C
  C70      1.0000 0.70561  0.92178  0.22582  Biso   1.000  C
  C71      1.0000 0.20561  0.57822  0.72582  Biso   1.000  C
  C72      1.0000 0.29439  0.07822  0.77418  Biso   1.000  C
  H1       1.0000 0.85200  0.13560  0.07670  Biso   1.000  H
  H2       1.0000 0.64800  0.63560  0.42330  Biso   1.000  H
  H3       1.0000 0.14800  0.86440  0.92330  Biso   1.000  H
  H4       1.0000 0.35200  0.36440  0.57670  Biso   1.000  H
  H5       1.0000 0.83600  0.91620  0.03010  Biso   1.000  H
  H6       1.0000 0.66400  0.41620  0.46990  Biso   1.000  H
  H7       1.0000 0.16400  0.08380  0.96990  Biso   1.000  H
  H8       1.0000 0.33600  0.58380  0.53010  Biso   1.000  H
  H9       1.0000 0.59400  0.32150  0.31020  Biso   1.000  H
  H10      1.0000 0.90600  0.82150  0.18980  Biso   1.000  H
  H11      1.0000 0.40600  0.67850  0.68980  Biso   1.000  H
  H12      1.0000 0.09400  0.17850  0.81020  Biso   1.000  H
  H13      1.0000 0.48100  0.23080  0.20440  Biso   1.000  H
  H14      1.0000 0.01900  0.73080  0.29560  Biso   1.000  H
  H15      1.0000 0.51900  0.76920  0.79560  Biso   1.000  H
  H16      1.0000 0.98100  0.26920  0.70440  Biso   1.000  H
  H17      1.0000 0.97800  0.51020  0.22190  Biso   1.000  H
  H18      1.0000 0.52200  0.01020  0.27810  Biso   1.000  H
  H19      1.0000 0.02200  0.48980  0.77810  Biso   1.000  H
  H20      1.0000 0.47800  0.98980  0.72190  Biso   1.000  H
  H21      1.0000 0.84000  0.46030  0.32180  Biso   1.000  H
  H22      1.0000 0.66000  0.96030  0.17820  Biso   1.000  H
  H23      1.0000 0.16000  0.53970  0.67820  Biso   1.000  H
  H24      1.0000 0.34000  0.03970  0.82180  Biso   1.000  H
  H25      1.0000 0.32300  0.03750  0.18800  Biso   1.000  H
  H26      1.0000 0.17700  0.53750  0.31200  Biso   1.000  H
  H27      1.0000 0.67700  0.96250  0.81200  Biso   1.000  H
  H28      1.0000 0.82300  0.46250  0.68800  Biso   1.000  H
  H29      1.0000 0.10200  0.20180  0.15530  Biso   1.000  H
  H30      1.0000 0.39800  0.70180  0.34470  Biso   1.000  H
  H31      1.0000 0.89800  0.79820  0.84470  Biso   1.000  H
  H32      1.0000 0.60200  0.29820  0.65530  Biso   1.000  H
  H33      1.0000 0.35500  0.28250  0.96180  Biso   1.000  H
  H34      1.0000 0.14500  0.78250  0.53820  Biso   1.000  H
  H35      1.0000 0.64500  0.71750  0.03820  Biso   1.000  H
  H36      1.0000 0.85500  0.21750  0.46180  Biso   1.000  H
  H37      1.0000 0.48100  0.15400  0.99350  Biso   1.000  H
  H38      1.0000 0.01900  0.65400  0.50650  Biso   1.000  H
  H39      1.0000 0.51900  0.84600  0.00650  Biso   1.000  H
  H40      1.0000 0.98100  0.34600  0.49350  Biso   1.000  H
  H41      1.0000 0.57200  0.29080  0.96860  Biso   1.000  H
  H42      1.0000 0.92800  0.79080  0.53140  Biso   1.000  H
  H43      1.0000 0.42800  0.70920  0.03140  Biso   1.000  H
  H44      1.0000 0.07200  0.20920  0.46860  Biso   1.000  H
  H45      1.0000 0.43100  0.54200  0.22590  Biso   1.000  H
  H46      1.0000 0.06900  0.04200  0.27410  Biso   1.000  H
  H47      1.0000 0.56900  0.45800  0.77410  Biso   1.000  H
  H48      1.0000 0.93100  0.95800  0.72590  Biso   1.000  H
  H49      1.0000 0.48400  0.59300  0.14870  Biso   1.000  H
  H50      1.0000 0.01600  0.09300  0.35130  Biso   1.000  H
  H51      1.0000 0.51600  0.40700  0.85130  Biso   1.000  H
  H52      1.0000 0.98400  0.90700  0.64870  Biso   1.000  H
  H53      1.0000 0.55900  0.66800  0.21970  Biso   1.000  H
  H54      1.0000 0.94100  0.16800  0.28030  Biso   1.000  H
  H55      1.0000 0.44100  0.33200  0.78030  Biso   1.000  H
  H56      1.0000 0.05900  0.83200  0.71970  Biso   1.000  H
