data_image0
_cell_length_a       6.61
_cell_length_b       8.84
_cell_length_c       8.9
_cell_angle_alpha    104.5
_cell_angle_beta     96
_cell_angle_gamma    88.5

_symmetry_space_group_name_H-M    "P 1"
_symmetry_int_tables_number       1

loop_
  _symmetry_equiv_pos_as_xyz
  'x, y, z'

loop_
  _atom_site_label
  _atom_site_occupancy
  _atom_site_fract_x
  _atom_site_fract_y
  _atom_site_fract_z
  _atom_site_thermal_displace_type
  _atom_site_B_iso_or_equiv
  _atom_site_type_symbol
  Cu1      1.0000 0.00000  0.00000  0.00000  Biso   1.000  Cu
  Sr1      1.0000 0.24860  0.02480  0.38310  Biso   1.000  Sr
  Sr2      1.0000 0.75140  0.97520  0.61690  Biso   1.000  Sr
  C1       1.0000 0.25320  0.31710  0.20720  Biso   1.000  C
  C2       1.0000 0.74680  0.68290  0.79280  Biso   1.000  C
  O1       1.0000 0.23700  0.29870  0.34080  Biso   1.000  O
  O2       1.0000 0.76300  0.70130  0.65920  Biso   1.000  O
  O3       1.0000 0.24770  0.21360  0.08230  Biso   1.000  O
  O4       1.0000 0.75230  0.78640  0.91770  Biso   1.000  O
  C3       1.0000 0.28480  0.95900  0.78020  Biso   1.000  C
  C4       1.0000 0.71520  0.04100  0.21980  Biso   1.000  C
  O5       1.0000 0.09830  0.96940  0.79480  Biso   1.000  O
  O6       1.0000 0.90170  0.03060  0.20520  Biso   1.000  O
  O7       1.0000 0.36650  0.96810  0.66080  Biso   1.000  O
  O8       1.0000 0.63350  0.03190  0.33920  Biso   1.000  O
  C5       1.0000 0.75130  0.27260  0.97660  Biso   1.000  C
  C6       1.0000 0.24870  0.72740  0.02340  Biso   1.000  C
  O9       1.0000 0.79100  0.13140  0.91200  Biso   1.000  O
  O10      1.0000 0.20900  0.86860  0.08800  Biso   1.000  O
  O11      1.0000 0.79970  0.34530  0.10780  Biso   1.000  O
  O12      1.0000 0.20030  0.65470  0.89220  Biso   1.000  O
  O13      1.0000 0.51240  0.22890  0.60690  Biso   1.000  O
  O14      1.0000 0.48760  0.77110  0.39310  Biso   1.000  O
  O15      1.0000 0.99790  0.18570  0.57230  Biso   1.000  O
  O16      1.0000 0.00210  0.81430  0.42770  Biso   1.000  O
  O17      1.0000 0.24920  0.33630  0.82770  Biso   1.000  O
  O18      1.0000 0.75080  0.66370  0.17230  Biso   1.000  O
  O19      1.0000 0.76030  0.40200  0.45510  Biso   1.000  O
  O20      1.0000 0.23970  0.59800  0.54490  Biso   1.000  O
