data_image0
_cell_length_a       10.2024
_cell_length_b       10.3712
_cell_length_c       13.6089
_cell_angle_alpha    90
_cell_angle_beta     90
_cell_angle_gamma    90

_symmetry_space_group_name_H-M    "P 1"
_symmetry_int_tables_number       1

loop_
  _symmetry_equiv_pos_as_xyz
  'x, y, z'

loop_
  _atom_site_label
  _atom_site_occupancy
  _atom_site_fract_x
  _atom_site_fract_y
  _atom_site_fract_z
  _atom_site_thermal_displace_type
  _atom_site_B_iso_or_equiv
  _atom_site_type_symbol
  Cu1      1.0000 0.24387  0.29911  0.42645  Biso   1.000  Cu
  Cu2      1.0000 0.74387  0.20089  0.57355  Biso   1.000  Cu
  Cu3      1.0000 0.75613  0.79911  0.07355  Biso   1.000  Cu
  Cu4      1.0000 0.25613  0.70089  0.92645  Biso   1.000  Cu
  Cu5      1.0000 0.75613  0.70089  0.57355  Biso   1.000  Cu
  Cu6      1.0000 0.25613  0.79911  0.42645  Biso   1.000  Cu
  Cu7      1.0000 0.24387  0.20089  0.92645  Biso   1.000  Cu
  Cu8      1.0000 0.74387  0.29911  0.07355  Biso   1.000  Cu
  O1       1.0000 0.30467  0.43803  0.51478  Biso   1.000  O
  O2       1.0000 0.80467  0.06197  0.48522  Biso   1.000  O
  O3       1.0000 0.69533  0.93803  0.98522  Biso   1.000  O
  O4       1.0000 0.19533  0.56197  0.01478  Biso   1.000  O
  O5       1.0000 0.69533  0.56197  0.48522  Biso   1.000  O
  O6       1.0000 0.19533  0.93803  0.51478  Biso   1.000  O
  O7       1.0000 0.30467  0.06197  0.01478  Biso   1.000  O
  O8       1.0000 0.80467  0.43803  0.98522  Biso   1.000  O
  O9       1.0000 0.06429  0.43125  0.37886  Biso   1.000  O
  O10      1.0000 0.56429  0.06875  0.62114  Biso   1.000  O
  O11      1.0000 0.93571  0.93125  0.12114  Biso   1.000  O
  O12      1.0000 0.43571  0.56875  0.87886  Biso   1.000  O
  O13      1.0000 0.93571  0.56875  0.62114  Biso   1.000  O
  O14      1.0000 0.43571  0.93125  0.37886  Biso   1.000  O
  O15      1.0000 0.06429  0.06875  0.87886  Biso   1.000  O
  O16      1.0000 0.56429  0.43125  0.12114  Biso   1.000  O
  O17      1.0000 0.65554  0.28849  0.46411  Biso   1.000  O
  O18      1.0000 0.15554  0.21151  0.53589  Biso   1.000  O
  O19      1.0000 0.34446  0.78849  0.03589  Biso   1.000  O
  O20      1.0000 0.84446  0.71151  0.96411  Biso   1.000  O
  O21      1.0000 0.34446  0.71151  0.53589  Biso   1.000  O
  O22      1.0000 0.84446  0.78849  0.46411  Biso   1.000  O
  O23      1.0000 0.65554  0.21151  0.96411  Biso   1.000  O
  O24      1.0000 0.15554  0.28849  0.03589  Biso   1.000  O
  O25      1.0000 0.45870  0.19242  0.46134  Biso   1.000  O
  O26      1.0000 0.95870  0.30758  0.53866  Biso   1.000  O
  O27      1.0000 0.54130  0.69242  0.03866  Biso   1.000  O
  O28      1.0000 0.04130  0.80758  0.96134  Biso   1.000  O
  O29      1.0000 0.54130  0.80758  0.53866  Biso   1.000  O
  O30      1.0000 0.04130  0.69242  0.46134  Biso   1.000  O
  O31      1.0000 0.45870  0.30758  0.96134  Biso   1.000  O
  O32      1.0000 0.95870  0.19242  0.03866  Biso   1.000  O
  O33      1.0000 0.19062  0.15633  0.34278  Biso   1.000  O
  O34      1.0000 0.69062  0.34367  0.65722  Biso   1.000  O
  O35      1.0000 0.80938  0.65633  0.15722  Biso   1.000  O
  O36      1.0000 0.30938  0.84367  0.84278  Biso   1.000  O
  O37      1.0000 0.80938  0.84367  0.65722  Biso   1.000  O
  O38      1.0000 0.30938  0.65633  0.34278  Biso   1.000  O
  O39      1.0000 0.19062  0.34367  0.84278  Biso   1.000  O
  O40      1.0000 0.69062  0.15633  0.15722  Biso   1.000  O
  O41      1.0000 0.22753  0.06271  0.19963  Biso   1.000  O
  O42      1.0000 0.72753  0.43729  0.80037  Biso   1.000  O
  O43      1.0000 0.77247  0.56271  0.30037  Biso   1.000  O
  O44      1.0000 0.27247  0.93729  0.69963  Biso   1.000  O
  O45      1.0000 0.77247  0.93729  0.80037  Biso   1.000  O
  O46      1.0000 0.27247  0.56271  0.19963  Biso   1.000  O
  O47      1.0000 0.22753  0.43729  0.69963  Biso   1.000  O
  O48      1.0000 0.72753  0.06271  0.30037  Biso   1.000  O
  N1       1.0000 0.36597  0.34669  0.31591  Biso   1.000  N
  N2       1.0000 0.86597  0.15331  0.68409  Biso   1.000  N
  N3       1.0000 0.63403  0.84669  0.18409  Biso   1.000  N
  N4       1.0000 0.13403  0.65331  0.81591  Biso   1.000  N
  N5       1.0000 0.63403  0.65331  0.68409  Biso   1.000  N
  N6       1.0000 0.13403  0.84669  0.31591  Biso   1.000  N
  N7       1.0000 0.36597  0.15331  0.81591  Biso   1.000  N
  N8       1.0000 0.86597  0.34669  0.18409  Biso   1.000  N
  C1       1.0000 0.53940  0.27412  0.43223  Biso   1.000  C
  C2       1.0000 0.03940  0.22588  0.56777  Biso   1.000  C
  C3       1.0000 0.46060  0.77412  0.06777  Biso   1.000  C
  C4       1.0000 0.96060  0.72588  0.93223  Biso   1.000  C
  C5       1.0000 0.46060  0.72588  0.56777  Biso   1.000  C
  C6       1.0000 0.96060  0.77412  0.43223  Biso   1.000  C
  C7       1.0000 0.53940  0.22588  0.93223  Biso   1.000  C
  C8       1.0000 0.03940  0.27412  0.06777  Biso   1.000  C
  C9       1.0000 0.49973  0.36995  0.35284  Biso   1.000  C
  C10      1.0000 0.99973  0.13005  0.64716  Biso   1.000  C
  C11      1.0000 0.50027  0.86995  0.14716  Biso   1.000  C
  C12      1.0000 0.00027  0.63005  0.85284  Biso   1.000  C
  C13      1.0000 0.50027  0.63005  0.64716  Biso   1.000  C
  C14      1.0000 0.00027  0.86995  0.35284  Biso   1.000  C
  C15      1.0000 0.49973  0.13005  0.85284  Biso   1.000  C
  C16      1.0000 0.99973  0.36995  0.14716  Biso   1.000  C
  C17      1.0000 0.35873  0.24422  0.24031  Biso   1.000  C
  C18      1.0000 0.85873  0.25578  0.75969  Biso   1.000  C
  C19      1.0000 0.64127  0.74422  0.25969  Biso   1.000  C
  C20      1.0000 0.14127  0.75578  0.74031  Biso   1.000  C
  C21      1.0000 0.64127  0.75578  0.75969  Biso   1.000  C
  C22      1.0000 0.14127  0.74422  0.24031  Biso   1.000  C
  C23      1.0000 0.35873  0.25578  0.74031  Biso   1.000  C
  C24      1.0000 0.85873  0.24422  0.25969  Biso   1.000  C
  C25      1.0000 0.25124  0.14758  0.26103  Biso   1.000  C
  C26      1.0000 0.75124  0.35242  0.73897  Biso   1.000  C
  C27      1.0000 0.74876  0.64758  0.23897  Biso   1.000  C
  C28      1.0000 0.24876  0.85242  0.76103  Biso   1.000  C
  C29      1.0000 0.74876  0.85242  0.73897  Biso   1.000  C
  C30      1.0000 0.24876  0.64758  0.26103  Biso   1.000  C
  C31      1.0000 0.25124  0.35242  0.76103  Biso   1.000  C
  C32      1.0000 0.75124  0.14758  0.23897  Biso   1.000  C
  H1       1.0000 0.33900  0.41200  0.29240  Biso   1.000  H
  H2       1.0000 0.83900  0.08800  0.70760  Biso   1.000  H
  H3       1.0000 0.66100  0.91200  0.20760  Biso   1.000  H
  H4       1.0000 0.16100  0.58800  0.79240  Biso   1.000  H
  H5       1.0000 0.66100  0.58800  0.70760  Biso   1.000  H
  H6       1.0000 0.16100  0.91200  0.29240  Biso   1.000  H
  H7       1.0000 0.33900  0.08800  0.79240  Biso   1.000  H
  H8       1.0000 0.83900  0.41200  0.20760  Biso   1.000  H
  H9       1.0000 0.56100  0.36480  0.30190  Biso   1.000  H
  H10      1.0000 0.06100  0.13520  0.69810  Biso   1.000  H
  H11      1.0000 0.43900  0.86480  0.19810  Biso   1.000  H
  H12      1.0000 0.93900  0.63520  0.80190  Biso   1.000  H
  H13      1.0000 0.43900  0.63520  0.69810  Biso   1.000  H
  H14      1.0000 0.93900  0.86480  0.30190  Biso   1.000  H
  H15      1.0000 0.56100  0.13520  0.80190  Biso   1.000  H
  H16      1.0000 0.06100  0.36480  0.19810  Biso   1.000  H
  H17      1.0000 0.50200  0.45320  0.38310  Biso   1.000  H
  H18      1.0000 0.00200  0.04680  0.61690  Biso   1.000  H
  H19      1.0000 0.49800  0.95320  0.11690  Biso   1.000  H
  H20      1.0000 0.99800  0.54680  0.88310  Biso   1.000  H
  H21      1.0000 0.49800  0.54680  0.61690  Biso   1.000  H
  H22      1.0000 0.99800  0.95320  0.38310  Biso   1.000  H
  H23      1.0000 0.50200  0.04680  0.88310  Biso   1.000  H
  H24      1.0000 0.00200  0.45320  0.11690  Biso   1.000  H
  H25      1.0000 0.34400  0.28000  0.18170  Biso   1.000  H
  H26      1.0000 0.84400  0.22000  0.81830  Biso   1.000  H
  H27      1.0000 0.65600  0.78000  0.31830  Biso   1.000  H
  H28      1.0000 0.15600  0.72000  0.68170  Biso   1.000  H
  H29      1.0000 0.65600  0.72000  0.81830  Biso   1.000  H
  H30      1.0000 0.15600  0.78000  0.18170  Biso   1.000  H
  H31      1.0000 0.34400  0.22000  0.68170  Biso   1.000  H
  H32      1.0000 0.84400  0.28000  0.31830  Biso   1.000  H
  H33      1.0000 0.44300  0.19100  0.23710  Biso   1.000  H
  H34      1.0000 0.94300  0.30900  0.76290  Biso   1.000  H
  H35      1.0000 0.55700  0.69100  0.26290  Biso   1.000  H
  H36      1.0000 0.05700  0.80900  0.73710  Biso   1.000  H
  H37      1.0000 0.55700  0.80900  0.76290  Biso   1.000  H
  H38      1.0000 0.05700  0.69100  0.23710  Biso   1.000  H
  H39      1.0000 0.44300  0.30900  0.73710  Biso   1.000  H
  H40      1.0000 0.94300  0.19100  0.26290  Biso   1.000  H
  H41      1.0000 0.27100  0.43500  0.57060  Biso   1.000  H
  H42      1.0000 0.77100  0.06500  0.42940  Biso   1.000  H
  H43      1.0000 0.72900  0.93500  0.92940  Biso   1.000  H
  H44      1.0000 0.22900  0.56500  0.07060  Biso   1.000  H
  H45      1.0000 0.72900  0.56500  0.42940  Biso   1.000  H
  H46      1.0000 0.22900  0.93500  0.57060  Biso   1.000  H
  H47      1.0000 0.27100  0.06500  0.07060  Biso   1.000  H
  H48      1.0000 0.77100  0.43500  0.92940  Biso   1.000  H
  H49      1.0000 0.30500  0.50100  0.50400  Biso   1.000  H
  H50      1.0000 0.80500  0.99900  0.49600  Biso   1.000  H
  H51      1.0000 0.69500  0.00100  0.99600  Biso   1.000  H
  H52      1.0000 0.19500  0.49900  0.00400  Biso   1.000  H
  H53      1.0000 0.69500  0.49900  0.49600  Biso   1.000  H
  H54      1.0000 0.19500  0.00100  0.50400  Biso   1.000  H
  H55      1.0000 0.30500  0.99900  0.00400  Biso   1.000  H
  H56      1.0000 0.80500  0.50100  0.99600  Biso   1.000  H
  H57      1.0000 0.02300  0.39500  0.42380  Biso   1.000  H
  H58      1.0000 0.52300  0.10500  0.57620  Biso   1.000  H
  H59      1.0000 0.97700  0.89500  0.07620  Biso   1.000  H
  H60      1.0000 0.47700  0.60500  0.92380  Biso   1.000  H
  H61      1.0000 0.97700  0.60500  0.57620  Biso   1.000  H
  H62      1.0000 0.47700  0.89500  0.42380  Biso   1.000  H
  H63      1.0000 0.02300  0.10500  0.92380  Biso   1.000  H
  H64      1.0000 0.52300  0.39500  0.07620  Biso   1.000  H
  H65      1.0000 0.06700  0.50100  0.39740  Biso   1.000  H
  H66      1.0000 0.56700  0.99900  0.60260  Biso   1.000  H
  H67      1.0000 0.93300  0.00100  0.10260  Biso   1.000  H
  H68      1.0000 0.43300  0.49900  0.89740  Biso   1.000  H
  H69      1.0000 0.93300  0.49900  0.60260  Biso   1.000  H
  H70      1.0000 0.43300  0.00100  0.39740  Biso   1.000  H
  H71      1.0000 0.06700  0.99900  0.89740  Biso   1.000  H
  H72      1.0000 0.56700  0.50100  0.10260  Biso   1.000  H
