data_image0
_cell_length_a       6.98
_cell_length_b       34.12
_cell_length_c       6.3
_cell_angle_alpha    90
_cell_angle_beta     90
_cell_angle_gamma    90

_symmetry_space_group_name_H-M    "P 1"
_symmetry_int_tables_number       1

loop_
  _symmetry_equiv_pos_as_xyz
  'x, y, z'

loop_
  _atom_site_label
  _atom_site_occupancy
  _atom_site_fract_x
  _atom_site_fract_y
  _atom_site_fract_z
  _atom_site_thermal_displace_type
  _atom_site_B_iso_or_equiv
  _atom_site_type_symbol
  Cu1      1.0000 0.00000  0.00000  0.00000  Biso   1.000  Cu
  Cu2      1.0000 0.50000  0.50000  0.50000  Biso   1.000  Cu
  Cu3      1.0000 0.00000  0.00000  0.50000  Biso   1.000  Cu
  Cu4      1.0000 0.50000  0.50000  0.00000  Biso   1.000  Cu
  C1       1.0000 0.00000  0.07090  0.25000  Biso   1.000  C
  C2       1.0000 0.50000  0.57090  0.75000  Biso   1.000  C
  C3       1.0000 0.00000  0.92910  0.75000  Biso   1.000  C
  C4       1.0000 0.50000  0.42910  0.25000  Biso   1.000  C
  C5       1.0000 0.00000  0.11400  0.25000  Biso   1.000  C
  C6       1.0000 0.50000  0.61400  0.75000  Biso   1.000  C
  C7       1.0000 0.00000  0.88600  0.75000  Biso   1.000  C
  C8       1.0000 0.50000  0.38600  0.25000  Biso   1.000  C
  C9       1.0000 0.06900  0.13560  0.07700  Biso   1.000  C
  C10      1.0000 0.56900  0.63560  0.57700  Biso   1.000  C
  C11      1.0000 0.93100  0.13560  0.42300  Biso   1.000  C
  C12      1.0000 0.43100  0.63560  0.92300  Biso   1.000  C
  C13      1.0000 0.93100  0.86440  0.92300  Biso   1.000  C
  C14      1.0000 0.43100  0.36440  0.42300  Biso   1.000  C
  C15      1.0000 0.06900  0.86440  0.57700  Biso   1.000  C
  C16      1.0000 0.56900  0.36440  0.07700  Biso   1.000  C
  C17      1.0000 0.07200  0.17710  0.07000  Biso   1.000  C
  C18      1.0000 0.57200  0.67710  0.57000  Biso   1.000  C
  C19      1.0000 0.92800  0.17710  0.43000  Biso   1.000  C
  C20      1.0000 0.42800  0.67710  0.93000  Biso   1.000  C
  C21      1.0000 0.92800  0.82290  0.93000  Biso   1.000  C
  C22      1.0000 0.42800  0.32290  0.43000  Biso   1.000  C
  C23      1.0000 0.07200  0.82290  0.57000  Biso   1.000  C
  C24      1.0000 0.57200  0.32290  0.07000  Biso   1.000  C
  C25      1.0000 0.00000  0.19640  0.25000  Biso   1.000  C
  C26      1.0000 0.50000  0.69640  0.75000  Biso   1.000  C
  C27      1.0000 0.00000  0.80360  0.75000  Biso   1.000  C
  C28      1.0000 0.50000  0.30360  0.25000  Biso   1.000  C
  O1       1.0000 0.02500  0.05390  0.07800  Biso   1.000  O
  O2       1.0000 0.52500  0.55390  0.57800  Biso   1.000  O
  O3       1.0000 0.97500  0.05390  0.42200  Biso   1.000  O
  O4       1.0000 0.47500  0.55390  0.92200  Biso   1.000  O
  O5       1.0000 0.97500  0.94610  0.92200  Biso   1.000  O
  O6       1.0000 0.47500  0.44610  0.42200  Biso   1.000  O
  O7       1.0000 0.02500  0.94610  0.57800  Biso   1.000  O
  O8       1.0000 0.52500  0.44610  0.07800  Biso   1.000  O
  O9       1.0000 0.21600  0.98750  0.19000  Biso   1.000  O
  O10      1.0000 0.71600  0.48750  0.69000  Biso   1.000  O
  O11      1.0000 0.78400  0.98750  0.31000  Biso   1.000  O
  O12      1.0000 0.28400  0.48750  0.81000  Biso   1.000  O
  O13      1.0000 0.78400  0.01250  0.81000  Biso   1.000  O
  O14      1.0000 0.28400  0.51250  0.31000  Biso   1.000  O
  O15      1.0000 0.21600  0.01250  0.69000  Biso   1.000  O
  O16      1.0000 0.71600  0.51250  0.19000  Biso   1.000  O
  C29      1.0000 0.50000  0.22140  0.75000  Biso   1.000  C
  C30      1.0000 0.00000  0.72140  0.25000  Biso   1.000  C
  C31      1.0000 0.50000  0.77860  0.25000  Biso   1.000  C
  C32      1.0000 0.00000  0.27860  0.75000  Biso   1.000  C
  C33      1.0000 0.50000  0.09590  0.75000  Biso   1.000  C
  C34      1.0000 0.00000  0.59590  0.25000  Biso   1.000  C
  C35      1.0000 0.50000  0.90410  0.25000  Biso   1.000  C
  C36      1.0000 0.00000  0.40410  0.75000  Biso   1.000  C
  C37      1.0000 0.50000  0.13980  0.75000  Biso   1.000  C
  C38      1.0000 0.00000  0.63980  0.25000  Biso   1.000  C
  C39      1.0000 0.50000  0.86020  0.25000  Biso   1.000  C
  C40      1.0000 0.00000  0.36020  0.75000  Biso   1.000  C
  C41      1.0000 0.42000  0.16050  0.57800  Biso   1.000  C
  C42      1.0000 0.92000  0.66050  0.07800  Biso   1.000  C
  C43      1.0000 0.58000  0.16050  0.92200  Biso   1.000  C
  C44      1.0000 0.08000  0.66050  0.42200  Biso   1.000  C
  C45      1.0000 0.58000  0.83950  0.42200  Biso   1.000  C
  C46      1.0000 0.08000  0.33950  0.92200  Biso   1.000  C
  C47      1.0000 0.42000  0.83950  0.07800  Biso   1.000  C
  C48      1.0000 0.92000  0.33950  0.57800  Biso   1.000  C
  C49      1.0000 0.42000  0.20160  0.58500  Biso   1.000  C
  C50      1.0000 0.92000  0.70160  0.08500  Biso   1.000  C
  C51      1.0000 0.58000  0.20160  0.91500  Biso   1.000  C
  C52      1.0000 0.08000  0.70160  0.41500  Biso   1.000  C
  C53      1.0000 0.58000  0.79840  0.41500  Biso   1.000  C
  C54      1.0000 0.08000  0.29840  0.91500  Biso   1.000  C
  C55      1.0000 0.42000  0.79840  0.08500  Biso   1.000  C
  C56      1.0000 0.92000  0.29840  0.58500  Biso   1.000  C
  O17      1.0000 0.40300  0.07890  0.61100  Biso   1.000  O
  O18      1.0000 0.90300  0.57890  0.11100  Biso   1.000  O
  O19      1.0000 0.59700  0.07890  0.88900  Biso   1.000  O
  O20      1.0000 0.09700  0.57890  0.38900  Biso   1.000  O
  O21      1.0000 0.59700  0.92110  0.38900  Biso   1.000  O
  O22      1.0000 0.09700  0.42110  0.88900  Biso   1.000  O
  O23      1.0000 0.40300  0.92110  0.11100  Biso   1.000  O
  O24      1.0000 0.90300  0.42110  0.61100  Biso   1.000  O
  O25      1.0000 0.50000  0.04050  0.25000  Biso   1.000  O
  O26      1.0000 0.00000  0.54050  0.75000  Biso   1.000  O
  O27      1.0000 0.50000  0.95950  0.75000  Biso   1.000  O
  O28      1.0000 0.00000  0.45950  0.25000  Biso   1.000  O
