data_image0
_cell_length_a       11.76
_cell_length_b       10.4066
_cell_length_c       14.0801
_cell_angle_alpha    90
_cell_angle_beta     104.802
_cell_angle_gamma    90

_symmetry_space_group_name_H-M    "P 1"
_symmetry_int_tables_number       1

loop_
  _symmetry_equiv_pos_as_xyz
  'x, y, z'

loop_
  _atom_site_label
  _atom_site_occupancy
  _atom_site_fract_x
  _atom_site_fract_y
  _atom_site_fract_z
  _atom_site_thermal_displace_type
  _atom_site_B_iso_or_equiv
  _atom_site_type_symbol
  Cu1      1.0000 0.51845  0.15402  0.02081  Biso   1.000  Cu
  Cu2      1.0000 0.98155  0.65402  0.47919  Biso   1.000  Cu
  Cu3      1.0000 0.48155  0.84598  0.97919  Biso   1.000  Cu
  Cu4      1.0000 0.01845  0.34598  0.52081  Biso   1.000  Cu
  S1       1.0000 0.48834  0.24198  0.69930  Biso   1.000  S
  S2       1.0000 0.01166  0.74198  0.80070  Biso   1.000  S
  S3       1.0000 0.51166  0.75802  0.30070  Biso   1.000  S
  S4       1.0000 0.98834  0.25802  0.19930  Biso   1.000  S
  C1       1.0000 0.35152  0.35890  0.16975  Biso   1.000  C
  C2       1.0000 0.14848  0.85890  0.33025  Biso   1.000  C
  C3       1.0000 0.64848  0.64110  0.83025  Biso   1.000  C
  C4       1.0000 0.85152  0.14110  0.66975  Biso   1.000  C
  H1       1.0000 0.37800  0.28280  0.20270  Biso   1.000  H
  H2       1.0000 0.12200  0.78280  0.29730  Biso   1.000  H
  H3       1.0000 0.62200  0.71720  0.79730  Biso   1.000  H
  H4       1.0000 0.87800  0.21720  0.70270  Biso   1.000  H
  C5       1.0000 0.43030  0.35670  0.75931  Biso   1.000  C
  C6       1.0000 0.06970  0.85670  0.74069  Biso   1.000  C
  C7       1.0000 0.56970  0.64330  0.24069  Biso   1.000  C
  C8       1.0000 0.93030  0.14330  0.25931  Biso   1.000  C
  H5       1.0000 0.39480  0.43220  0.73100  Biso   1.000  H
  H6       1.0000 0.10520  0.93220  0.76900  Biso   1.000  H
  H7       1.0000 0.60520  0.56780  0.26900  Biso   1.000  H
  H8       1.0000 0.89480  0.06780  0.23100  Biso   1.000  H
  C9       1.0000 0.26638  0.59100  0.06917  Biso   1.000  C
  C10      1.0000 0.23362  0.09100  0.43083  Biso   1.000  C
  C11      1.0000 0.73362  0.40900  0.93083  Biso   1.000  C
  C12      1.0000 0.76638  0.90900  0.56917  Biso   1.000  C
  H9       1.0000 0.23850  0.66670  0.03630  Biso   1.000  H
  H10      1.0000 0.26150  0.16670  0.46370  Biso   1.000  H
  H11      1.0000 0.76150  0.33330  0.96370  Biso   1.000  H
  H12      1.0000 0.73850  0.83330  0.53630  Biso   1.000  H
  C13      1.0000 0.29670  0.45310  0.21185  Biso   1.000  C
  C14      1.0000 0.20330  0.95310  0.28815  Biso   1.000  C
  C15      1.0000 0.70330  0.54690  0.78815  Biso   1.000  C
  C16      1.0000 0.79670  0.04690  0.71185  Biso   1.000  C
  H13      1.0000 0.28700  0.44030  0.27470  Biso   1.000  H
  H14      1.0000 0.21300  0.94030  0.22530  Biso   1.000  H
  H15      1.0000 0.71300  0.55970  0.72530  Biso   1.000  H
  H16      1.0000 0.78700  0.05970  0.77470  Biso   1.000  H
  O1       1.0000 0.62135  0.00774  0.02044  Biso   1.000  O
  O2       1.0000 0.87865  0.50774  0.47956  Biso   1.000  O
  O3       1.0000 0.37865  0.99226  0.97956  Biso   1.000  O
  O4       1.0000 0.12135  0.49226  0.52044  Biso   1.000  O
  C17      1.0000 0.40253  0.37819  0.93368  Biso   1.000  C
  C18      1.0000 0.09747  0.87819  0.56632  Biso   1.000  C
  C19      1.0000 0.59747  0.62181  0.06632  Biso   1.000  C
  C20      1.0000 0.90253  0.12181  0.43368  Biso   1.000  C
  N1       1.0000 0.41714  0.31058  0.01574  Biso   1.000  N
  N2       1.0000 0.08286  0.81058  0.48426  Biso   1.000  N
  N3       1.0000 0.58286  0.68942  0.98426  Biso   1.000  N
  N4       1.0000 0.91714  0.18942  0.51574  Biso   1.000  N
  N5       1.0000 0.49982  0.20594  0.87886  Biso   1.000  N
  N6       1.0000 0.00018  0.70594  0.62114  Biso   1.000  N
  N7       1.0000 0.50018  0.79406  0.12114  Biso   1.000  N
  N8       1.0000 0.99982  0.29406  0.37886  Biso   1.000  N
  O5       1.0000 0.76231  0.08811  0.95764  Biso   1.000  O
  O6       1.0000 0.73769  0.58811  0.54236  Biso   1.000  O
  O7       1.0000 0.23769  0.91189  0.04236  Biso   1.000  O
  O8       1.0000 0.26231  0.41189  0.45764  Biso   1.000  O
  N9       1.0000 0.34583  0.48969  0.93606  Biso   1.000  N
  N10      1.0000 0.15417  0.98969  0.56394  Biso   1.000  N
  N11      1.0000 0.65417  0.51031  0.06394  Biso   1.000  N
  N12      1.0000 0.84583  0.01031  0.43606  Biso   1.000  N
  H17      1.0000 0.32830  0.54600  0.88990  Biso   1.000  H
  H18      1.0000 0.17170  0.04600  0.61010  Biso   1.000  H
  H19      1.0000 0.67170  0.45400  0.11010  Biso   1.000  H
  H20      1.0000 0.82830  0.95400  0.38990  Biso   1.000  H
  C21      1.0000 0.80119  0.89646  0.05066  Biso   1.000  C
  C22      1.0000 0.69881  0.39646  0.44934  Biso   1.000  C
  C23      1.0000 0.19881  0.10354  0.94934  Biso   1.000  C
  C24      1.0000 0.30119  0.60354  0.55066  Biso   1.000  C
  C25      1.0000 0.79795  0.85188  0.14252  Biso   1.000  C
  C26      1.0000 0.70205  0.35188  0.35748  Biso   1.000  C
  C27      1.0000 0.20205  0.14812  0.85748  Biso   1.000  C
  C28      1.0000 0.29795  0.64812  0.64252  Biso   1.000  C
  H21      1.0000 0.74550  0.88850  0.17420  Biso   1.000  H
  H22      1.0000 0.75450  0.38850  0.32580  Biso   1.000  H
  H23      1.0000 0.25450  0.11150  0.82580  Biso   1.000  H
  H24      1.0000 0.24550  0.61150  0.67420  Biso   1.000  H
  C29      1.0000 0.36510  0.38273  0.07647  Biso   1.000  C
  C30      1.0000 0.13490  0.88273  0.42353  Biso   1.000  C
  C31      1.0000 0.63490  0.61727  0.92353  Biso   1.000  C
  C32      1.0000 0.86510  0.11727  0.57647  Biso   1.000  C
  C33      1.0000 0.44342  0.32227  0.85367  Biso   1.000  C
  C34      1.0000 0.05658  0.82227  0.64633  Biso   1.000  C
  C35      1.0000 0.55658  0.67773  0.14633  Biso   1.000  C
  C36      1.0000 0.94342  0.17773  0.35367  Biso   1.000  C
  C37      1.0000 0.72492  0.00797  0.00468  Biso   1.000  C
  C38      1.0000 0.77508  0.50797  0.49532  Biso   1.000  C
  C39      1.0000 0.27508  0.99203  0.99532  Biso   1.000  C
  C40      1.0000 0.22492  0.49203  0.50468  Biso   1.000  C
  C41      1.0000 0.32089  0.49673  0.02677  Biso   1.000  C
  C42      1.0000 0.17911  0.99673  0.47323  Biso   1.000  C
  C43      1.0000 0.67911  0.50327  0.97323  Biso   1.000  C
  C44      1.0000 0.82089  0.00327  0.52677  Biso   1.000  C
  C45      1.0000 0.52800  0.15423  0.80461  Biso   1.000  C
  C46      1.0000 0.97200  0.65423  0.69539  Biso   1.000  C
  C47      1.0000 0.47200  0.84577  0.19539  Biso   1.000  C
  C48      1.0000 0.02800  0.34577  0.30461  Biso   1.000  C
  H25      1.0000 0.56660  0.07570  0.80840  Biso   1.000  H
  H26      1.0000 0.93340  0.57570  0.69160  Biso   1.000  H
  H27      1.0000 0.43340  0.92430  0.19160  Biso   1.000  H
  H28      1.0000 0.06660  0.42430  0.30840  Biso   1.000  H
  C49      1.0000 0.25600  0.56610  0.16220  Biso   1.000  C
  C50      1.0000 0.24400  0.06610  0.33780  Biso   1.000  C
  C51      1.0000 0.74400  0.43390  0.83780  Biso   1.000  C
  C52      1.0000 0.75600  0.93390  0.66220  Biso   1.000  C
  H29      1.0000 0.22030  0.62720  0.19320  Biso   1.000  H
  H30      1.0000 0.27970  0.12720  0.30680  Biso   1.000  H
  H31      1.0000 0.77970  0.37280  0.80680  Biso   1.000  H
  H32      1.0000 0.72030  0.87280  0.69320  Biso   1.000  H
  C53      1.0000 0.87785  0.83940  0.00219  Biso   1.000  C
  C54      1.0000 0.62215  0.33940  0.49781  Biso   1.000  C
  C55      1.0000 0.12215  0.16060  0.99781  Biso   1.000  C
  C56      1.0000 0.37785  0.66060  0.50219  Biso   1.000  C
  H33      1.0000 0.88300  0.87070  0.94160  Biso   1.000  H
  H34      1.0000 0.61700  0.37070  0.55840  Biso   1.000  H
  H35      1.0000 0.11700  0.12930  0.05840  Biso   1.000  H
  H36      1.0000 0.38300  0.62930  0.44160  Biso   1.000  H
  C57      1.0000 0.94610  0.73610  0.04466  Biso   1.000  C
  C58      1.0000 0.55390  0.23610  0.45534  Biso   1.000  C
  C59      1.0000 0.05390  0.26390  0.95534  Biso   1.000  C
  C60      1.0000 0.44610  0.76390  0.54466  Biso   1.000  C
  H37      1.0000 0.99450  0.69550  0.01090  Biso   1.000  H
  H38      1.0000 0.50550  0.19550  0.48910  Biso   1.000  H
  H39      1.0000 0.00550  0.30450  0.98910  Biso   1.000  H
  H40      1.0000 0.49450  0.80450  0.51090  Biso   1.000  H
  C61      1.0000 0.88091  0.72292  0.29404  Biso   1.000  C
  C62      1.0000 0.61909  0.22292  0.20596  Biso   1.000  C
  C63      1.0000 0.11909  0.27708  0.70596  Biso   1.000  C
  C64      1.0000 0.38091  0.77708  0.79404  Biso   1.000  C
  C65      1.0000 0.87178  0.75322  0.18831  Biso   1.000  C
  C66      1.0000 0.62822  0.25322  0.31169  Biso   1.000  C
  C67      1.0000 0.12822  0.24678  0.81169  Biso   1.000  C
  C68      1.0000 0.37178  0.74678  0.68831  Biso   1.000  C
  C69      1.0000 0.94323  0.69250  0.13682  Biso   1.000  C
  C70      1.0000 0.55677  0.19250  0.36318  Biso   1.000  C
  C71      1.0000 0.05677  0.30750  0.86318  Biso   1.000  C
  C72      1.0000 0.44323  0.80750  0.63682  Biso   1.000  C
  H41      1.0000 0.98900  0.62250  0.16450  Biso   1.000  H
  H42      1.0000 0.51100  0.12250  0.33550  Biso   1.000  H
  H43      1.0000 0.01100  0.37750  0.83550  Biso   1.000  H
  H44      1.0000 0.48900  0.87750  0.66450  Biso   1.000  H
  O9       1.0000 0.95682  0.63785  0.33512  Biso   1.000  O
  O10      1.0000 0.54318  0.13785  0.16488  Biso   1.000  O
  O11      1.0000 0.04318  0.36215  0.66488  Biso   1.000  O
  O12      1.0000 0.45682  0.86215  0.83512  Biso   1.000  O
  O13      1.0000 0.82072  0.78424  0.33928  Biso   1.000  O
  O14      1.0000 0.67928  0.28424  0.16072  Biso   1.000  O
  O15      1.0000 0.17928  0.21576  0.66072  Biso   1.000  O
  O16      1.0000 0.32072  0.71576  0.83928  Biso   1.000  O
