data_image0
_cell_length_a       9.035
_cell_length_b       5.192
_cell_length_c       11.695
_cell_angle_alpha    85.88
_cell_angle_beta     95.04
_cell_angle_gamma    109.32

_symmetry_space_group_name_H-M    "P 1"
_symmetry_int_tables_number       1

loop_
  _symmetry_equiv_pos_as_xyz
  'x, y, z'

loop_
  _atom_site_label
  _atom_site_occupancy
  _atom_site_fract_x
  _atom_site_fract_y
  _atom_site_fract_z
  _atom_site_thermal_displace_type
  _atom_site_B_iso_or_equiv
  _atom_site_type_symbol
  Cu1      1.0000 0.52300  0.23530  0.44660  Biso   1.000  Cu
  Cu2      1.0000 0.47700  0.76470  0.55340  Biso   1.000  Cu
  O1       1.0000 0.45520  0.32890  0.59290  Biso   1.000  O
  O2       1.0000 0.54480  0.67110  0.40710  Biso   1.000  O
  O3       1.0000 0.58290  0.07670  0.31750  Biso   1.000  O
  O4       1.0000 0.41710  0.92330  0.68250  Biso   1.000  O
  C1       1.0000 0.41690  0.16520  0.67890  Biso   1.000  C
  C2       1.0000 0.58310  0.83480  0.32110  Biso   1.000  C
  C3       1.0000 0.36580  0.26740  0.77990  Biso   1.000  C
  C4       1.0000 0.63420  0.73260  0.22010  Biso   1.000  C
  C5       1.0000 0.33920  0.09750  0.88420  Biso   1.000  C
  C6       1.0000 0.66080  0.90250  0.11580  Biso   1.000  C
  C7       1.0000 0.28180  0.20390  0.97900  Biso   1.000  C
  C8       1.0000 0.71820  0.79610  0.02100  Biso   1.000  C
  O5       1.0000 0.30550  0.08820  0.38880  Biso   1.000  O
  O6       1.0000 0.69450  0.91180  0.61120  Biso   1.000  O
  O7       1.0000 0.73540  0.31540  0.51720  Biso   1.000  O
  O8       1.0000 0.26460  0.68460  0.48280  Biso   1.000  O
  C9       1.0000 0.22170  0.84800  0.41640  Biso   1.000  C
  C10      1.0000 0.77830  0.15200  0.58360  Biso   1.000  C
  C11      1.0000 0.05450  0.74780  0.36260  Biso   1.000  C
  C12      1.0000 0.94550  0.25220  0.63740  Biso   1.000  C
  C13      1.0000 0.01810  0.48270  0.30230  Biso   1.000  C
  C14      1.0000 0.98190  0.51730  0.69770  Biso   1.000  C
  C15      1.0000 0.11360  0.51290  0.20070  Biso   1.000  C
  C16      1.0000 0.88640  0.48710  0.79930  Biso   1.000  C
  H1       1.0000 0.26920  0.30050  0.75570  Biso   1.000  H
  H2       1.0000 0.73080  0.69950  0.24430  Biso   1.000  H
  H3       1.0000 0.44550  0.43680  0.79890  Biso   1.000  H
  H4       1.0000 0.55450  0.56320  0.20110  Biso   1.000  H
  H5       1.0000 0.26280  0.92450  0.86550  Biso   1.000  H
  H6       1.0000 0.73720  0.07550  0.13450  Biso   1.000  H
  H7       1.0000 0.43680  0.07130  0.91150  Biso   1.000  H
  H8       1.0000 0.56320  0.92870  0.08850  Biso   1.000  H
  H9       1.0000 0.26810  0.07600  0.04390  Biso   1.000  H
  H10      1.0000 0.73190  0.92400  0.95610  Biso   1.000  H
  H11      1.0000 0.18310  0.22890  0.95440  Biso   1.000  H
  H12      1.0000 0.81690  0.77110  0.04560  Biso   1.000  H
  H13      1.0000 0.35710  0.37570  0.00030  Biso   1.000  H
  H14      1.0000 0.64290  0.62430  0.99970  Biso   1.000  H
  H15      1.0000 0.03990  0.88510  0.30750  Biso   1.000  H
  H16      1.0000 0.96010  0.11490  0.69250  Biso   1.000  H
  H17      1.0000 0.98320  0.71950  0.42200  Biso   1.000  H
  H18      1.0000 0.01680  0.28050  0.57800  Biso   1.000  H
  H19      1.0000 0.90870  0.42150  0.27660  Biso   1.000  H
  H20      1.0000 0.09130  0.57850  0.72340  Biso   1.000  H
  H21      1.0000 0.03960  0.34880  0.35610  Biso   1.000  H
  H22      1.0000 0.96040  0.65120  0.64390  Biso   1.000  H
  H23      1.0000 0.08620  0.34010  0.16570  Biso   1.000  H
  H24      1.0000 0.91380  0.65990  0.83430  Biso   1.000  H
  H25      1.0000 0.22330  0.57250  0.22540  Biso   1.000  H
  H26      1.0000 0.77670  0.42750  0.77460  Biso   1.000  H
  H27      1.0000 0.09230  0.64520  0.14600  Biso   1.000  H
  H28      1.0000 0.90770  0.35480  0.85400  Biso   1.000  H
