data_image0
_cell_length_a       9.004
_cell_length_b       11.736
_cell_length_c       5.162
_cell_angle_alpha    94.7
_cell_angle_beta     71.3
_cell_angle_gamma    95.2

_symmetry_space_group_name_H-M    "P 1"
_symmetry_int_tables_number       1

loop_
  _symmetry_equiv_pos_as_xyz
  'x, y, z'

loop_
  _atom_site_label
  _atom_site_occupancy
  _atom_site_fract_x
  _atom_site_fract_y
  _atom_site_fract_z
  _atom_site_thermal_displace_type
  _atom_site_B_iso_or_equiv
  _atom_site_type_symbol
  Cu1      1.0000 0.02270  0.94660  0.76530  Biso   1.000  Cu
  Cu2      1.0000 0.97730  0.05340  0.23470  Biso   1.000  Cu
  C1       1.0000 0.08520  0.82000  0.16600  Biso   1.000  C
  C2       1.0000 0.91480  0.18000  0.83400  Biso   1.000  C
  C3       1.0000 0.86270  0.27920  0.73440  Biso   1.000  C
  C4       1.0000 0.13730  0.72080  0.26560  Biso   1.000  C
  C5       1.0000 0.84840  0.38360  0.90240  Biso   1.000  C
  C6       1.0000 0.15160  0.61640  0.09760  Biso   1.000  C
  C7       1.0000 0.77960  0.47800  0.79620  Biso   1.000  C
  C8       1.0000 0.22040  0.52200  0.20380  Biso   1.000  C
  C9       1.0000 0.51810  0.80210  0.52170  Biso   1.000  C
  C10      1.0000 0.48190  0.19790  0.47830  Biso   1.000  C
  C11      1.0000 0.61720  0.69640  0.48580  Biso   1.000  C
  C12      1.0000 0.38280  0.30360  0.51420  Biso   1.000  C
  C13      1.0000 0.55640  0.86190  0.24600  Biso   1.000  C
  C14      1.0000 0.44360  0.13810  0.75400  Biso   1.000  C
  C15      1.0000 0.71960  0.91750  0.15250  Biso   1.000  C
  C16      1.0000 0.28040  0.08250  0.84750  Biso   1.000  C
  O1       1.0000 0.95490  0.09810  0.67610  Biso   1.000  O
  O2       1.0000 0.04510  0.90190  0.32390  Biso   1.000  O
  O3       1.0000 0.07940  0.81670  0.92600  Biso   1.000  O
  O4       1.0000 0.92060  0.18330  0.07400  Biso   1.000  O
  O5       1.0000 0.80450  0.88660  0.91420  Biso   1.000  O
  O6       1.0000 0.19550  0.11340  0.08580  Biso   1.000  O
  O7       1.0000 0.23430  0.01730  0.68360  Biso   1.000  O
  O8       1.0000 0.76570  0.98270  0.31640  Biso   1.000  O
