data_image0
_cell_length_a       7.88
_cell_length_b       12.045
_cell_length_c       9.208
_cell_angle_alpha    90
_cell_angle_beta     106.45
_cell_angle_gamma    90

_symmetry_space_group_name_H-M    "P 1"
_symmetry_int_tables_number       1

loop_
  _symmetry_equiv_pos_as_xyz
  'x, y, z'

loop_
  _atom_site_label
  _atom_site_occupancy
  _atom_site_fract_x
  _atom_site_fract_y
  _atom_site_fract_z
  _atom_site_thermal_displace_type
  _atom_site_B_iso_or_equiv
  _atom_site_type_symbol
  Cu1      1.0000 0.00000  0.00000  0.00000  Biso   1.000  Cu
  Cu2      1.0000 0.50000  0.50000  0.00000  Biso   1.000  Cu
  Cu3      1.0000 0.91500  0.00000  0.31090  Biso   1.000  Cu
  Cu4      1.0000 0.41500  0.50000  0.31090  Biso   1.000  Cu
  Cu5      1.0000 0.08500  0.00000  0.68910  Biso   1.000  Cu
  Cu6      1.0000 0.58500  0.50000  0.68910  Biso   1.000  Cu
  Cl1      1.0000 0.87830  0.13070  0.12210  Biso   1.000  Cl
  Cl2      1.0000 0.37830  0.63070  0.12210  Biso   1.000  Cl
  Cl3      1.0000 0.12170  0.13070  0.87790  Biso   1.000  Cl
  Cl4      1.0000 0.62170  0.63070  0.87790  Biso   1.000  Cl
  Cl5      1.0000 0.12170  0.86930  0.87790  Biso   1.000  Cl
  Cl6      1.0000 0.62170  0.36930  0.87790  Biso   1.000  Cl
  Cl7      1.0000 0.87830  0.86930  0.12210  Biso   1.000  Cl
  Cl8      1.0000 0.37830  0.36930  0.12210  Biso   1.000  Cl
  Cl9      1.0000 0.00000  0.13070  0.50000  Biso   1.000  Cl
  Cl10     1.0000 0.50000  0.63070  0.50000  Biso   1.000  Cl
  Cl11     1.0000 0.00000  0.86930  0.50000  Biso   1.000  Cl
  Cl12     1.0000 0.50000  0.36930  0.50000  Biso   1.000  Cl
  O1       1.0000 0.24070  0.00000  0.23480  Biso   1.000  O
  O2       1.0000 0.74070  0.50000  0.23480  Biso   1.000  O
  O3       1.0000 0.75930  0.00000  0.76520  Biso   1.000  O
  O4       1.0000 0.25930  0.50000  0.76520  Biso   1.000  O
  O5       1.0000 0.61750  0.00000  0.30970  Biso   1.000  O
  O6       1.0000 0.11750  0.50000  0.30970  Biso   1.000  O
  O7       1.0000 0.38250  0.00000  0.69030  Biso   1.000  O
  O8       1.0000 0.88250  0.50000  0.69030  Biso   1.000  O
  C1       1.0000 0.34190  0.09770  0.29420  Biso   1.000  C
  C2       1.0000 0.84190  0.59770  0.29420  Biso   1.000  C
  C3       1.0000 0.65810  0.09770  0.70580  Biso   1.000  C
  C4       1.0000 0.15810  0.59770  0.70580  Biso   1.000  C
  C5       1.0000 0.65810  0.90230  0.70580  Biso   1.000  C
  C6       1.0000 0.15810  0.40230  0.70580  Biso   1.000  C
  C7       1.0000 0.34190  0.90230  0.29420  Biso   1.000  C
  C8       1.0000 0.84190  0.40230  0.29420  Biso   1.000  C
  C9       1.0000 0.51610  0.10060  0.25170  Biso   1.000  C
  C10      1.0000 0.01610  0.60060  0.25170  Biso   1.000  C
  C11      1.0000 0.48390  0.10060  0.74830  Biso   1.000  C
  C12      1.0000 0.98390  0.60060  0.74830  Biso   1.000  C
  C13      1.0000 0.48390  0.89940  0.74830  Biso   1.000  C
  C14      1.0000 0.98390  0.39940  0.74830  Biso   1.000  C
  C15      1.0000 0.51610  0.89940  0.25170  Biso   1.000  C
  C16      1.0000 0.01610  0.39940  0.25170  Biso   1.000  C
