data_image0
_cell_length_a       7.8677
_cell_length_b       12.041
_cell_length_c       9.1884
_cell_angle_alpha    90
_cell_angle_beta     106.371
_cell_angle_gamma    90

_symmetry_space_group_name_H-M    "P 1"
_symmetry_int_tables_number       1

loop_
  _symmetry_equiv_pos_as_xyz
  'x, y, z'

loop_
  _atom_site_label
  _atom_site_occupancy
  _atom_site_fract_x
  _atom_site_fract_y
  _atom_site_fract_z
  _atom_site_thermal_displace_type
  _atom_site_B_iso_or_equiv
  _atom_site_type_symbol
  Cu1      1.0000 0.08484  0.00000  0.68905  Biso   1.000  Cu
  Cu2      1.0000 0.91516  0.00000  0.31095  Biso   1.000  Cu
  Cu3      1.0000 0.58484  0.50000  0.68905  Biso   1.000  Cu
  Cu4      1.0000 0.41516  0.50000  0.31095  Biso   1.000  Cu
  Cu5      1.0000 0.00000  0.00000  0.00000  Biso   1.000  Cu
  Cu6      1.0000 0.50000  0.50000  0.00000  Biso   1.000  Cu
  Cl1      1.0000 0.00000  0.13058  0.50000  Biso   1.000  Cl
  Cl2      1.0000 0.50000  0.63058  0.50000  Biso   1.000  Cl
  Cl3      1.0000 0.00000  0.86942  0.50000  Biso   1.000  Cl
  Cl4      1.0000 0.50000  0.36942  0.50000  Biso   1.000  Cl
  Cl5      1.0000 0.12292  0.13055  0.87799  Biso   1.000  Cl
  Cl6      1.0000 0.87708  0.13055  0.12201  Biso   1.000  Cl
  Cl7      1.0000 0.62292  0.63055  0.87799  Biso   1.000  Cl
  Cl8      1.0000 0.37708  0.63055  0.12201  Biso   1.000  Cl
  Cl9      1.0000 0.87708  0.86945  0.12201  Biso   1.000  Cl
  Cl10     1.0000 0.12292  0.86945  0.87799  Biso   1.000  Cl
  Cl11     1.0000 0.37708  0.36945  0.12201  Biso   1.000  Cl
  Cl12     1.0000 0.62292  0.36945  0.87799  Biso   1.000  Cl
  O1       1.0000 0.38490  0.00000  0.68960  Biso   1.000  O
  O2       1.0000 0.61510  0.00000  0.31040  Biso   1.000  O
  O3       1.0000 0.88490  0.50000  0.68960  Biso   1.000  O
  O4       1.0000 0.11510  0.50000  0.31040  Biso   1.000  O
  C1       1.0000 0.48690  0.09760  0.74740  Biso   1.000  C
  C2       1.0000 0.51310  0.09760  0.25260  Biso   1.000  C
  C3       1.0000 0.98690  0.59760  0.74740  Biso   1.000  C
  C4       1.0000 0.01310  0.59760  0.25260  Biso   1.000  C
  C5       1.0000 0.51310  0.90240  0.25260  Biso   1.000  C
  C6       1.0000 0.48690  0.90240  0.74740  Biso   1.000  C
  C7       1.0000 0.01310  0.40240  0.25260  Biso   1.000  C
  C8       1.0000 0.98690  0.40240  0.74740  Biso   1.000  C
  H1       1.0000 0.51010  0.10030  0.85680  Biso   1.000  H
  H2       1.0000 0.48990  0.10030  0.14320  Biso   1.000  H
  H3       1.0000 0.01010  0.60030  0.85680  Biso   1.000  H
  H4       1.0000 0.98990  0.60030  0.14320  Biso   1.000  H
  H5       1.0000 0.48990  0.89970  0.14320  Biso   1.000  H
  H6       1.0000 0.51010  0.89970  0.85680  Biso   1.000  H
  H7       1.0000 0.98990  0.39970  0.14320  Biso   1.000  H
  H8       1.0000 0.01010  0.39970  0.85680  Biso   1.000  H
  H9       1.0000 0.41940  0.16320  0.70510  Biso   1.000  H
  H10      1.0000 0.58060  0.16320  0.29490  Biso   1.000  H
  H11      1.0000 0.91940  0.66320  0.70510  Biso   1.000  H
  H12      1.0000 0.08060  0.66320  0.29490  Biso   1.000  H
  H13      1.0000 0.58060  0.83680  0.29490  Biso   1.000  H
  H14      1.0000 0.41940  0.83680  0.70510  Biso   1.000  H
  H15      1.0000 0.08060  0.33680  0.29490  Biso   1.000  H
  H16      1.0000 0.91940  0.33680  0.70510  Biso   1.000  H
  C9       1.0000 0.65910  0.09770  0.70780  Biso   1.000  C
  C10      1.0000 0.34090  0.09770  0.29220  Biso   1.000  C
  C11      1.0000 0.15910  0.59770  0.70780  Biso   1.000  C
  C12      1.0000 0.84090  0.59770  0.29220  Biso   1.000  C
  C13      1.0000 0.34090  0.90230  0.29220  Biso   1.000  C
  C14      1.0000 0.65910  0.90230  0.70780  Biso   1.000  C
  C15      1.0000 0.84090  0.40230  0.29220  Biso   1.000  C
  C16      1.0000 0.15910  0.40230  0.70780  Biso   1.000  C
  H17      1.0000 0.63580  0.10090  0.59840  Biso   1.000  H
  H18      1.0000 0.36420  0.10090  0.40160  Biso   1.000  H
  H19      1.0000 0.13580  0.60090  0.59840  Biso   1.000  H
  H20      1.0000 0.86420  0.60090  0.40160  Biso   1.000  H
  H21      1.0000 0.36420  0.89910  0.40160  Biso   1.000  H
  H22      1.0000 0.63580  0.89910  0.59840  Biso   1.000  H
  H23      1.0000 0.86420  0.39910  0.40160  Biso   1.000  H
  H24      1.0000 0.13580  0.39910  0.59840  Biso   1.000  H
  H25      1.0000 0.72670  0.16320  0.75060  Biso   1.000  H
  H26      1.0000 0.27330  0.16320  0.24940  Biso   1.000  H
  H27      1.0000 0.22670  0.66320  0.75060  Biso   1.000  H
  H28      1.0000 0.77330  0.66320  0.24940  Biso   1.000  H
  H29      1.0000 0.27330  0.83680  0.24940  Biso   1.000  H
  H30      1.0000 0.72670  0.83680  0.75060  Biso   1.000  H
  H31      1.0000 0.77330  0.33680  0.24940  Biso   1.000  H
  H32      1.0000 0.22670  0.33680  0.75060  Biso   1.000  H
  O5       1.0000 0.76100  0.00000  0.76460  Biso   1.000  O
  O6       1.0000 0.23900  0.00000  0.23540  Biso   1.000  O
  O7       1.0000 0.26100  0.50000  0.76460  Biso   1.000  O
  O8       1.0000 0.73900  0.50000  0.23540  Biso   1.000  O
