data_image0
_cell_length_a       6.9199
_cell_length_b       9.7269
_cell_length_c       14.4865
_cell_angle_alpha    90
_cell_angle_beta     91.308
_cell_angle_gamma    90

_symmetry_space_group_name_H-M    "P 1"
_symmetry_int_tables_number       1

loop_
  _symmetry_equiv_pos_as_xyz
  'x, y, z'

loop_
  _atom_site_label
  _atom_site_occupancy
  _atom_site_fract_x
  _atom_site_fract_y
  _atom_site_fract_z
  _atom_site_thermal_displace_type
  _atom_site_B_iso_or_equiv
  _atom_site_type_symbol
  Cu1      1.0000 0.19806  0.24792  0.16247  Biso   1.000  Cu
  Cu2      1.0000 0.80194  0.74792  0.33753  Biso   1.000  Cu
  Cu3      1.0000 0.80194  0.75208  0.83753  Biso   1.000  Cu
  Cu4      1.0000 0.19806  0.25208  0.66247  Biso   1.000  Cu
  Cu5      1.0000 0.41174  0.15226  0.35347  Biso   1.000  Cu
  Cu6      1.0000 0.58826  0.65226  0.14653  Biso   1.000  Cu
  Cu7      1.0000 0.58826  0.84774  0.64653  Biso   1.000  Cu
  Cu8      1.0000 0.41174  0.34774  0.85347  Biso   1.000  Cu
  O1       1.0000 0.30540  0.30170  0.28200  Biso   1.000  O
  O2       1.0000 0.69460  0.80170  0.21800  Biso   1.000  O
  O3       1.0000 0.69460  0.69830  0.71800  Biso   1.000  O
  O4       1.0000 0.30540  0.19830  0.78200  Biso   1.000  O
  O5       1.0000 0.05490  0.41740  0.17087  Biso   1.000  O
  O6       1.0000 0.94510  0.91740  0.32913  Biso   1.000  O
  O7       1.0000 0.94510  0.58260  0.82913  Biso   1.000  O
  O8       1.0000 0.05490  0.08260  0.67087  Biso   1.000  O
  C1       1.0000 0.18710  0.40120  0.32500  Biso   1.000  C
  C2       1.0000 0.81290  0.90120  0.17500  Biso   1.000  C
  C3       1.0000 0.81290  0.59880  0.67500  Biso   1.000  C
  C4       1.0000 0.18710  0.09880  0.82500  Biso   1.000  C
  O9       1.0000 0.26900  0.18490  0.46360  Biso   1.000  O
  O10      1.0000 0.73100  0.68490  0.03640  Biso   1.000  O
  O11      1.0000 0.73100  0.81510  0.53640  Biso   1.000  O
  O12      1.0000 0.26900  0.31510  0.96360  Biso   1.000  O
  C5       1.0000 0.06790  0.47800  0.25030  Biso   1.000  C
  C6       1.0000 0.93210  0.97800  0.24970  Biso   1.000  C
  C7       1.0000 0.93210  0.52200  0.74970  Biso   1.000  C
  C8       1.0000 0.06790  0.02200  0.75030  Biso   1.000  C
  C9       1.0000 0.31120  0.50080  0.38300  Biso   1.000  C
  C10      1.0000 0.68880  0.00080  0.11700  Biso   1.000  C
  C11      1.0000 0.68880  0.49920  0.61700  Biso   1.000  C
  C12      1.0000 0.31120  0.99920  0.88300  Biso   1.000  C
  H1       1.0000 0.22700  0.56660  0.41240  Biso   1.000  H
  H2       1.0000 0.77300  0.06660  0.08760  Biso   1.000  H
  H3       1.0000 0.77300  0.43340  0.58760  Biso   1.000  H
  H4       1.0000 0.22700  0.93340  0.91240  Biso   1.000  H
  H5       1.0000 0.37820  0.44950  0.43140  Biso   1.000  H
  H6       1.0000 0.62180  0.94950  0.06860  Biso   1.000  H
  H7       1.0000 0.62180  0.55050  0.56860  Biso   1.000  H
  H8       1.0000 0.37820  0.05050  0.93140  Biso   1.000  H
  C13      1.0000 0.45750  0.57760  0.32780  Biso   1.000  C
  C14      1.0000 0.54250  0.07760  0.17220  Biso   1.000  C
  C15      1.0000 0.54250  0.42240  0.67220  Biso   1.000  C
  C16      1.0000 0.45750  0.92240  0.82780  Biso   1.000  C
  O13      1.0000 0.33370  0.92500  0.37020  Biso   1.000  O
  O14      1.0000 0.66630  0.42500  0.12980  Biso   1.000  O
  O15      1.0000 0.66630  0.07500  0.62980  Biso   1.000  O
  O16      1.0000 0.33370  0.57500  0.87020  Biso   1.000  O
  O17      1.0000 0.65740  0.11520  0.43720  Biso   1.000  O
  O18      1.0000 0.34260  0.61520  0.06280  Biso   1.000  O
  O19      1.0000 0.34260  0.88480  0.56280  Biso   1.000  O
  O20      1.0000 0.65740  0.38480  0.93720  Biso   1.000  O
  C17      1.0000 0.03560  0.33350  0.38690  Biso   1.000  C
  C18      1.0000 0.96440  0.83350  0.11310  Biso   1.000  C
  C19      1.0000 0.96440  0.66650  0.61310  Biso   1.000  C
  C20      1.0000 0.03560  0.16650  0.88690  Biso   1.000  C
  H9       1.0000 0.94420  0.40270  0.40640  Biso   1.000  H
  H10      1.0000 0.05580  0.90270  0.09360  Biso   1.000  H
  H11      1.0000 0.05580  0.59730  0.59360  Biso   1.000  H
  H12      1.0000 0.94420  0.09730  0.90640  Biso   1.000  H
  H13      1.0000 0.96460  0.26470  0.35150  Biso   1.000  H
  H14      1.0000 0.03540  0.76470  0.14850  Biso   1.000  H
  H15      1.0000 0.03540  0.73530  0.64850  Biso   1.000  H
  H16      1.0000 0.96460  0.23530  0.85150  Biso   1.000  H
  O21      1.0000 0.42300  0.59500  0.24360  Biso   1.000  O
  O22      1.0000 0.57700  0.09500  0.25640  Biso   1.000  O
  O23      1.0000 0.57700  0.40500  0.75640  Biso   1.000  O
  O24      1.0000 0.42300  0.90500  0.74360  Biso   1.000  O
  O25      1.0000 0.60020  0.62220  0.37100  Biso   1.000  O
  O26      1.0000 0.39980  0.12220  0.12900  Biso   1.000  O
  O27      1.0000 0.39980  0.37780  0.62900  Biso   1.000  O
  O28      1.0000 0.60020  0.87780  0.87100  Biso   1.000  O
  O29      1.0000 0.98220  0.58330  0.26690  Biso   1.000  O
  O30      1.0000 0.01780  0.08330  0.23310  Biso   1.000  O
  O31      1.0000 0.01780  0.41670  0.73310  Biso   1.000  O
  O32      1.0000 0.98220  0.91670  0.76690  Biso   1.000  O
  C21      1.0000 0.12700  0.26690  0.47070  Biso   1.000  C
  C22      1.0000 0.87300  0.76690  0.02930  Biso   1.000  C
  C23      1.0000 0.87300  0.73310  0.52930  Biso   1.000  C
  C24      1.0000 0.12700  0.23310  0.97070  Biso   1.000  C
  O33      1.0000 0.06250  0.29820  0.54756  Biso   1.000  O
  O34      1.0000 0.93750  0.79820  0.95244  Biso   1.000  O
  O35      1.0000 0.93750  0.70180  0.45244  Biso   1.000  O
  O36      1.0000 0.06250  0.20180  0.04756  Biso   1.000  O
  H17      1.0000 0.38300  0.88000  0.34200  Biso   1.000  H
  H18      1.0000 0.61700  0.38000  0.15800  Biso   1.000  H
  H19      1.0000 0.61700  0.12000  0.65800  Biso   1.000  H
  H20      1.0000 0.38300  0.62000  0.84200  Biso   1.000  H
  H21      1.0000 0.71700  0.05000  0.42400  Biso   1.000  H
  H22      1.0000 0.28300  0.55000  0.07600  Biso   1.000  H
  H23      1.0000 0.28300  0.95000  0.57600  Biso   1.000  H
  H24      1.0000 0.71700  0.45000  0.92400  Biso   1.000  H
  H25      1.0000 0.24000  0.89200  0.35300  Biso   1.000  H
  H26      1.0000 0.76000  0.39200  0.14700  Biso   1.000  H
  H27      1.0000 0.76000  0.10800  0.64700  Biso   1.000  H
  H28      1.0000 0.24000  0.60800  0.85300  Biso   1.000  H
  H29      1.0000 0.64600  0.13200  0.49600  Biso   1.000  H
  H30      1.0000 0.35400  0.63200  0.00400  Biso   1.000  H
  H31      1.0000 0.35400  0.86800  0.50400  Biso   1.000  H
  H32      1.0000 0.64600  0.36800  0.99600  Biso   1.000  H
