data_image0
_cell_length_a       14.477
_cell_length_b       9.718
_cell_length_c       6.89
_cell_angle_alpha    90
_cell_angle_beta     91.27
_cell_angle_gamma    90

_symmetry_space_group_name_H-M    "P 1"
_symmetry_int_tables_number       1

loop_
  _symmetry_equiv_pos_as_xyz
  'x, y, z'

loop_
  _atom_site_label
  _atom_site_occupancy
  _atom_site_fract_x
  _atom_site_fract_y
  _atom_site_fract_z
  _atom_site_thermal_displace_type
  _atom_site_B_iso_or_equiv
  _atom_site_type_symbol
  Cu1      1.0000 0.16250  0.74780  0.19800  Biso   1.000  Cu
  Cu2      1.0000 0.33750  0.24780  0.80200  Biso   1.000  Cu
  Cu3      1.0000 0.83750  0.25220  0.80200  Biso   1.000  Cu
  Cu4      1.0000 0.66250  0.75220  0.19800  Biso   1.000  Cu
  Cu5      1.0000 0.35350  0.65180  0.41220  Biso   1.000  Cu
  Cu6      1.0000 0.14650  0.15180  0.58780  Biso   1.000  Cu
  Cu7      1.0000 0.64650  0.34820  0.58780  Biso   1.000  Cu
  Cu8      1.0000 0.85350  0.84820  0.41220  Biso   1.000  Cu
  C1       1.0000 0.47000  0.76970  0.12740  Biso   1.000  C
  C2       1.0000 0.03000  0.26970  0.87260  Biso   1.000  C
  C3       1.0000 0.53000  0.23030  0.87260  Biso   1.000  C
  C4       1.0000 0.97000  0.73030  0.12740  Biso   1.000  C
  C5       1.0000 0.38820  0.83310  0.03670  Biso   1.000  C
  C6       1.0000 0.11180  0.33310  0.96330  Biso   1.000  C
  C7       1.0000 0.61180  0.16690  0.96330  Biso   1.000  C
  C8       1.0000 0.88820  0.66690  0.03670  Biso   1.000  C
  C9       1.0000 0.32570  0.90270  0.18260  Biso   1.000  C
  C10      1.0000 0.17430  0.40270  0.81740  Biso   1.000  C
  C11      1.0000 0.67430  0.09730  0.81740  Biso   1.000  C
  C12      1.0000 0.82570  0.59730  0.18260  Biso   1.000  C
  C13      1.0000 0.38390  0.00130  0.30890  Biso   1.000  C
  C14      1.0000 0.11610  0.50130  0.69110  Biso   1.000  C
  C15      1.0000 0.61610  0.99870  0.69110  Biso   1.000  C
  C16      1.0000 0.88390  0.49870  0.30890  Biso   1.000  C
  C17      1.0000 0.32750  0.07570  0.45460  Biso   1.000  C
  C18      1.0000 0.17250  0.57570  0.54540  Biso   1.000  C
  C19      1.0000 0.67250  0.92430  0.54540  Biso   1.000  C
  C20      1.0000 0.82750  0.42430  0.45460  Biso   1.000  C
  C21      1.0000 0.25130  0.97630  0.06830  Biso   1.000  C
  C22      1.0000 0.24870  0.47630  0.93170  Biso   1.000  C
  C23      1.0000 0.74870  0.02370  0.93170  Biso   1.000  C
  C24      1.0000 0.75130  0.52370  0.06830  Biso   1.000  C
  H1       1.0000 0.34770  0.75150  0.96510  Biso   1.000  H
  H2       1.0000 0.15230  0.25150  0.03490  Biso   1.000  H
  H3       1.0000 0.65230  0.24850  0.03490  Biso   1.000  H
  H4       1.0000 0.84770  0.74850  0.96510  Biso   1.000  H
  H5       1.0000 0.40940  0.90630  0.93090  Biso   1.000  H
  H6       1.0000 0.09060  0.40630  0.06910  Biso   1.000  H
  H7       1.0000 0.59060  0.09370  0.06910  Biso   1.000  H
  H8       1.0000 0.90940  0.59370  0.93090  Biso   1.000  H
  H9       1.0000 0.43780  0.94360  0.38550  Biso   1.000  H
  H10      1.0000 0.06220  0.44360  0.61450  Biso   1.000  H
  H11      1.0000 0.56220  0.05640  0.61450  Biso   1.000  H
  H12      1.0000 0.93780  0.55640  0.38550  Biso   1.000  H
  H13      1.0000 0.41550  0.07750  0.21740  Biso   1.000  H
  H14      1.0000 0.08450  0.57750  0.78260  Biso   1.000  H
  H15      1.0000 0.58450  0.92250  0.78260  Biso   1.000  H
  H16      1.0000 0.91550  0.42250  0.21740  Biso   1.000  H
  O1       1.0000 0.54720  0.79910  0.06180  Biso   1.000  O
  O2       1.0000 0.95280  0.29910  0.93820  Biso   1.000  O
  O3       1.0000 0.45280  0.20090  0.93820  Biso   1.000  O
  O4       1.0000 0.04720  0.70090  0.06180  Biso   1.000  O
  O5       1.0000 0.46310  0.68530  0.26810  Biso   1.000  O
  O6       1.0000 0.03690  0.18530  0.73190  Biso   1.000  O
  O7       1.0000 0.53690  0.31470  0.73190  Biso   1.000  O
  O8       1.0000 0.96310  0.81470  0.26810  Biso   1.000  O
  O9       1.0000 0.24360  0.09390  0.42240  Biso   1.000  O
  O10      1.0000 0.25640  0.59390  0.57760  Biso   1.000  O
  O11      1.0000 0.75640  0.90610  0.57760  Biso   1.000  O
  O12      1.0000 0.74360  0.40610  0.42240  Biso   1.000  O
  O13      1.0000 0.37150  0.12160  0.59920  Biso   1.000  O
  O14      1.0000 0.12850  0.62160  0.40080  Biso   1.000  O
  O15      1.0000 0.62850  0.87840  0.40080  Biso   1.000  O
  O16      1.0000 0.87150  0.37840  0.59920  Biso   1.000  O
  O17      1.0000 0.17140  0.91500  0.05340  Biso   1.000  O
  O18      1.0000 0.32860  0.41500  0.94660  Biso   1.000  O
  O19      1.0000 0.82860  0.08500  0.94660  Biso   1.000  O
  O20      1.0000 0.67140  0.58500  0.05340  Biso   1.000  O
  O21      1.0000 0.26650  0.08340  0.98080  Biso   1.000  O
  O22      1.0000 0.23350  0.58340  0.01920  Biso   1.000  O
  O23      1.0000 0.73350  0.91660  0.01920  Biso   1.000  O
  O24      1.0000 0.76650  0.41660  0.98080  Biso   1.000  O
  O25      1.0000 0.28120  0.79980  0.30550  Biso   1.000  O
  O26      1.0000 0.21880  0.29980  0.69450  Biso   1.000  O
  O27      1.0000 0.71880  0.20020  0.69450  Biso   1.000  O
  O28      1.0000 0.78120  0.70020  0.30550  Biso   1.000  O
  O29      1.0000 0.37000  0.42450  0.33530  Biso   1.000  O
  O30      1.0000 0.13000  0.92450  0.66470  Biso   1.000  O
  O31      1.0000 0.63000  0.57550  0.66470  Biso   1.000  O
  O32      1.0000 0.87000  0.07550  0.33530  Biso   1.000  O
  O33      1.0000 0.43740  0.61460  0.65840  Biso   1.000  O
  O34      1.0000 0.06260  0.11460  0.34160  Biso   1.000  O
  O35      1.0000 0.56260  0.38540  0.34160  Biso   1.000  O
  O36      1.0000 0.93740  0.88540  0.65840  Biso   1.000  O
