data_image0
_cell_length_a       13.749
_cell_length_b       9.713
_cell_length_c       14.471
_cell_angle_alpha    90
_cell_angle_beta     91.56
_cell_angle_gamma    90

_symmetry_space_group_name_H-M    "P 1"
_symmetry_int_tables_number       1

loop_
  _symmetry_equiv_pos_as_xyz
  'x, y, z'

loop_
  _atom_site_label
  _atom_site_occupancy
  _atom_site_fract_x
  _atom_site_fract_y
  _atom_site_fract_z
  _atom_site_thermal_displace_type
  _atom_site_B_iso_or_equiv
  _atom_site_type_symbol
  Cu1      1.0000 0.46981  0.66993  0.36000  Biso   1.000  Cu
  Cu2      1.0000 0.53019  0.16993  0.14000  Biso   1.000  Cu
  Cu3      1.0000 0.53019  0.33007  0.64000  Biso   1.000  Cu
  Cu4      1.0000 0.46981  0.83007  0.86000  Biso   1.000  Cu
  Cu5      1.0000 0.34787  0.76017  0.66600  Biso   1.000  Cu
  Cu6      1.0000 0.65213  0.26017  0.83400  Biso   1.000  Cu
  Cu7      1.0000 0.65213  0.23983  0.33400  Biso   1.000  Cu
  Cu8      1.0000 0.34787  0.73983  0.16600  Biso   1.000  Cu
  Cu9      1.0000 0.06839  0.37873  0.65292  Biso   1.000  Cu
  Cu10     1.0000 0.93161  0.87873  0.84708  Biso   1.000  Cu
  Cu11     1.0000 0.93161  0.62127  0.34708  Biso   1.000  Cu
  Cu12     1.0000 0.06839  0.12127  0.15292  Biso   1.000  Cu
  Cu13     1.0000 0.15173  0.25321  0.33927  Biso   1.000  Cu
  Cu14     1.0000 0.84827  0.75321  0.16073  Biso   1.000  Cu
  Cu15     1.0000 0.84827  0.74679  0.66073  Biso   1.000  Cu
  Cu16     1.0000 0.15173  0.24679  0.83927  Biso   1.000  Cu
  Cu17     1.0000 0.44900  0.64400  0.35220  Biso   1.000  Cu
  Cu18     1.0000 0.55100  0.14400  0.14780  Biso   1.000  Cu
  Cu19     1.0000 0.55100  0.35600  0.64780  Biso   1.000  Cu
  Cu20     1.0000 0.44900  0.85600  0.85220  Biso   1.000  Cu
  Cu21     1.0000 0.03810  0.15740  0.14510  Biso   1.000  Cu
  Cu22     1.0000 0.96190  0.65740  0.35490  Biso   1.000  Cu
  Cu23     1.0000 0.96190  0.84260  0.85490  Biso   1.000  Cu
  Cu24     1.0000 0.03810  0.34260  0.64510  Biso   1.000  Cu
  O1       1.0000 0.58264  0.60950  0.44238  Biso   1.000  O
  O2       1.0000 0.41736  0.10950  0.05762  Biso   1.000  O
  O3       1.0000 0.41736  0.39050  0.55762  Biso   1.000  O
  O4       1.0000 0.58264  0.89050  0.94238  Biso   1.000  O
  H1       1.0000 0.61420  0.54150  0.42350  Biso   1.000  H
  H2       1.0000 0.38580  0.04150  0.07650  Biso   1.000  H
  H3       1.0000 0.38580  0.45850  0.57650  Biso   1.000  H
  H4       1.0000 0.61420  0.95850  0.92350  Biso   1.000  H
  H5       1.0000 0.58270  0.59520  0.49960  Biso   1.000  H
  H6       1.0000 0.41730  0.09520  0.00040  Biso   1.000  H
  H7       1.0000 0.41730  0.40480  0.50040  Biso   1.000  H
  H8       1.0000 0.58270  0.90480  0.99960  Biso   1.000  H
  O5       1.0000 0.41608  0.43890  0.36561  Biso   1.000  O
  O6       1.0000 0.58392  0.93890  0.13439  Biso   1.000  O
  O7       1.0000 0.58392  0.56110  0.63439  Biso   1.000  O
  O8       1.0000 0.41608  0.06110  0.86561  Biso   1.000  O
  H9       1.0000 0.35820  0.42480  0.34810  Biso   1.000  H
  H10      1.0000 0.64180  0.92480  0.15190  Biso   1.000  H
  H11      1.0000 0.64180  0.57520  0.65190  Biso   1.000  H
  H12      1.0000 0.35820  0.07520  0.84810  Biso   1.000  H
  H13      1.0000 0.43810  0.38990  0.32320  Biso   1.000  H
  H14      1.0000 0.56190  0.88990  0.17680  Biso   1.000  H
  H15      1.0000 0.56190  0.61010  0.67680  Biso   1.000  H
  H16      1.0000 0.43810  0.11010  0.82320  Biso   1.000  H
  O9       1.0000 0.92587  0.37670  0.57486  Biso   1.000  O
  O10      1.0000 0.07413  0.87670  0.92514  Biso   1.000  O
  O11      1.0000 0.07413  0.62330  0.42514  Biso   1.000  O
  O12      1.0000 0.92587  0.12330  0.07486  Biso   1.000  O
  H17      1.0000 0.92120  0.38270  0.51700  Biso   1.000  H
  H18      1.0000 0.07880  0.88270  0.98300  Biso   1.000  H
  H19      1.0000 0.07880  0.61730  0.48300  Biso   1.000  H
  H20      1.0000 0.92120  0.11730  0.01700  Biso   1.000  H
  H21      1.0000 0.87600  0.42140  0.58850  Biso   1.000  H
  H22      1.0000 0.12400  0.92140  0.91150  Biso   1.000  H
  H23      1.0000 0.12400  0.57860  0.41150  Biso   1.000  H
  H24      1.0000 0.87600  0.07860  0.08850  Biso   1.000  H
  O13      1.0000 0.08871  0.58641  0.61672  Biso   1.000  O
  O14      1.0000 0.91129  0.08641  0.88328  Biso   1.000  O
  O15      1.0000 0.91129  0.41359  0.38328  Biso   1.000  O
  O16      1.0000 0.08871  0.91359  0.11672  Biso   1.000  O
  H25      1.0000 0.14770  0.59620  0.63200  Biso   1.000  H
  H26      1.0000 0.85230  0.09620  0.86800  Biso   1.000  H
  H27      1.0000 0.85230  0.40380  0.36800  Biso   1.000  H
  H28      1.0000 0.14770  0.90380  0.13200  Biso   1.000  H
  H29      1.0000 0.05290  0.64670  0.63980  Biso   1.000  H
  H30      1.0000 0.94710  0.14670  0.86020  Biso   1.000  H
  H31      1.0000 0.94710  0.35330  0.36020  Biso   1.000  H
  H32      1.0000 0.05290  0.85330  0.13980  Biso   1.000  H
  O17      1.0000 0.28209  0.80496  0.54941  Biso   1.000  O
  O18      1.0000 0.71791  0.30496  0.95059  Biso   1.000  O
  O19      1.0000 0.71791  0.19504  0.45059  Biso   1.000  O
  O20      1.0000 0.28209  0.69504  0.04941  Biso   1.000  O
  O21      1.0000 0.39643  0.70330  0.46885  Biso   1.000  O
  O22      1.0000 0.60357  0.20330  0.03115  Biso   1.000  O
  O23      1.0000 0.60357  0.29670  0.53115  Biso   1.000  O
  O24      1.0000 0.39643  0.79670  0.96885  Biso   1.000  O
  O25      1.0000 0.40390  0.80428  0.28274  Biso   1.000  O
  O26      1.0000 0.59610  0.30428  0.21726  Biso   1.000  O
  O27      1.0000 0.59610  0.19572  0.71726  Biso   1.000  O
  O28      1.0000 0.40390  0.69572  0.78274  Biso   1.000  O
  O29      1.0000 0.44720  0.11860  0.24013  Biso   1.000  O
  O30      1.0000 0.55280  0.61860  0.25987  Biso   1.000  O
  O31      1.0000 0.55280  0.88140  0.75987  Biso   1.000  O
  O32      1.0000 0.44720  0.38140  0.74013  Biso   1.000  O
  O33      1.0000 0.55877  0.09510  0.35529  Biso   1.000  O
  O34      1.0000 0.44123  0.59510  0.14471  Biso   1.000  O
  O35      1.0000 0.44123  0.90490  0.64471  Biso   1.000  O
  O36      1.0000 0.55877  0.40490  0.85529  Biso   1.000  O
  O37      1.0000 0.22539  0.06961  0.26405  Biso   1.000  O
  O38      1.0000 0.77461  0.56961  0.23595  Biso   1.000  O
  O39      1.0000 0.77461  0.93039  0.73595  Biso   1.000  O
  O40      1.0000 0.22539  0.43039  0.76405  Biso   1.000  O
  O41      1.0000 0.28046  0.91430  0.16685  Biso   1.000  O
  O42      1.0000 0.71954  0.41430  0.33315  Biso   1.000  O
  O43      1.0000 0.71954  0.08570  0.83315  Biso   1.000  O
  O44      1.0000 0.28046  0.58570  0.66685  Biso   1.000  O
  C1       1.0000 0.31930  0.77570  0.47378  Biso   1.000  C
  C2       1.0000 0.68070  0.27570  0.02622  Biso   1.000  C
  C3       1.0000 0.68070  0.22430  0.52622  Biso   1.000  C
  C4       1.0000 0.31930  0.72430  0.97378  Biso   1.000  C
  C5       1.0000 0.26865  0.83290  0.38848  Biso   1.000  C
  C6       1.0000 0.73135  0.33290  0.11152  Biso   1.000  C
  C7       1.0000 0.73135  0.16710  0.61152  Biso   1.000  C
  C8       1.0000 0.26865  0.66710  0.88848  Biso   1.000  C
  H33      1.0000 0.22010  0.89940  0.40650  Biso   1.000  H
  H34      1.0000 0.77990  0.39940  0.09350  Biso   1.000  H
  H35      1.0000 0.77990  0.10060  0.59350  Biso   1.000  H
  H36      1.0000 0.22010  0.60060  0.90650  Biso   1.000  H
  H37      1.0000 0.23550  0.75890  0.35540  Biso   1.000  H
  H38      1.0000 0.76450  0.25890  0.14460  Biso   1.000  H
  H39      1.0000 0.76450  0.24110  0.64460  Biso   1.000  H
  H40      1.0000 0.23550  0.74110  0.85540  Biso   1.000  H
  C9       1.0000 0.34105  0.90270  0.32411  Biso   1.000  C
  C10      1.0000 0.65895  0.40270  0.17589  Biso   1.000  C
  C11      1.0000 0.65895  0.09730  0.67589  Biso   1.000  C
  C12      1.0000 0.34105  0.59730  0.82411  Biso   1.000  C
  C13      1.0000 0.40083  0.00910  0.37832  Biso   1.000  C
  C14      1.0000 0.59917  0.50910  0.12168  Biso   1.000  C
  C15      1.0000 0.59917  0.99090  0.62168  Biso   1.000  C
  C16      1.0000 0.40083  0.49090  0.87832  Biso   1.000  C
  H41      1.0000 0.35740  0.07780  0.40290  Biso   1.000  H
  H42      1.0000 0.64260  0.57780  0.09710  Biso   1.000  H
  H43      1.0000 0.64260  0.92220  0.59710  Biso   1.000  H
  H44      1.0000 0.35740  0.42220  0.90290  Biso   1.000  H
  H45      1.0000 0.43370  0.96400  0.43020  Biso   1.000  H
  H46      1.0000 0.56630  0.46400  0.06980  Biso   1.000  H
  H47      1.0000 0.56630  0.03600  0.56980  Biso   1.000  H
  H48      1.0000 0.43370  0.53600  0.93020  Biso   1.000  H
  C17      1.0000 0.47510  0.07930  0.32053  Biso   1.000  C
  C18      1.0000 0.52490  0.57930  0.17947  Biso   1.000  C
  C19      1.0000 0.52490  0.92070  0.67947  Biso   1.000  C
  C20      1.0000 0.47510  0.42070  0.82053  Biso   1.000  C
  C21      1.0000 0.27838  0.97120  0.24731  Biso   1.000  C
  C22      1.0000 0.72162  0.47120  0.25269  Biso   1.000  C
  C23      1.0000 0.72162  0.02880  0.75269  Biso   1.000  C
  C24      1.0000 0.27838  0.52880  0.74731  Biso   1.000  C
  O45      1.0000 0.22315  0.20373  0.45219  Biso   1.000  O
  O46      1.0000 0.77685  0.70373  0.04781  Biso   1.000  O
  O47      1.0000 0.77685  0.79627  0.54781  Biso   1.000  O
  O48      1.0000 0.22315  0.29627  0.95219  Biso   1.000  O
  O49      1.0000 0.13140  0.33449  0.53933  Biso   1.000  O
  O50      1.0000 0.86860  0.83449  0.96067  Biso   1.000  O
  O51      1.0000 0.86860  0.66551  0.46067  Biso   1.000  O
  O52      1.0000 0.13140  0.16551  0.03933  Biso   1.000  O
  O53      1.0000 0.09871  0.20753  0.71706  Biso   1.000  O
  O54      1.0000 0.90129  0.70753  0.78294  Biso   1.000  O
  O55      1.0000 0.90129  0.79247  0.28294  Biso   1.000  O
  O56      1.0000 0.09871  0.29247  0.21706  Biso   1.000  O
  O57      1.0000 0.01121  0.94940  0.75088  Biso   1.000  O
  O58      1.0000 0.98879  0.44940  0.74912  Biso   1.000  O
  O59      1.0000 0.98879  0.05060  0.24912  Biso   1.000  O
  O60      1.0000 0.01121  0.55060  0.25088  Biso   1.000  O
  O61      1.0000 0.95836  0.85320  0.61897  Biso   1.000  O
  O62      1.0000 0.04164  0.35320  0.88103  Biso   1.000  O
  O63      1.0000 0.04164  0.14680  0.38103  Biso   1.000  O
  O64      1.0000 0.95836  0.64680  0.11897  Biso   1.000  O
  O65      1.0000 0.23375  0.89866  0.72896  Biso   1.000  O
  O66      1.0000 0.76625  0.39866  0.77104  Biso   1.000  O
  O67      1.0000 0.76625  0.10134  0.27104  Biso   1.000  O
  O68      1.0000 0.23375  0.60134  0.22896  Biso   1.000  O
  O69      1.0000 0.22314  0.07589  0.82481  Biso   1.000  O
  O70      1.0000 0.77686  0.57589  0.67519  Biso   1.000  O
  O71      1.0000 0.77686  0.92411  0.17519  Biso   1.000  O
  O72      1.0000 0.22314  0.42411  0.32481  Biso   1.000  O
  C25      1.0000 0.19406  0.24040  0.53031  Biso   1.000  C
  C26      1.0000 0.80594  0.74040  0.96969  Biso   1.000  C
  C27      1.0000 0.80594  0.75960  0.46969  Biso   1.000  C
  C28      1.0000 0.19406  0.25960  0.03031  Biso   1.000  C
  C29      1.0000 0.23525  0.16520  0.61400  Biso   1.000  C
  C30      1.0000 0.76475  0.66520  0.88600  Biso   1.000  C
  C31      1.0000 0.76475  0.83480  0.38600  Biso   1.000  C
  C32      1.0000 0.23525  0.33480  0.11400  Biso   1.000  C
  H49      1.0000 0.27760  0.09180  0.59410  Biso   1.000  H
  H50      1.0000 0.72240  0.59180  0.90590  Biso   1.000  H
  H51      1.0000 0.72240  0.90820  0.40590  Biso   1.000  H
  H52      1.0000 0.27760  0.40820  0.09410  Biso   1.000  H
  H53      1.0000 0.27380  0.22850  0.65180  Biso   1.000  H
  H54      1.0000 0.72620  0.72850  0.84820  Biso   1.000  H
  H55      1.0000 0.72620  0.77150  0.34820  Biso   1.000  H
  H56      1.0000 0.27380  0.27150  0.15180  Biso   1.000  H
  C33      1.0000 0.15300  0.10410  0.67203  Biso   1.000  C
  C34      1.0000 0.84700  0.60410  0.82797  Biso   1.000  C
  C35      1.0000 0.84700  0.89590  0.32797  Biso   1.000  C
  C36      1.0000 0.15300  0.39590  0.17203  Biso   1.000  C
  C37      1.0000 0.08611  0.01430  0.61149  Biso   1.000  C
  C38      1.0000 0.91389  0.51430  0.88851  Biso   1.000  C
  C39      1.0000 0.91389  0.98570  0.38851  Biso   1.000  C
  C40      1.0000 0.08611  0.48570  0.11149  Biso   1.000  C
  H57      1.0000 0.12560  0.95070  0.57700  Biso   1.000  H
  H58      1.0000 0.87440  0.45070  0.92300  Biso   1.000  H
  H59      1.0000 0.87440  0.04930  0.42300  Biso   1.000  H
  H60      1.0000 0.12560  0.54930  0.07700  Biso   1.000  H
  H61      1.0000 0.05150  0.07260  0.56720  Biso   1.000  H
  H62      1.0000 0.94850  0.57260  0.93280  Biso   1.000  H
  H63      1.0000 0.94850  0.92740  0.43280  Biso   1.000  H
  H64      1.0000 0.05150  0.42740  0.06720  Biso   1.000  H
  C41      1.0000 0.01295  0.93320  0.66499  Biso   1.000  C
  C42      1.0000 0.98705  0.43320  0.83501  Biso   1.000  C
  C43      1.0000 0.98705  0.06680  0.33501  Biso   1.000  C
  C44      1.0000 0.01295  0.56680  0.16499  Biso   1.000  C
  C45      1.0000 0.20629  0.01590  0.74588  Biso   1.000  C
  C46      1.0000 0.79371  0.51590  0.75412  Biso   1.000  C
  C47      1.0000 0.79371  0.98410  0.25412  Biso   1.000  C
  C48      1.0000 0.20629  0.48410  0.24588  Biso   1.000  C
