data_image0
_cell_length_a       6.9285
_cell_length_b       9.7619
_cell_length_c       14.537
_cell_angle_alpha    90
_cell_angle_beta     91.377
_cell_angle_gamma    90

_symmetry_space_group_name_H-M    "P 1"
_symmetry_int_tables_number       1

loop_
  _symmetry_equiv_pos_as_xyz
  'x, y, z'

loop_
  _atom_site_label
  _atom_site_occupancy
  _atom_site_fract_x
  _atom_site_fract_y
  _atom_site_fract_z
  _atom_site_thermal_displace_type
  _atom_site_B_iso_or_equiv
  _atom_site_type_symbol
  Cu1      1.0000 0.30277  0.24842  0.83781  Biso   1.000  Cu
  Cu2      1.0000 0.69723  0.74842  0.66219  Biso   1.000  Cu
  Cu3      1.0000 0.69723  0.75158  0.16219  Biso   1.000  Cu
  Cu4      1.0000 0.30277  0.25158  0.33781  Biso   1.000  Cu
  Cu5      1.0000 0.08907  0.15248  0.64669  Biso   1.000  Cu
  Cu6      1.0000 0.91093  0.65248  0.85331  Biso   1.000  Cu
  Cu7      1.0000 0.91093  0.84752  0.35331  Biso   1.000  Cu
  Cu8      1.0000 0.08907  0.34752  0.14669  Biso   1.000  Cu
  O1       1.0000 0.19440  0.30190  0.71843  Biso   1.000  O
  O2       1.0000 0.80560  0.80190  0.78157  Biso   1.000  O
  O3       1.0000 0.80560  0.69810  0.28157  Biso   1.000  O
  O4       1.0000 0.19440  0.19810  0.21843  Biso   1.000  O
  O5       1.0000 0.44560  0.41820  0.82893  Biso   1.000  O
  O6       1.0000 0.55440  0.91820  0.67107  Biso   1.000  O
  O7       1.0000 0.55440  0.58180  0.17107  Biso   1.000  O
  O8       1.0000 0.44560  0.08180  0.32893  Biso   1.000  O
  O9       1.0000 0.51790  0.58390  0.73270  Biso   1.000  O
  O10      1.0000 0.48210  0.08390  0.76730  Biso   1.000  O
  O11      1.0000 0.48210  0.41610  0.26730  Biso   1.000  O
  O12      1.0000 0.51790  0.91610  0.23270  Biso   1.000  O
  O13      1.0000 0.23210  0.18470  0.53700  Biso   1.000  O
  O14      1.0000 0.76790  0.68470  0.96300  Biso   1.000  O
  O15      1.0000 0.76790  0.81530  0.46300  Biso   1.000  O
  O16      1.0000 0.23210  0.31530  0.03700  Biso   1.000  O
  O17      1.0000 0.43940  0.29750  0.45268  Biso   1.000  O
  O18      1.0000 0.56060  0.79750  0.04732  Biso   1.000  O
  O19      1.0000 0.56060  0.70250  0.54732  Biso   1.000  O
  O20      1.0000 0.43940  0.20250  0.95268  Biso   1.000  O
  O21      1.0000 0.89910  0.62150  0.62880  Biso   1.000  O
  O22      1.0000 0.10090  0.12150  0.87120  Biso   1.000  O
  O23      1.0000 0.10090  0.37850  0.37120  Biso   1.000  O
  O24      1.0000 0.89910  0.87850  0.12880  Biso   1.000  O
  O25      1.0000 0.07710  0.59530  0.75600  Biso   1.000  O
  O26      1.0000 0.92290  0.09530  0.74400  Biso   1.000  O
  O27      1.0000 0.92290  0.40470  0.24400  Biso   1.000  O
  O28      1.0000 0.07710  0.90470  0.25600  Biso   1.000  O
  C1       1.0000 0.31280  0.40170  0.67490  Biso   1.000  C
  C2       1.0000 0.68720  0.90170  0.82510  Biso   1.000  C
  C3       1.0000 0.68720  0.59830  0.32510  Biso   1.000  C
  C4       1.0000 0.31280  0.09830  0.17490  Biso   1.000  C
  C5       1.0000 0.43150  0.47800  0.74990  Biso   1.000  C
  C6       1.0000 0.56850  0.97800  0.75010  Biso   1.000  C
  C7       1.0000 0.56850  0.52200  0.25010  Biso   1.000  C
  C8       1.0000 0.43150  0.02200  0.24990  Biso   1.000  C
  C9       1.0000 0.46530  0.33290  0.61340  Biso   1.000  C
  C10      1.0000 0.53470  0.83290  0.88660  Biso   1.000  C
  C11      1.0000 0.53470  0.66710  0.38660  Biso   1.000  C
  C12      1.0000 0.46530  0.16710  0.11340  Biso   1.000  C
  H1       1.0000 0.55750  0.40130  0.59420  Biso   1.000  H
  H2       1.0000 0.44250  0.90130  0.90580  Biso   1.000  H
  H3       1.0000 0.44250  0.59870  0.40580  Biso   1.000  H
  H4       1.0000 0.55750  0.09870  0.09420  Biso   1.000  H
  H5       1.0000 0.53490  0.26390  0.64890  Biso   1.000  H
  H6       1.0000 0.46510  0.76390  0.85110  Biso   1.000  H
  H7       1.0000 0.46510  0.73610  0.35110  Biso   1.000  H
  H8       1.0000 0.53490  0.23610  0.14890  Biso   1.000  H
  C13      1.0000 0.37300  0.26680  0.52920  Biso   1.000  C
  C14      1.0000 0.62700  0.76680  0.97080  Biso   1.000  C
  C15      1.0000 0.62700  0.73320  0.47080  Biso   1.000  C
  C16      1.0000 0.37300  0.23320  0.02920  Biso   1.000  C
  C17      1.0000 0.18970  0.50110  0.61710  Biso   1.000  C
  C18      1.0000 0.81030  0.00110  0.88290  Biso   1.000  C
  C19      1.0000 0.81030  0.49890  0.38290  Biso   1.000  C
  C20      1.0000 0.18970  0.99890  0.11710  Biso   1.000  C
  H9       1.0000 0.27400  0.56670  0.58810  Biso   1.000  H
  H10      1.0000 0.72600  0.06670  0.91190  Biso   1.000  H
  H11      1.0000 0.72600  0.43330  0.41190  Biso   1.000  H
  H12      1.0000 0.27400  0.93330  0.08810  Biso   1.000  H
  H13      1.0000 0.12310  0.45020  0.56860  Biso   1.000  H
  H14      1.0000 0.87690  0.95020  0.93140  Biso   1.000  H
  H15      1.0000 0.87690  0.54980  0.43140  Biso   1.000  H
  H16      1.0000 0.12310  0.04980  0.06860  Biso   1.000  H
  C21      1.0000 0.04230  0.57810  0.67200  Biso   1.000  C
  C22      1.0000 0.95770  0.07810  0.82800  Biso   1.000  C
  C23      1.0000 0.95770  0.42190  0.32800  Biso   1.000  C
  C24      1.0000 0.04230  0.92190  0.17200  Biso   1.000  C
  O29      1.0000 0.84350  0.11620  0.56300  Biso   1.000  O
  O30      1.0000 0.15650  0.61620  0.93700  Biso   1.000  O
  O31      1.0000 0.15650  0.88380  0.43700  Biso   1.000  O
  O32      1.0000 0.84350  0.38380  0.06300  Biso   1.000  O
  H17      1.0000 0.85560  0.11270  0.50500  Biso   1.000  H
  H18      1.0000 0.14440  0.61270  0.99500  Biso   1.000  H
  H19      1.0000 0.14440  0.88730  0.49500  Biso   1.000  H
  H20      1.0000 0.85560  0.38730  0.00500  Biso   1.000  H
  H21      1.0000 0.76950  0.05050  0.57660  Biso   1.000  H
  H22      1.0000 0.23050  0.55050  0.92340  Biso   1.000  H
  H23      1.0000 0.23050  0.94950  0.42340  Biso   1.000  H
  H24      1.0000 0.76950  0.44950  0.07660  Biso   1.000  H
  O33      1.0000 0.16620  0.92550  0.63030  Biso   1.000  O
  O34      1.0000 0.83380  0.42550  0.86970  Biso   1.000  O
  O35      1.0000 0.83380  0.07450  0.36970  Biso   1.000  O
  O36      1.0000 0.16620  0.57450  0.13030  Biso   1.000  O
  H25      1.0000 0.28680  0.91330  0.63680  Biso   1.000  H
  H26      1.0000 0.71320  0.41330  0.86320  Biso   1.000  H
  H27      1.0000 0.71320  0.08670  0.36320  Biso   1.000  H
  H28      1.0000 0.28680  0.58670  0.13680  Biso   1.000  H
  H29      1.0000 0.12990  0.86740  0.66930  Biso   1.000  H
  H30      1.0000 0.87010  0.36740  0.83070  Biso   1.000  H
  H31      1.0000 0.87010  0.13260  0.33070  Biso   1.000  H
  H32      1.0000 0.12990  0.63260  0.16930  Biso   1.000  H
