data_image0
_cell_length_a       5.7929
_cell_length_b       13.509
_cell_length_c       9.98
_cell_angle_alpha    90
_cell_angle_beta     105.049
_cell_angle_gamma    90

_symmetry_space_group_name_H-M    "P 1"
_symmetry_int_tables_number       1

loop_
  _symmetry_equiv_pos_as_xyz
  'x, y, z'

loop_
  _atom_site_label
  _atom_site_occupancy
  _atom_site_fract_x
  _atom_site_fract_y
  _atom_site_fract_z
  _atom_site_thermal_displace_type
  _atom_site_B_iso_or_equiv
  _atom_site_type_symbol
  Cu1      1.0000 0.26717  0.51602  0.59519  Biso   1.000  Cu
  Cu2      1.0000 0.73283  0.01602  0.90481  Biso   1.000  Cu
  Cu3      1.0000 0.73283  0.48398  0.40481  Biso   1.000  Cu
  Cu4      1.0000 0.26717  0.98398  0.09519  Biso   1.000  Cu
  Cl1      1.0000 0.36018  0.61306  0.77684  Biso   1.000  Cl
  Cl2      1.0000 0.63982  0.11306  0.72316  Biso   1.000  Cl
  Cl3      1.0000 0.63982  0.38694  0.22316  Biso   1.000  Cl
  Cl4      1.0000 0.36018  0.88694  0.27684  Biso   1.000  Cl
  Cl5      1.0000 0.58762  0.42200  0.63963  Biso   1.000  Cl
  Cl6      1.0000 0.41238  0.92200  0.86037  Biso   1.000  Cl
  Cl7      1.0000 0.41238  0.57800  0.36037  Biso   1.000  Cl
  Cl8      1.0000 0.58762  0.07800  0.13963  Biso   1.000  Cl
  O1       1.0000 0.03440  0.41617  0.48870  Biso   1.000  O
  O2       1.0000 0.96560  0.91617  0.01130  Biso   1.000  O
  O3       1.0000 0.96560  0.58383  0.51130  Biso   1.000  O
  O4       1.0000 0.03440  0.08383  0.98870  Biso   1.000  O
  N1       1.0000 0.07750  0.32101  0.46120  Biso   1.000  N
  N2       1.0000 0.92250  0.82101  0.03880  Biso   1.000  N
  N3       1.0000 0.92250  0.67899  0.53880  Biso   1.000  N
  N4       1.0000 0.07750  0.17899  0.96120  Biso   1.000  N
  C1       1.0000 0.97300  0.25040  0.51590  Biso   1.000  C
  C2       1.0000 0.02700  0.75040  0.98410  Biso   1.000  C
  C3       1.0000 0.02700  0.74960  0.48410  Biso   1.000  C
  C4       1.0000 0.97300  0.24960  0.01590  Biso   1.000  C
  H1       1.0000 0.87120  0.26610  0.57100  Biso   1.000  H
  H2       1.0000 0.12880  0.76610  0.92900  Biso   1.000  H
  H3       1.0000 0.12880  0.73390  0.42900  Biso   1.000  H
  H4       1.0000 0.87120  0.23390  0.07100  Biso   1.000  H
  C5       1.0000 0.01690  0.15430  0.49010  Biso   1.000  C
  C6       1.0000 0.98310  0.65430  0.00990  Biso   1.000  C
  C7       1.0000 0.98310  0.84570  0.50990  Biso   1.000  C
  C8       1.0000 0.01690  0.34570  0.99010  Biso   1.000  C
  H5       1.0000 0.94310  0.10350  0.52620  Biso   1.000  H
  H6       1.0000 0.05690  0.60350  0.97380  Biso   1.000  H
  H7       1.0000 0.05690  0.89650  0.47380  Biso   1.000  H
  H8       1.0000 0.94310  0.39650  0.02620  Biso   1.000  H
  C9       1.0000 0.17090  0.13300  0.41050  Biso   1.000  C
  C10      1.0000 0.82910  0.63300  0.08950  Biso   1.000  C
  C11      1.0000 0.82910  0.86700  0.58950  Biso   1.000  C
  C12      1.0000 0.17090  0.36700  0.91050  Biso   1.000  C
  H9       1.0000 0.20540  0.06760  0.39400  Biso   1.000  H
  H10      1.0000 0.79460  0.56760  0.10600  Biso   1.000  H
  H11      1.0000 0.79460  0.93240  0.60600  Biso   1.000  H
  H12      1.0000 0.20540  0.43240  0.89400  Biso   1.000  H
  C13      1.0000 0.27290  0.20840  0.35570  Biso   1.000  C
  C14      1.0000 0.72710  0.70840  0.14430  Biso   1.000  C
  C15      1.0000 0.72710  0.79160  0.64430  Biso   1.000  C
  C16      1.0000 0.27290  0.29160  0.85570  Biso   1.000  C
  H13      1.0000 0.37710  0.19470  0.30120  Biso   1.000  H
  H14      1.0000 0.62290  0.69470  0.19880  Biso   1.000  H
  H15      1.0000 0.62290  0.80530  0.69880  Biso   1.000  H
  H16      1.0000 0.37710  0.30530  0.80120  Biso   1.000  H
  C17      1.0000 0.22170  0.30340  0.38100  Biso   1.000  C
  C18      1.0000 0.77830  0.80340  0.11900  Biso   1.000  C
  C19      1.0000 0.77830  0.69660  0.61900  Biso   1.000  C
  C20      1.0000 0.22170  0.19660  0.88100  Biso   1.000  C
  H17      1.0000 0.28730  0.35550  0.34230  Biso   1.000  H
  H18      1.0000 0.71270  0.85550  0.15770  Biso   1.000  H
  H19      1.0000 0.71270  0.64450  0.65770  Biso   1.000  H
  H20      1.0000 0.28730  0.14450  0.84230  Biso   1.000  H
