data_image0
_cell_length_a       11.77
_cell_length_b       8.085
_cell_length_c       15.571
_cell_angle_alpha    90
_cell_angle_beta     90
_cell_angle_gamma    90

_symmetry_space_group_name_H-M    "P 1"
_symmetry_int_tables_number       1

loop_
  _symmetry_equiv_pos_as_xyz
  'x, y, z'

loop_
  _atom_site_label
  _atom_site_occupancy
  _atom_site_fract_x
  _atom_site_fract_y
  _atom_site_fract_z
  _atom_site_thermal_displace_type
  _atom_site_B_iso_or_equiv
  _atom_site_type_symbol
  Cu1      1.0000 0.12772  0.10616  0.18837  Biso   1.000  Cu
  Cu2      1.0000 0.37228  0.89384  0.68837  Biso   1.000  Cu
  Cu3      1.0000 0.62772  0.39384  0.81163  Biso   1.000  Cu
  Cu4      1.0000 0.87228  0.60616  0.31163  Biso   1.000  Cu
  Cu5      1.0000 0.87228  0.89384  0.81163  Biso   1.000  Cu
  Cu6      1.0000 0.62772  0.10616  0.31163  Biso   1.000  Cu
  Cu7      1.0000 0.37228  0.60616  0.18837  Biso   1.000  Cu
  Cu8      1.0000 0.12772  0.39384  0.68837  Biso   1.000  Cu
  O1       1.0000 0.13430  0.27840  0.27850  Biso   1.000  O
  O2       1.0000 0.36570  0.72160  0.77850  Biso   1.000  O
  O3       1.0000 0.63430  0.22160  0.72150  Biso   1.000  O
  O4       1.0000 0.86570  0.77840  0.22150  Biso   1.000  O
  O5       1.0000 0.86570  0.72160  0.72150  Biso   1.000  O
  O6       1.0000 0.63430  0.27840  0.22150  Biso   1.000  O
  O7       1.0000 0.36570  0.77840  0.27850  Biso   1.000  O
  O8       1.0000 0.13430  0.22160  0.77850  Biso   1.000  O
  O9       1.0000 0.11790  0.93850  0.30820  Biso   1.000  O
  O10      1.0000 0.38210  0.06150  0.80820  Biso   1.000  O
  O11      1.0000 0.61790  0.56150  0.69180  Biso   1.000  O
  O12      1.0000 0.88210  0.43850  0.19180  Biso   1.000  O
  O13      1.0000 0.88210  0.06150  0.69180  Biso   1.000  O
  O14      1.0000 0.61790  0.93850  0.19180  Biso   1.000  O
  O15      1.0000 0.38210  0.43850  0.30820  Biso   1.000  O
  O16      1.0000 0.11790  0.56150  0.80820  Biso   1.000  O
  O17      1.0000 0.13960  0.30680  0.08100  Biso   1.000  O
  O18      1.0000 0.36040  0.69320  0.58100  Biso   1.000  O
  O19      1.0000 0.63960  0.19320  0.91900  Biso   1.000  O
  O20      1.0000 0.86040  0.80680  0.41900  Biso   1.000  O
  O21      1.0000 0.86040  0.69320  0.91900  Biso   1.000  O
  O22      1.0000 0.63960  0.30680  0.41900  Biso   1.000  O
  O23      1.0000 0.36040  0.80680  0.08100  Biso   1.000  O
  O24      1.0000 0.13960  0.19320  0.58100  Biso   1.000  O
  O25      1.0000 0.11510  0.92170  0.10760  Biso   1.000  O
  O26      1.0000 0.38490  0.07830  0.60760  Biso   1.000  O
  O27      1.0000 0.61510  0.57830  0.89240  Biso   1.000  O
  O28      1.0000 0.88490  0.42170  0.39240  Biso   1.000  O
  O29      1.0000 0.88490  0.07830  0.89240  Biso   1.000  O
  O30      1.0000 0.61510  0.92170  0.39240  Biso   1.000  O
  O31      1.0000 0.38490  0.42170  0.10760  Biso   1.000  O
  O32      1.0000 0.11510  0.57830  0.60760  Biso   1.000  O
  O33      1.0000 0.95800  0.13140  0.18230  Biso   1.000  O
  O34      1.0000 0.54200  0.86860  0.68230  Biso   1.000  O
  O35      1.0000 0.45800  0.36860  0.81770  Biso   1.000  O
  O36      1.0000 0.04200  0.63140  0.31770  Biso   1.000  O
  O37      1.0000 0.04200  0.86860  0.81770  Biso   1.000  O
  O38      1.0000 0.45800  0.13140  0.31770  Biso   1.000  O
  O39      1.0000 0.54200  0.63140  0.18230  Biso   1.000  O
  O40      1.0000 0.95800  0.36860  0.68230  Biso   1.000  O
  O41      1.0000 0.30040  0.09920  0.17990  Biso   1.000  O
  O42      1.0000 0.19960  0.90080  0.67990  Biso   1.000  O
  O43      1.0000 0.80040  0.40080  0.82010  Biso   1.000  O
  O44      1.0000 0.69960  0.59920  0.32010  Biso   1.000  O
  O45      1.0000 0.69960  0.90080  0.82010  Biso   1.000  O
  O46      1.0000 0.80040  0.09920  0.32010  Biso   1.000  O
  O47      1.0000 0.19960  0.59920  0.17990  Biso   1.000  O
  O48      1.0000 0.30040  0.40080  0.67990  Biso   1.000  O
  O49      1.0000 0.11950  0.87550  0.49760  Biso   1.000  O
  O50      1.0000 0.38050  0.12450  0.99760  Biso   1.000  O
  O51      1.0000 0.61950  0.62450  0.50240  Biso   1.000  O
  O52      1.0000 0.88050  0.37550  0.00240  Biso   1.000  O
  O53      1.0000 0.88050  0.12450  0.50240  Biso   1.000  O
  O54      1.0000 0.61950  0.87550  0.00240  Biso   1.000  O
  O55      1.0000 0.38050  0.37550  0.49760  Biso   1.000  O
  O56      1.0000 0.11950  0.62450  0.99760  Biso   1.000  O
  O57      1.0000 0.13140  0.45530  0.44740  Biso   1.000  O
  O58      1.0000 0.36860  0.54470  0.94740  Biso   1.000  O
  O59      1.0000 0.63140  0.04470  0.55260  Biso   1.000  O
  O60      1.0000 0.86860  0.95530  0.05260  Biso   1.000  O
  O61      1.0000 0.86860  0.54470  0.55260  Biso   1.000  O
  O62      1.0000 0.63140  0.45530  0.05260  Biso   1.000  O
  O63      1.0000 0.36860  0.95530  0.44740  Biso   1.000  O
  O64      1.0000 0.13140  0.04470  0.94740  Biso   1.000  O
  C1       1.0000 0.13090  0.21640  0.35360  Biso   1.000  C
  C2       1.0000 0.36910  0.78360  0.85360  Biso   1.000  C
  C3       1.0000 0.63090  0.28360  0.64640  Biso   1.000  C
  C4       1.0000 0.86910  0.71640  0.14640  Biso   1.000  C
  C5       1.0000 0.86910  0.78360  0.64640  Biso   1.000  C
  C6       1.0000 0.63090  0.21640  0.14640  Biso   1.000  C
  C7       1.0000 0.36910  0.71640  0.35360  Biso   1.000  C
  C8       1.0000 0.13090  0.28360  0.85360  Biso   1.000  C
  C9       1.0000 0.12380  0.04090  0.36810  Biso   1.000  C
  C10      1.0000 0.37620  0.95910  0.86810  Biso   1.000  C
  C11      1.0000 0.62380  0.45910  0.63190  Biso   1.000  C
  C12      1.0000 0.87620  0.54090  0.13190  Biso   1.000  C
  C13      1.0000 0.87620  0.95910  0.63190  Biso   1.000  C
  C14      1.0000 0.62380  0.04090  0.13190  Biso   1.000  C
  C15      1.0000 0.37620  0.54090  0.36810  Biso   1.000  C
  C16      1.0000 0.12380  0.45910  0.86810  Biso   1.000  C
  C17      1.0000 0.12450  0.00890  0.46060  Biso   1.000  C
  C18      1.0000 0.37550  0.99110  0.96060  Biso   1.000  C
  C19      1.0000 0.62450  0.49110  0.53940  Biso   1.000  C
  C20      1.0000 0.87550  0.50890  0.03940  Biso   1.000  C
  C21      1.0000 0.87550  0.99110  0.53940  Biso   1.000  C
  C22      1.0000 0.62450  0.00890  0.03940  Biso   1.000  C
  C23      1.0000 0.37550  0.50890  0.46060  Biso   1.000  C
  C24      1.0000 0.12450  0.49110  0.96060  Biso   1.000  C
  C25      1.0000 0.13330  0.32640  0.00210  Biso   1.000  C
  C26      1.0000 0.36670  0.67360  0.50210  Biso   1.000  C
  C27      1.0000 0.63330  0.17360  0.99790  Biso   1.000  C
  C28      1.0000 0.86670  0.82640  0.49790  Biso   1.000  C
  C29      1.0000 0.86670  0.67360  0.99790  Biso   1.000  C
  C30      1.0000 0.63330  0.32640  0.49790  Biso   1.000  C
  C31      1.0000 0.36670  0.82640  0.00210  Biso   1.000  C
  C32      1.0000 0.13330  0.17360  0.50210  Biso   1.000  C
  C33      1.0000 0.13230  0.30230  0.43520  Biso   1.000  C
  C34      1.0000 0.36770  0.69770  0.93520  Biso   1.000  C
  C35      1.0000 0.63230  0.19770  0.56480  Biso   1.000  C
  C36      1.0000 0.86770  0.80230  0.06480  Biso   1.000  C
  C37      1.0000 0.86770  0.69770  0.56480  Biso   1.000  C
  C38      1.0000 0.63230  0.30230  0.06480  Biso   1.000  C
  C39      1.0000 0.36770  0.80230  0.43520  Biso   1.000  C
  C40      1.0000 0.13230  0.19770  0.93520  Biso   1.000  C
  H1       1.0000 0.14200  0.81200  0.11900  Biso   1.000  H
  H2       1.0000 0.35800  0.18800  0.61900  Biso   1.000  H
  H3       1.0000 0.64200  0.68800  0.88100  Biso   1.000  H
  H4       1.0000 0.85800  0.31200  0.38100  Biso   1.000  H
  H5       1.0000 0.85800  0.18800  0.88100  Biso   1.000  H
  H6       1.0000 0.64200  0.81200  0.38100  Biso   1.000  H
  H7       1.0000 0.35800  0.31200  0.11900  Biso   1.000  H
  H8       1.0000 0.14200  0.68800  0.61900  Biso   1.000  H
  H9       1.0000 0.12600  0.90600  0.05500  Biso   1.000  H
  H10      1.0000 0.37400  0.09400  0.55500  Biso   1.000  H
  H11      1.0000 0.62600  0.59400  0.94500  Biso   1.000  H
  H12      1.0000 0.87400  0.40600  0.44500  Biso   1.000  H
  H13      1.0000 0.87400  0.09400  0.94500  Biso   1.000  H
  H14      1.0000 0.62600  0.90600  0.44500  Biso   1.000  H
  H15      1.0000 0.37400  0.40600  0.05500  Biso   1.000  H
  H16      1.0000 0.12600  0.59400  0.55500  Biso   1.000  H
  H17      1.0000 0.93500  0.24400  0.18700  Biso   1.000  H
  H18      1.0000 0.56500  0.75600  0.68700  Biso   1.000  H
  H19      1.0000 0.43500  0.25600  0.81300  Biso   1.000  H
  H20      1.0000 0.06500  0.74400  0.31300  Biso   1.000  H
  H21      1.0000 0.06500  0.75600  0.81300  Biso   1.000  H
  H22      1.0000 0.43500  0.24400  0.31300  Biso   1.000  H
  H23      1.0000 0.56500  0.74400  0.18700  Biso   1.000  H
  H24      1.0000 0.93500  0.25600  0.68700  Biso   1.000  H
  H25      1.0000 0.91900  0.09600  0.13800  Biso   1.000  H
  H26      1.0000 0.58100  0.90400  0.63800  Biso   1.000  H
  H27      1.0000 0.41900  0.40400  0.86200  Biso   1.000  H
  H28      1.0000 0.08100  0.59600  0.36200  Biso   1.000  H
  H29      1.0000 0.08100  0.90400  0.86200  Biso   1.000  H
  H30      1.0000 0.41900  0.09600  0.36200  Biso   1.000  H
  H31      1.0000 0.58100  0.59600  0.13800  Biso   1.000  H
  H32      1.0000 0.91900  0.40400  0.63800  Biso   1.000  H
  H33      1.0000 0.31900  0.08200  0.22900  Biso   1.000  H
  H34      1.0000 0.18100  0.91800  0.72900  Biso   1.000  H
  H35      1.0000 0.81900  0.41800  0.77100  Biso   1.000  H
  H36      1.0000 0.68100  0.58200  0.27100  Biso   1.000  H
  H37      1.0000 0.68100  0.91800  0.77100  Biso   1.000  H
  H38      1.0000 0.81900  0.08200  0.27100  Biso   1.000  H
  H39      1.0000 0.18100  0.58200  0.22900  Biso   1.000  H
  H40      1.0000 0.31900  0.41800  0.72900  Biso   1.000  H
  H41      1.0000 0.31800  0.04100  0.12300  Biso   1.000  H
  H42      1.0000 0.18200  0.95900  0.62300  Biso   1.000  H
  H43      1.0000 0.81800  0.45900  0.87700  Biso   1.000  H
  H44      1.0000 0.68200  0.54100  0.37700  Biso   1.000  H
  H45      1.0000 0.68200  0.95900  0.87700  Biso   1.000  H
  H46      1.0000 0.81800  0.04100  0.37700  Biso   1.000  H
  H47      1.0000 0.18200  0.54100  0.12300  Biso   1.000  H
  H48      1.0000 0.31800  0.45900  0.62300  Biso   1.000  H
