data_image0
_cell_length_a       11.77
_cell_length_b       8.09
_cell_length_c       15.56
_cell_angle_alpha    90
_cell_angle_beta     90
_cell_angle_gamma    90

_symmetry_space_group_name_H-M    "P 1"
_symmetry_int_tables_number       1

loop_
  _symmetry_equiv_pos_as_xyz
  'x, y, z'

loop_
  _atom_site_label
  _atom_site_occupancy
  _atom_site_fract_x
  _atom_site_fract_y
  _atom_site_fract_z
  _atom_site_thermal_displace_type
  _atom_site_B_iso_or_equiv
  _atom_site_type_symbol
  Cu1      1.0000 0.12760  0.10590  0.18850  Biso   1.000  Cu
  Cu2      1.0000 0.37240  0.89410  0.68850  Biso   1.000  Cu
  Cu3      1.0000 0.62760  0.39410  0.81150  Biso   1.000  Cu
  Cu4      1.0000 0.87240  0.60590  0.31150  Biso   1.000  Cu
  Cu5      1.0000 0.87240  0.89410  0.81150  Biso   1.000  Cu
  Cu6      1.0000 0.62760  0.10590  0.31150  Biso   1.000  Cu
  Cu7      1.0000 0.37240  0.60590  0.18850  Biso   1.000  Cu
  Cu8      1.0000 0.12760  0.39410  0.68850  Biso   1.000  Cu
  C1       1.0000 0.12500  0.04000  0.36810  Biso   1.000  C
  C2       1.0000 0.37500  0.96000  0.86810  Biso   1.000  C
  C3       1.0000 0.62500  0.46000  0.63190  Biso   1.000  C
  C4       1.0000 0.87500  0.54000  0.13190  Biso   1.000  C
  C5       1.0000 0.87500  0.96000  0.63190  Biso   1.000  C
  C6       1.0000 0.62500  0.04000  0.13190  Biso   1.000  C
  C7       1.0000 0.37500  0.54000  0.36810  Biso   1.000  C
  C8       1.0000 0.12500  0.46000  0.86810  Biso   1.000  C
  C9       1.0000 0.13240  0.21610  0.35340  Biso   1.000  C
  C10      1.0000 0.36760  0.78390  0.85340  Biso   1.000  C
  C11      1.0000 0.63240  0.28390  0.64660  Biso   1.000  C
  C12      1.0000 0.86760  0.71610  0.14660  Biso   1.000  C
  C13      1.0000 0.86760  0.78390  0.64660  Biso   1.000  C
  C14      1.0000 0.63240  0.21610  0.14660  Biso   1.000  C
  C15      1.0000 0.36760  0.71610  0.35340  Biso   1.000  C
  C16      1.0000 0.13240  0.28390  0.85340  Biso   1.000  C
  C17      1.0000 0.13530  0.30230  0.43380  Biso   1.000  C
  C18      1.0000 0.36470  0.69770  0.93380  Biso   1.000  C
  C19      1.0000 0.63530  0.19770  0.56620  Biso   1.000  C
  C20      1.0000 0.86470  0.80230  0.06620  Biso   1.000  C
  C21      1.0000 0.86470  0.69770  0.56620  Biso   1.000  C
  C22      1.0000 0.63530  0.30230  0.06620  Biso   1.000  C
  C23      1.0000 0.36470  0.80230  0.43380  Biso   1.000  C
  C24      1.0000 0.13530  0.19770  0.93380  Biso   1.000  C
  C25      1.0000 0.13380  0.17240  0.50180  Biso   1.000  C
  C26      1.0000 0.36620  0.82760  0.00180  Biso   1.000  C
  C27      1.0000 0.63380  0.32760  0.49820  Biso   1.000  C
  C28      1.0000 0.86620  0.67240  0.99820  Biso   1.000  C
  C29      1.0000 0.86620  0.82760  0.49820  Biso   1.000  C
  C30      1.0000 0.63380  0.17240  0.99820  Biso   1.000  C
  C31      1.0000 0.36620  0.67240  0.50180  Biso   1.000  C
  C32      1.0000 0.13380  0.32760  0.00180  Biso   1.000  C
  C33      1.0000 0.12480  0.01100  0.46050  Biso   1.000  C
  C34      1.0000 0.37520  0.98900  0.96050  Biso   1.000  C
  C35      1.0000 0.62480  0.48900  0.53950  Biso   1.000  C
  C36      1.0000 0.87520  0.51100  0.03950  Biso   1.000  C
  C37      1.0000 0.87520  0.98900  0.53950  Biso   1.000  C
  C38      1.0000 0.62480  0.01100  0.03950  Biso   1.000  C
  C39      1.0000 0.37520  0.51100  0.46050  Biso   1.000  C
  C40      1.0000 0.12480  0.48900  0.96050  Biso   1.000  C
  O1       1.0000 0.11690  0.93740  0.30890  Biso   1.000  O
  O2       1.0000 0.38310  0.06260  0.80890  Biso   1.000  O
  O3       1.0000 0.61690  0.56260  0.69110  Biso   1.000  O
  O4       1.0000 0.88310  0.43740  0.19110  Biso   1.000  O
  O5       1.0000 0.88310  0.06260  0.69110  Biso   1.000  O
  O6       1.0000 0.61690  0.93740  0.19110  Biso   1.000  O
  O7       1.0000 0.38310  0.43740  0.30890  Biso   1.000  O
  O8       1.0000 0.11690  0.56260  0.80890  Biso   1.000  O
  O9       1.0000 0.13220  0.27870  0.27810  Biso   1.000  O
  O10      1.0000 0.36780  0.72130  0.77810  Biso   1.000  O
  O11      1.0000 0.63220  0.22130  0.72190  Biso   1.000  O
  O12      1.0000 0.86780  0.77870  0.22190  Biso   1.000  O
  O13      1.0000 0.86780  0.72130  0.72190  Biso   1.000  O
  O14      1.0000 0.63220  0.27870  0.22190  Biso   1.000  O
  O15      1.0000 0.36780  0.77870  0.27810  Biso   1.000  O
  O16      1.0000 0.13220  0.22130  0.77810  Biso   1.000  O
  O17      1.0000 0.13070  0.45350  0.44700  Biso   1.000  O
  O18      1.0000 0.36930  0.54650  0.94700  Biso   1.000  O
  O19      1.0000 0.63070  0.04650  0.55300  Biso   1.000  O
  O20      1.0000 0.86930  0.95350  0.05300  Biso   1.000  O
  O21      1.0000 0.86930  0.54650  0.55300  Biso   1.000  O
  O22      1.0000 0.63070  0.45350  0.05300  Biso   1.000  O
  O23      1.0000 0.36930  0.95350  0.44700  Biso   1.000  O
  O24      1.0000 0.13070  0.04650  0.94700  Biso   1.000  O
  O25      1.0000 0.14180  0.19310  0.58040  Biso   1.000  O
  O26      1.0000 0.35820  0.80690  0.08040  Biso   1.000  O
  O27      1.0000 0.64180  0.30690  0.41960  Biso   1.000  O
  O28      1.0000 0.85820  0.69310  0.91960  Biso   1.000  O
  O29      1.0000 0.85820  0.80690  0.41960  Biso   1.000  O
  O30      1.0000 0.64180  0.19310  0.91960  Biso   1.000  O
  O31      1.0000 0.35820  0.69310  0.58040  Biso   1.000  O
  O32      1.0000 0.14180  0.30690  0.08040  Biso   1.000  O
  O33      1.0000 0.12150  0.87740  0.49680  Biso   1.000  O
  O34      1.0000 0.37850  0.12260  0.99680  Biso   1.000  O
  O35      1.0000 0.62150  0.62260  0.50320  Biso   1.000  O
  O36      1.0000 0.87850  0.37740  0.00320  Biso   1.000  O
  O37      1.0000 0.87850  0.12260  0.50320  Biso   1.000  O
  O38      1.0000 0.62150  0.87740  0.00320  Biso   1.000  O
  O39      1.0000 0.37850  0.37740  0.49680  Biso   1.000  O
  O40      1.0000 0.12150  0.62260  0.99680  Biso   1.000  O
  O41      1.0000 0.11440  0.92420  0.10810  Biso   1.000  O
  O42      1.0000 0.38560  0.07580  0.60810  Biso   1.000  O
  O43      1.0000 0.61440  0.57580  0.89190  Biso   1.000  O
  O44      1.0000 0.88560  0.42420  0.39190  Biso   1.000  O
  O45      1.0000 0.88560  0.07580  0.89190  Biso   1.000  O
  O46      1.0000 0.61440  0.92420  0.39190  Biso   1.000  O
  O47      1.0000 0.38560  0.42420  0.10810  Biso   1.000  O
  O48      1.0000 0.11440  0.57580  0.60810  Biso   1.000  O
  O49      1.0000 0.95870  0.13340  0.18270  Biso   1.000  O
  O50      1.0000 0.54130  0.86660  0.68270  Biso   1.000  O
  O51      1.0000 0.45870  0.36660  0.81730  Biso   1.000  O
  O52      1.0000 0.04130  0.63340  0.31730  Biso   1.000  O
  O53      1.0000 0.04130  0.86660  0.81730  Biso   1.000  O
  O54      1.0000 0.45870  0.13340  0.31730  Biso   1.000  O
  O55      1.0000 0.54130  0.63340  0.18270  Biso   1.000  O
  O56      1.0000 0.95870  0.36660  0.68270  Biso   1.000  O
  O57      1.0000 0.30110  0.09670  0.18000  Biso   1.000  O
  O58      1.0000 0.19890  0.90330  0.68000  Biso   1.000  O
  O59      1.0000 0.80110  0.40330  0.82000  Biso   1.000  O
  O60      1.0000 0.69890  0.59670  0.32000  Biso   1.000  O
  O61      1.0000 0.69890  0.90330  0.82000  Biso   1.000  O
  O62      1.0000 0.80110  0.09670  0.32000  Biso   1.000  O
  O63      1.0000 0.19890  0.59670  0.18000  Biso   1.000  O
  O64      1.0000 0.30110  0.40330  0.68000  Biso   1.000  O
