data_image0
_cell_length_a       6.81
_cell_length_b       11.39
_cell_length_c       7.13
_cell_angle_alpha    90
_cell_angle_beta     96.97
_cell_angle_gamma    90

_symmetry_space_group_name_H-M    "P 1"
_symmetry_int_tables_number       1

loop_
  _symmetry_equiv_pos_as_xyz
  'x, y, z'

loop_
  _atom_site_label
  _atom_site_occupancy
  _atom_site_fract_x
  _atom_site_fract_y
  _atom_site_fract_z
  _atom_site_thermal_displace_type
  _atom_site_B_iso_or_equiv
  _atom_site_type_symbol
  Cl1      1.0000 0.23300  0.92800  0.24000  Biso   1.000  Cl
  Cl2      1.0000 0.73300  0.42800  0.74000  Biso   1.000  Cl
  Cl3      1.0000 0.76700  0.42800  0.26000  Biso   1.000  Cl
  Cl4      1.0000 0.26700  0.92800  0.76000  Biso   1.000  Cl
  Cl5      1.0000 0.76700  0.07200  0.76000  Biso   1.000  Cl
  Cl6      1.0000 0.26700  0.57200  0.26000  Biso   1.000  Cl
  Cl7      1.0000 0.23300  0.57200  0.74000  Biso   1.000  Cl
  Cl8      1.0000 0.73300  0.07200  0.24000  Biso   1.000  Cl
  Cu1      1.0000 0.00000  0.00000  0.00000  Biso   1.000  Cu
  Cu2      1.0000 0.50000  0.50000  0.50000  Biso   1.000  Cu
  Cu3      1.0000 0.00000  0.50000  0.50000  Biso   1.000  Cu
  Cu4      1.0000 0.50000  0.00000  0.00000  Biso   1.000  Cu
  C1       1.0000 0.09800  0.25900  0.00700  Biso   1.000  C
  C2       1.0000 0.59800  0.75900  0.50700  Biso   1.000  C
  C3       1.0000 0.90200  0.75900  0.49300  Biso   1.000  C
  C4       1.0000 0.40200  0.25900  0.99300  Biso   1.000  C
  C5       1.0000 0.90200  0.74100  0.99300  Biso   1.000  C
  C6       1.0000 0.40200  0.24100  0.49300  Biso   1.000  C
  C7       1.0000 0.09800  0.24100  0.50700  Biso   1.000  C
  C8       1.0000 0.59800  0.74100  0.00700  Biso   1.000  C
  N1       1.0000 0.14900  0.15000  0.00400  Biso   1.000  N
  N2       1.0000 0.64900  0.65000  0.50400  Biso   1.000  N
  N3       1.0000 0.85100  0.65000  0.49600  Biso   1.000  N
  N4       1.0000 0.35100  0.15000  0.99600  Biso   1.000  N
  N5       1.0000 0.85100  0.85000  0.99600  Biso   1.000  N
  N6       1.0000 0.35100  0.35000  0.49600  Biso   1.000  N
  N7       1.0000 0.14900  0.35000  0.50400  Biso   1.000  N
  N8       1.0000 0.64900  0.85000  0.00400  Biso   1.000  N
  N9       1.0000 0.25000  0.32800  0.00000  Biso   1.000  N
  N10      1.0000 0.75000  0.82800  0.50000  Biso   1.000  N
  N11      1.0000 0.75000  0.67200  0.00000  Biso   1.000  N
  N12      1.0000 0.25000  0.17200  0.50000  Biso   1.000  N
