data_image0
_cell_length_a       7.94
_cell_length_b       5.28
_cell_length_c       28.13
_cell_angle_alpha    94.6
_cell_angle_beta     97.1
_cell_angle_gamma    98.6

_symmetry_space_group_name_H-M    "P 1"
_symmetry_int_tables_number       1

loop_
  _symmetry_equiv_pos_as_xyz
  'x, y, z'

loop_
  _atom_site_label
  _atom_site_occupancy
  _atom_site_fract_x
  _atom_site_fract_y
  _atom_site_fract_z
  _atom_site_thermal_displace_type
  _atom_site_B_iso_or_equiv
  _atom_site_type_symbol
  Cu1      1.0000 0.93000  0.20000  0.01300  Biso   1.000  Cu
  Cu2      1.0000 0.07000  0.80000  0.98700  Biso   1.000  Cu
  C1       1.0000 0.19800  0.06300  0.08100  Biso   1.000  C
  C2       1.0000 0.80200  0.93700  0.91900  Biso   1.000  C
  C3       1.0000 0.72600  0.99000  0.46700  Biso   1.000  C
  C4       1.0000 0.27400  0.01000  0.53300  Biso   1.000  C
  C5       1.0000 0.78800  0.73500  0.04400  Biso   1.000  C
  C6       1.0000 0.21200  0.26500  0.95600  Biso   1.000  C
  C7       1.0000 0.65700  0.55700  0.07300  Biso   1.000  C
  C8       1.0000 0.34300  0.44300  0.92700  Biso   1.000  C
  C9       1.0000 0.74500  0.52700  0.12400  Biso   1.000  C
  C10      1.0000 0.25500  0.47300  0.87600  Biso   1.000  C
  C11      1.0000 0.78000  0.80700  0.15400  Biso   1.000  C
  C12      1.0000 0.22000  0.19300  0.84600  Biso   1.000  C
  C13      1.0000 0.88600  0.78100  0.20200  Biso   1.000  C
  C14      1.0000 0.11400  0.21900  0.79800  Biso   1.000  C
  C15      1.0000 0.89800  0.03000  0.24100  Biso   1.000  C
  C16      1.0000 0.10200  0.97000  0.75900  Biso   1.000  C
  C17      1.0000 0.00300  0.00500  0.29100  Biso   1.000  C
  C18      1.0000 0.99700  0.99500  0.70900  Biso   1.000  C
  C19      1.0000 0.99800  0.24700  0.32800  Biso   1.000  C
  C20      1.0000 0.00200  0.75300  0.67200  Biso   1.000  C
  C21      1.0000 0.11400  0.20700  0.38000  Biso   1.000  C
  C22      1.0000 0.88600  0.79300  0.62000  Biso   1.000  C
  C23      1.0000 0.31100  0.07800  0.12900  Biso   1.000  C
  C24      1.0000 0.68900  0.92200  0.87100  Biso   1.000  C
  C25      1.0000 0.11100  0.45300  0.41800  Biso   1.000  C
  C26      1.0000 0.88900  0.54700  0.58200  Biso   1.000  C
  C27      1.0000 0.29100  0.30700  0.16300  Biso   1.000  C
  C28      1.0000 0.70900  0.69300  0.83700  Biso   1.000  C
  C29      1.0000 0.40200  0.29700  0.21500  Biso   1.000  C
  C30      1.0000 0.59800  0.70300  0.78500  Biso   1.000  C
  C31      1.0000 0.39800  0.54200  0.25000  Biso   1.000  C
  C32      1.0000 0.60200  0.45800  0.75000  Biso   1.000  C
  C33      1.0000 0.51700  0.53200  0.29800  Biso   1.000  C
  C34      1.0000 0.48300  0.46800  0.70200  Biso   1.000  C
  C35      1.0000 0.50300  0.76100  0.33500  Biso   1.000  C
  C36      1.0000 0.49700  0.23900  0.66500  Biso   1.000  C
  C37      1.0000 0.62100  0.75200  0.38500  Biso   1.000  C
  C38      1.0000 0.37900  0.24800  0.61500  Biso   1.000  C
  C39      1.0000 0.62600  0.99900  0.41900  Biso   1.000  C
  C40      1.0000 0.37400  0.00100  0.58100  Biso   1.000  C
  O1       1.0000 0.09300  0.20200  0.06900  Biso   1.000  O
  O2       1.0000 0.90700  0.79800  0.93100  Biso   1.000  O
  O3       1.0000 0.78500  0.12400  0.94500  Biso   1.000  O
  O4       1.0000 0.21500  0.87600  0.05500  Biso   1.000  O
  O5       1.0000 0.75200  0.96000  0.03600  Biso   1.000  O
  O6       1.0000 0.24800  0.04000  0.96400  Biso   1.000  O
  O7       1.0000 0.12500  0.39600  0.97800  Biso   1.000  O
  O8       1.0000 0.87500  0.60400  0.02200  Biso   1.000  O
