data_image0
_cell_length_a       5.2035
_cell_length_b       14.331
_cell_length_c       16.44
_cell_angle_alpha    65.39
_cell_angle_beta     86.889
_cell_angle_gamma    82.886

_symmetry_space_group_name_H-M    "P 1"
_symmetry_int_tables_number       1

loop_
  _symmetry_equiv_pos_as_xyz
  'x, y, z'

loop_
  _atom_site_label
  _atom_site_occupancy
  _atom_site_fract_x
  _atom_site_fract_y
  _atom_site_fract_z
  _atom_site_thermal_displace_type
  _atom_site_B_iso_or_equiv
  _atom_site_type_symbol
  Cu1      1.0000 0.30008  0.44857  0.52341  Biso   1.000  Cu
  Cu2      1.0000 0.69992  0.55143  0.47659  Biso   1.000  Cu
  O1       1.0000 0.30220  0.47140  0.63140  Biso   1.000  O
  O2       1.0000 0.69780  0.52860  0.36860  Biso   1.000  O
  O3       1.0000 0.54590  0.32390  0.57820  Biso   1.000  O
  O4       1.0000 0.45410  0.67610  0.42180  Biso   1.000  O
  O5       1.0000 0.64320  0.56170  0.59020  Biso   1.000  O
  O6       1.0000 0.35680  0.43830  0.40980  Biso   1.000  O
  O7       1.0000 0.89290  0.41040  0.53825  Biso   1.000  O
  O8       1.0000 0.10710  0.58960  0.46175  Biso   1.000  O
  C1       1.0000 0.46440  0.52300  0.64310  Biso   1.000  C
  C2       1.0000 0.53560  0.47700  0.35690  Biso   1.000  C
  C3       1.0000 0.78660  0.32700  0.57190  Biso   1.000  C
  C4       1.0000 0.21340  0.67300  0.42810  Biso   1.000  C
  C5       1.0000 0.43080  0.54160  0.72690  Biso   1.000  C
  C6       1.0000 0.56920  0.45840  0.27310  Biso   1.000  C
  H1       1.0000 0.27480  0.58880  0.72060  Biso   1.000  H
  H2       1.0000 0.72520  0.41120  0.27940  Biso   1.000  H
  H3       1.0000 0.40320  0.47670  0.77650  Biso   1.000  H
  H4       1.0000 0.59680  0.52330  0.22350  Biso   1.000  H
  C7       1.0000 0.64870  0.58450  0.75060  Biso   1.000  C
  C8       1.0000 0.35130  0.41550  0.24940  Biso   1.000  C
  H5       1.0000 0.67570  0.65020  0.70170  Biso   1.000  H
  H6       1.0000 0.32430  0.34980  0.29830  Biso   1.000  H
  H7       1.0000 0.80570  0.53790  0.75700  Biso   1.000  H
  H8       1.0000 0.19430  0.46210  0.24300  Biso   1.000  H
  C9       1.0000 0.60460  0.60050  0.83520  Biso   1.000  C
  C10      1.0000 0.39540  0.39950  0.16480  Biso   1.000  C
  H9       1.0000 0.44850  0.64790  0.82790  Biso   1.000  H
  H10      1.0000 0.55150  0.35210  0.17210  Biso   1.000  H
  H11      1.0000 0.57240  0.53500  0.88330  Biso   1.000  H
  H12      1.0000 0.42760  0.46500  0.11670  Biso   1.000  H
  C11      1.0000 0.81620  0.64100  0.86410  Biso   1.000  C
  C12      1.0000 0.18380  0.35900  0.13590  Biso   1.000  C
  H13      1.0000 0.97300  0.59420  0.87060  Biso   1.000  H
  H14      1.0000 0.02700  0.40580  0.12940  Biso   1.000  H
  H15      1.0000 0.84670  0.70710  0.81640  Biso   1.000  H
  H16      1.0000 0.15330  0.29290  0.18360  Biso   1.000  H
  C13      1.0000 0.77430  0.65530  0.94820  Biso   1.000  C
  C14      1.0000 0.22570  0.34470  0.05180  Biso   1.000  C
  H17      1.0000 0.62080  0.70410  0.94060  Biso   1.000  H
  H18      1.0000 0.37920  0.29590  0.05940  Biso   1.000  H
  H19      1.0000 0.73640  0.58990  0.99510  Biso   1.000  H
  H20      1.0000 0.26360  0.41010  0.00490  Biso   1.000  H
  C15      1.0000 0.98460  0.69170  0.98020  Biso   1.000  C
  C16      1.0000 0.01540  0.30830  0.01980  Biso   1.000  C
  H21      1.0000 0.01670  0.75900  0.93500  Biso   1.000  H
  H22      1.0000 0.98330  0.24100  0.06500  Biso   1.000  H
  H23      1.0000 0.14070  0.64500  0.98540  Biso   1.000  H
  H24      1.0000 0.85930  0.35500  0.01460  Biso   1.000  H
  C17      1.0000 0.93960  0.70030  0.06780  Biso   1.000  C
  C18      1.0000 0.06040  0.29970  0.93220  Biso   1.000  C
  H25      1.0000 0.79030  0.75050  0.06130  Biso   1.000  H
  H26      1.0000 0.20970  0.24950  0.93870  Biso   1.000  H
  H27      1.0000 0.89560  0.63420  0.11210  Biso   1.000  H
  H28      1.0000 0.10440  0.36580  0.88790  Biso   1.000  H
  C19      1.0000 0.15700  0.73010  0.10320  Biso   1.000  C
  C20      1.0000 0.84300  0.26990  0.89680  Biso   1.000  C
  H29      1.0000 0.19280  0.79880  0.06170  Biso   1.000  H
  H30      1.0000 0.80720  0.20120  0.93830  Biso   1.000  H
  H31      1.0000 0.31060  0.68290  0.10620  Biso   1.000  H
  H32      1.0000 0.68940  0.31710  0.89380  Biso   1.000  H
  C21      1.0000 0.10510  0.72960  0.19540  Biso   1.000  C
  C22      1.0000 0.89490  0.27040  0.80460  Biso   1.000  C
  H33      1.0000 0.25220  0.75000  0.21400  Biso   1.000  H
  H34      1.0000 0.74780  0.25000  0.78600  Biso   1.000  H
  H35      1.0000 0.07510  0.66130  0.23740  Biso   1.000  H
  H36      1.0000 0.92490  0.33870  0.76260  Biso   1.000  H
  H37      1.0000 0.95520  0.77700  0.19290  Biso   1.000  H
  H38      1.0000 0.04480  0.22300  0.80710  Biso   1.000  H
  C23      1.0000 0.95810  0.22710  0.60100  Biso   1.000  C
  C24      1.0000 0.04190  0.77290  0.39900  Biso   1.000  C
  H39      1.0000 0.86700  0.17220  0.64440  Biso   1.000  H
  H40      1.0000 0.13300  0.82780  0.35560  Biso   1.000  H
  H41      1.0000 0.11110  0.23180  0.62970  Biso   1.000  H
  H42      1.0000 0.88890  0.76820  0.37030  Biso   1.000  H
  C25      1.0000 0.03910  0.20130  0.52160  Biso   1.000  C
  C26      1.0000 0.96090  0.79870  0.47840  Biso   1.000  C
  H43      1.0000 0.10910  0.26050  0.47520  Biso   1.000  H
  H44      1.0000 0.89090  0.73950  0.52480  Biso   1.000  H
  H45      1.0000 0.17610  0.14430  0.54040  Biso   1.000  H
  H46      1.0000 0.82390  0.85570  0.45960  Biso   1.000  H
  C27      1.0000 0.82160  0.17270  0.48260  Biso   1.000  C
  C28      1.0000 0.17840  0.82730  0.51740  Biso   1.000  C
  H47      1.0000 0.68610  0.23030  0.46290  Biso   1.000  H
  H48      1.0000 0.31390  0.76970  0.53710  Biso   1.000  H
  H49      1.0000 0.74950  0.11450  0.52940  Biso   1.000  H
  H50      1.0000 0.25050  0.88550  0.47060  Biso   1.000  H
  C29      1.0000 0.89920  0.14500  0.40480  Biso   1.000  C
  C30      1.0000 0.10080  0.85500  0.59520  Biso   1.000  C
  H51      1.0000 0.04180  0.09020  0.42360  Biso   1.000  H
  H52      1.0000 0.95820  0.90980  0.57640  Biso   1.000  H
  H53      1.0000 0.96260  0.20460  0.35690  Biso   1.000  H
  H54      1.0000 0.03740  0.79540  0.64310  Biso   1.000  H
  C31      1.0000 0.68930  0.11060  0.36800  Biso   1.000  C
  C32      1.0000 0.31070  0.88940  0.63200  Biso   1.000  C
  H55      1.0000 0.54670  0.16540  0.34900  Biso   1.000  H
  H56      1.0000 0.45330  0.83460  0.65100  Biso   1.000  H
  H57      1.0000 0.62580  0.05090  0.41580  Biso   1.000  H
  H58      1.0000 0.37420  0.94910  0.58420  Biso   1.000  H
  C33      1.0000 0.76920  0.08310  0.29040  Biso   1.000  C
  C34      1.0000 0.23080  0.91690  0.70960  Biso   1.000  C
  H59      1.0000 0.82770  0.14350  0.24210  Biso   1.000  H
  H60      1.0000 0.17230  0.85650  0.75790  Biso   1.000  H
  H61      1.0000 0.91580  0.03000  0.30900  Biso   1.000  H
  H62      1.0000 0.08420  0.97000  0.69100  Biso   1.000  H
  C35      1.0000 0.56470  0.04560  0.25490  Biso   1.000  C
  C36      1.0000 0.43530  0.95440  0.74510  Biso   1.000  C
  H63      1.0000 0.50680  0.98470  0.30290  Biso   1.000  H
  H64      1.0000 0.49320  0.01530  0.69710  Biso   1.000  H
  H65      1.0000 0.41760  0.09830  0.23630  Biso   1.000  H
  H66      1.0000 0.58240  0.90170  0.76370  Biso   1.000  H
  C37      1.0000 0.64920  0.01950  0.17790  Biso   1.000  C
  C38      1.0000 0.35080  0.98050  0.82210  Biso   1.000  C
  H67      1.0000 0.70950  0.08050  0.13070  Biso   1.000  H
  H68      1.0000 0.29050  0.91950  0.86930  Biso   1.000  H
  H69      1.0000 0.79650  0.96680  0.19710  Biso   1.000  H
  H70      1.0000 0.20350  0.03320  0.80290  Biso   1.000  H
  C39      1.0000 0.45900  0.98330  0.13990  Biso   1.000  C
  C40      1.0000 0.54100  0.01670  0.86010  Biso   1.000  C
  H71      1.0000 0.53720  0.96800  0.09190  Biso   1.000  H
  H72      1.0000 0.46280  0.03200  0.90810  Biso   1.000  H
  H73      1.0000 0.31580  0.03590  0.11740  Biso   1.000  H
  H74      1.0000 0.68420  0.96410  0.88260  Biso   1.000  H
  H75      1.0000 0.39940  0.92200  0.18530  Biso   1.000  H
  H76      1.0000 0.60060  0.07800  0.81470  Biso   1.000  H
