data_image0
_cell_length_a       5.288
_cell_length_b       8.443
_cell_length_c       27.422
_cell_angle_alpha    83.97
_cell_angle_beta     83.04
_cell_angle_gamma    78.35

_symmetry_space_group_name_H-M    "P 1"
_symmetry_int_tables_number       1

loop_
  _symmetry_equiv_pos_as_xyz
  'x, y, z'

loop_
  _atom_site_label
  _atom_site_occupancy
  _atom_site_fract_x
  _atom_site_fract_y
  _atom_site_fract_z
  _atom_site_thermal_displace_type
  _atom_site_B_iso_or_equiv
  _atom_site_type_symbol
  Cu1      1.0000 0.76668  0.51465  0.52340  Biso   1.000  Cu
  Cu2      1.0000 0.23332  0.48535  0.47660  Biso   1.000  Cu
  O1       1.0000 0.87921  0.28630  0.54319  Biso   1.000  O
  O2       1.0000 0.12079  0.71370  0.45681  Biso   1.000  O
  O3       1.0000 0.28158  0.26333  0.50145  Biso   1.000  O
  O4       1.0000 0.71842  0.73667  0.49855  Biso   1.000  O
  C1       1.0000 0.11310  0.20573  0.52983  Biso   1.000  C
  C2       1.0000 0.88690  0.79427  0.47017  Biso   1.000  C
  C3       1.0000 0.20423  0.03474  0.55130  Biso   1.000  C
  C4       1.0000 0.79577  0.96526  0.44870  Biso   1.000  C
  H1       1.0000 0.26974  0.96365  0.52541  Biso   1.000  H
  H2       1.0000 0.73026  0.03635  0.47459  Biso   1.000  H
  H3       1.0000 0.05532  0.00005  0.56959  Biso   1.000  H
  H4       1.0000 0.94468  0.99995  0.43041  Biso   1.000  H
  C5       1.0000 0.42822  0.02466  0.58493  Biso   1.000  C
  C6       1.0000 0.57178  0.97534  0.41507  Biso   1.000  C
  H5       1.0000 0.51700  0.91194  0.59172  Biso   1.000  H
  H6       1.0000 0.48300  0.08806  0.40828  Biso   1.000  H
  H7       1.0000 0.55835  0.07973  0.56810  Biso   1.000  H
  H8       1.0000 0.44165  0.92027  0.43190  Biso   1.000  H
  C7       1.0000 0.33137  0.09663  0.63171  Biso   1.000  C
  C8       1.0000 0.66863  0.90337  0.36829  Biso   1.000  C
  H9       1.0000 0.20488  0.03897  0.64880  Biso   1.000  H
  H10      1.0000 0.79512  0.96103  0.35120  Biso   1.000  H
  H11      1.0000 0.23575  0.20795  0.62470  Biso   1.000  H
  H12      1.0000 0.76425  0.79205  0.37530  Biso   1.000  H
  C9       1.0000 0.54837  0.09371  0.66494  Biso   1.000  C
  C10      1.0000 0.45163  0.90629  0.33506  Biso   1.000  C
  H13      1.0000 0.65422  0.98373  0.66932  Biso   1.000  H
  H14      1.0000 0.34578  0.01627  0.33068  Biso   1.000  H
  H15      1.0000 0.66484  0.15986  0.64891  Biso   1.000  H
  H16      1.0000 0.33516  0.84014  0.35109  Biso   1.000  H
  C11      1.0000 0.45245  0.15215  0.71365  Biso   1.000  C
  C12      1.0000 0.54755  0.84785  0.28635  Biso   1.000  C
  H17      1.0000 0.34668  0.08037  0.73067  Biso   1.000  H
  H18      1.0000 0.65332  0.91963  0.26933  Biso   1.000  H
  H19      1.0000 0.33515  0.25853  0.70927  Biso   1.000  H
  H20      1.0000 0.66485  0.74147  0.29073  Biso   1.000  H
  C13      1.0000 0.67555  0.16035  0.74597  Biso   1.000  C
  C14      1.0000 0.32445  0.83965  0.25403  Biso   1.000  C
  H21      1.0000 0.76787  0.24146  0.73154  Biso   1.000  H
  H22      1.0000 0.23213  0.75854  0.26846  Biso   1.000  H
  H23      1.0000 0.80365  0.05650  0.74827  Biso   1.000  H
  H24      1.0000 0.19635  0.94350  0.25173  Biso   1.000  H
  C15      1.0000 0.55188  0.20331  0.79731  Biso   1.000  C
  C16      1.0000 0.44812  0.79669  0.20269  Biso   1.000  C
  H25      1.0000 0.45962  0.12190  0.81148  Biso   1.000  H
  H26      1.0000 0.54038  0.87810  0.18852  Biso   1.000  H
  H27      1.0000 0.42645  0.30633  0.79497  Biso   1.000  H
  H28      1.0000 0.57355  0.69367  0.20503  Biso   1.000  H
  C17      1.0000 0.77200  0.20931  0.82930  Biso   1.000  C
  C18      1.0000 0.22800  0.79069  0.17070  Biso   1.000  C
  H29      1.0000 0.87648  0.29962  0.81349  Biso   1.000  H
  H30      1.0000 0.12352  0.70038  0.18651  Biso   1.000  H
  H31      1.0000 0.91319  0.09224  0.83178  Biso   1.000  H
  H32      1.0000 0.08681  0.90776  0.16822  Biso   1.000  H
  C19      1.0000 0.64846  0.25183  0.87999  Biso   1.000  C
  C20      1.0000 0.35154  0.74817  0.12001  Biso   1.000  C
  H33      1.0000 0.54525  0.16095  0.89569  Biso   1.000  H
  H34      1.0000 0.45475  0.83905  0.10431  Biso   1.000  H
  H35      1.0000 0.50661  0.36866  0.87750  Biso   1.000  H
  H36      1.0000 0.49339  0.63134  0.12250  Biso   1.000  H
  H37      1.0000 0.80507  0.25646  0.90318  Biso   1.000  H
  H38      1.0000 0.19493  0.74354  0.09682  Biso   1.000  H
  O5       1.0000 0.66635  0.46560  0.45895  Biso   1.000  O
  O6       1.0000 0.33365  0.53440  0.54105  Biso   1.000  O
  O7       1.0000 0.07205  0.43861  0.42002  Biso   1.000  O
  O8       1.0000 0.92795  0.56139  0.57998  Biso   1.000  O
  C21      1.0000 0.83117  0.43754  0.42097  Biso   1.000  C
  C22      1.0000 0.16883  0.56246  0.57903  Biso   1.000  C
  C23      1.0000 0.72120  0.40593  0.37631  Biso   1.000  C
  C24      1.0000 0.27880  0.59407  0.62369  Biso   1.000  C
  H39      1.0000 0.56719  0.49365  0.36930  Biso   1.000  H
  H40      1.0000 0.43281  0.50635  0.63070  Biso   1.000  H
  H41      1.0000 0.65680  0.30759  0.38314  Biso   1.000  H
  H42      1.0000 0.34320  0.69241  0.61686  Biso   1.000  H
  C25      1.0000 0.90913  0.38841  0.33136  Biso   1.000  C
  C26      1.0000 0.09087  0.61159  0.66864  Biso   1.000  C
  H43      1.0000 0.06396  0.30116  0.33789  Biso   1.000  H
  H44      1.0000 0.93604  0.69884  0.66211  Biso   1.000  H
  H45      1.0000 0.97049  0.48734  0.32358  Biso   1.000  H
  H46      1.0000 0.02951  0.51266  0.67642  Biso   1.000  H
  C27      1.0000 0.78231  0.35375  0.28739  Biso   1.000  C
  C28      1.0000 0.21769  0.64625  0.71261  Biso   1.000  C
  H47      1.0000 0.72699  0.25242  0.29473  Biso   1.000  H
  H48      1.0000 0.27301  0.74758  0.70527  Biso   1.000  H
  H49      1.0000 0.62216  0.43841  0.28166  Biso   1.000  H
  H50      1.0000 0.37784  0.56159  0.71834  Biso   1.000  H
  C29      1.0000 0.96640  0.34322  0.24127  Biso   1.000  C
  C30      1.0000 0.03360  0.65678  0.75873  Biso   1.000  C
  H51      1.0000 0.12841  0.26012  0.24700  Biso   1.000  H
  H52      1.0000 0.87159  0.73988  0.75300  Biso   1.000  H
  H53      1.0000 0.01647  0.44525  0.23305  Biso   1.000  H
  H54      1.0000 0.98353  0.55475  0.76695  Biso   1.000  H
  C31      1.0000 0.83158  0.30222  0.19730  Biso   1.000  C
  C32      1.0000 0.16842  0.69778  0.80270  Biso   1.000  C
  H55      1.0000 0.77973  0.19965  0.20526  Biso   1.000  H
  H56      1.0000 0.22027  0.80035  0.79474  Biso   1.000  H
  H57      1.0000 0.67080  0.38499  0.19091  Biso   1.000  H
  H58      1.0000 0.32920  0.61501  0.80909  Biso   1.000  H
  C33      1.0000 0.02200  0.29036  0.15271  Biso   1.000  C
  C34      1.0000 0.97800  0.70964  0.84729  Biso   1.000  C
  H59      1.0000 0.18047  0.20455  0.15775  Biso   1.000  H
  H60      1.0000 0.81953  0.79545  0.84225  Biso   1.000  H
  H61      1.0000 0.07360  0.39148  0.14377  Biso   1.000  H
  H62      1.0000 0.92640  0.60852  0.85623  Biso   1.000  H
  C35      1.0000 0.85676  0.25141  0.11269  Biso   1.000  C
  C36      1.0000 0.14324  0.74859  0.88731  Biso   1.000  C
  H63      1.0000 0.70410  0.33945  0.10732  Biso   1.000  H
  H64      1.0000 0.29590  0.66055  0.89268  Biso   1.000  H
  H65      1.0000 0.79666  0.15445  0.12325  Biso   1.000  H
  H66      1.0000 0.20334  0.84555  0.87675  Biso   1.000  H
  C37      1.0000 0.03214  0.22704  0.06529  Biso   1.000  C
  C38      1.0000 0.96786  0.77296  0.93471  Biso   1.000  C
  H67      1.0000 0.20655  0.12802  0.07095  Biso   1.000  H
  H68      1.0000 0.79345  0.87198  0.92905  Biso   1.000  H
  H69      1.0000 0.09723  0.33640  0.05346  Biso   1.000  H
  H70      1.0000 0.90277  0.66360  0.94654  Biso   1.000  H
  C39      1.0000 0.87159  0.18923  0.02651  Biso   1.000  C
  C40      1.0000 0.12841  0.81077  0.97349  Biso   1.000  C
  H71      1.0000 0.69809  0.28884  0.02089  Biso   1.000  H
  H72      1.0000 0.30191  0.71116  0.97911  Biso   1.000  H
  H73      1.0000 0.80555  0.08019  0.03845  Biso   1.000  H
  H74      1.0000 0.19445  0.91981  0.96155  Biso   1.000  H
  H75      1.0000 0.99605  0.17150  0.99240  Biso   1.000  H
  H76      1.0000 0.00395  0.82850  0.00760  Biso   1.000  H
