data_image0
_cell_length_a       8.343
_cell_length_b       12.854
_cell_length_c       8.762
_cell_angle_alpha    90
_cell_angle_beta     90
_cell_angle_gamma    113.5

_symmetry_space_group_name_H-M    "P 1"
_symmetry_int_tables_number       1

loop_
  _symmetry_equiv_pos_as_xyz
  'x, y, z'

loop_
  _atom_site_label
  _atom_site_occupancy
  _atom_site_fract_x
  _atom_site_fract_y
  _atom_site_fract_z
  _atom_site_thermal_displace_type
  _atom_site_B_iso_or_equiv
  _atom_site_type_symbol
  Cu1      1.0000 0.16580  0.02370  0.00070  Biso   1.000  Cu
  Cu2      1.0000 0.83420  0.97630  0.50070  Biso   1.000  Cu
  Cu3      1.0000 0.30630  0.47290  0.99910  Biso   1.000  Cu
  Cu4      1.0000 0.69370  0.52710  0.49910  Biso   1.000  Cu
  O1       1.0000 0.02400  0.01600  0.18400  Biso   1.000  O
  O2       1.0000 0.97600  0.98400  0.68400  Biso   1.000  O
  O3       1.0000 0.01500  0.08900  0.41200  Biso   1.000  O
  O4       1.0000 0.98500  0.91100  0.91200  Biso   1.000  O
  O5       1.0000 0.32200  0.16200  0.13000  Biso   1.000  O
  O6       1.0000 0.67800  0.83800  0.63000  Biso   1.000  O
  O7       1.0000 0.14200  0.30900  0.13900  Biso   1.000  O
  O8       1.0000 0.85800  0.69100  0.63900  Biso   1.000  O
  O9       1.0000 0.49900  0.38800  0.39600  Biso   1.000  O
  O10      1.0000 0.50100  0.61200  0.89600  Biso   1.000  O
  C1       1.0000 0.09200  0.07700  0.30000  Biso   1.000  C
  C2       1.0000 0.90800  0.92300  0.80000  Biso   1.000  C
  C3       1.0000 0.25600  0.18200  0.26900  Biso   1.000  C
  C4       1.0000 0.74400  0.81800  0.76900  Biso   1.000  C
  C5       1.0000 0.23800  0.29400  0.26700  Biso   1.000  C
  C6       1.0000 0.76200  0.70600  0.76700  Biso   1.000  C
  C7       1.0000 0.41500  0.39100  0.28300  Biso   1.000  C
  C8       1.0000 0.58500  0.60900  0.78300  Biso   1.000  C
  O11      1.0000 0.30200  0.05800  0.82700  Biso   1.000  O
  O12      1.0000 0.69800  0.94200  0.32700  Biso   1.000  O
  O13      1.0000 0.41900  0.16300  0.62300  Biso   1.000  O
  O14      1.0000 0.58100  0.83700  0.12300  Biso   1.000  O
  O15      1.0000 0.10700  0.18600  0.87700  Biso   1.000  O
  O16      1.0000 0.89300  0.81400  0.37700  Biso   1.000  O
  O17      1.0000 0.38800  0.36700  0.88100  Biso   1.000  O
  O18      1.0000 0.61200  0.63300  0.38100  Biso   1.000  O
  O19      1.0000 0.15200  0.45200  0.82100  Biso   1.000  O
  O20      1.0000 0.84800  0.54800  0.32100  Biso   1.000  O
  O21      1.0000 0.12300  0.38900  0.57500  Biso   1.000  O
  O22      1.0000 0.87700  0.61100  0.07500  Biso   1.000  O
  C9       1.0000 0.30900  0.12900  0.72800  Biso   1.000  C
  C10      1.0000 0.69100  0.87100  0.22800  Biso   1.000  C
  C11      1.0000 0.20500  0.20600  0.73940  Biso   1.000  C
  C12      1.0000 0.79500  0.79400  0.23940  Biso   1.000  C
  C13      1.0000 0.30800  0.33600  0.73500  Biso   1.000  C
  C14      1.0000 0.69200  0.66400  0.23500  Biso   1.000  C
  C15      1.0000 0.19200  0.40300  0.71100  Biso   1.000  C
  C16      1.0000 0.80800  0.59700  0.21100  Biso   1.000  C
  O23      1.0000 0.28100  0.87200  0.06900  Biso   1.000  O
  O24      1.0000 0.71900  0.12800  0.56900  Biso   1.000  O
  O25      1.0000 0.19500  0.57400  0.11300  Biso   1.000  O
  O26      1.0000 0.80500  0.42600  0.61300  Biso   1.000  O
  O27      1.0000 0.45140  0.47311  0.20232  Biso   1.000  O
  O28      1.0000 0.54860  0.52689  0.70232  Biso   1.000  O
  O29      1.0000 0.23000  0.82900  0.38700  Biso   1.000  O
  O30      1.0000 0.77000  0.17100  0.88700  Biso   1.000  O
  O31      1.0000 0.27700  0.60600  0.40200  Biso   1.000  O
  O32      1.0000 0.72300  0.39400  0.90200  Biso   1.000  O
  O33      1.0000 0.24400  0.69200  0.77800  Biso   1.000  O
  O34      1.0000 0.75600  0.30800  0.27800  Biso   1.000  O
  O35      1.0000 0.34600  0.89200  0.66800  Biso   1.000  O
  O36      1.0000 0.65400  0.10800  0.16800  Biso   1.000  O
