data_image0
_cell_length_a       8.3878
_cell_length_b       8.785
_cell_length_c       12.197
_cell_angle_alpha    90
_cell_angle_beta     104.63
_cell_angle_gamma    90

_symmetry_space_group_name_H-M    "P 1"
_symmetry_int_tables_number       1

loop_
  _symmetry_equiv_pos_as_xyz
  'x, y, z'

loop_
  _atom_site_label
  _atom_site_occupancy
  _atom_site_fract_x
  _atom_site_fract_y
  _atom_site_fract_z
  _atom_site_thermal_displace_type
  _atom_site_B_iso_or_equiv
  _atom_site_type_symbol
  Cu1      1.0000 0.30766  0.91730  0.97306  Biso   1.000  Cu
  Cu2      1.0000 0.69234  0.41730  0.02694  Biso   1.000  Cu
  Cu3      1.0000 0.16822  0.91890  0.52451  Biso   1.000  Cu
  Cu4      1.0000 0.83178  0.41890  0.47549  Biso   1.000  Cu
  O1       1.0000 0.32600  0.04410  0.64590  Biso   1.000  O
  O2       1.0000 0.67400  0.54410  0.35410  Biso   1.000  O
  H1       1.0000 0.42040  0.05630  0.64000  Biso   1.000  H
  H2       1.0000 0.57960  0.55630  0.36000  Biso   1.000  H
  O3       1.0000 0.03390  0.10360  0.51810  Biso   1.000  O
  O4       1.0000 0.96610  0.60360  0.48190  Biso   1.000  O
  O5       1.0000 0.01770  0.33250  0.59210  Biso   1.000  O
  O6       1.0000 0.98230  0.83250  0.40790  Biso   1.000  O
  O7       1.0000 0.14450  0.05980  0.81010  Biso   1.000  O
  O8       1.0000 0.85550  0.55980  0.18990  Biso   1.000  O
  H3       1.0000 0.05110  0.08730  0.81050  Biso   1.000  H
  H4       1.0000 0.94890  0.58730  0.18950  Biso   1.000  H
  O9       1.0000 0.44200  0.08850  0.95730  Biso   1.000  O
  O10      1.0000 0.55800  0.58850  0.04270  Biso   1.000  O
  O11      1.0000 0.49470  0.30390  0.87600  Biso   1.000  O
  O12      1.0000 0.50530  0.80390  0.12400  Biso   1.000  O
  O13      1.0000 0.19880  0.02080  0.07930  Biso   1.000  O
  O14      1.0000 0.80120  0.52080  0.92070  Biso   1.000  O
  H5       1.0000 0.10130  0.99640  0.06520  Biso   1.000  H
  H6       1.0000 0.89870  0.49640  0.93480  Biso   1.000  H
  O15      1.0000 0.28080  0.98530  0.36850  Biso   1.000  O
  O16      1.0000 0.71920  0.48530  0.63150  Biso   1.000  O
  H7       1.0000 0.20910  0.03200  0.31800  Biso   1.000  H
  H8       1.0000 0.79090  0.53200  0.68200  Biso   1.000  H
  O17      1.0000 0.10380  0.79540  0.68440  Biso   1.000  O
  O18      1.0000 0.89620  0.29540  0.31560  Biso   1.000  O
  H9       1.0000 0.14130  0.85700  0.73500  Biso   1.000  H
  H10      1.0000 0.85870  0.35700  0.26500  Biso   1.000  H
  O19      1.0000 0.31660  0.74590  0.55050  Biso   1.000  O
  O20      1.0000 0.68340  0.24590  0.44950  Biso   1.000  O
  O21      1.0000 0.40380  0.53000  0.63770  Biso   1.000  O
  O22      1.0000 0.59620  0.03000  0.36230  Biso   1.000  O
  O23      1.0000 0.38520  0.79670  0.85580  Biso   1.000  O
  O24      1.0000 0.61480  0.29670  0.14420  Biso   1.000  O
  H11      1.0000 0.48420  0.78410  0.86310  Biso   1.000  H
  H12      1.0000 0.51580  0.28410  0.13690  Biso   1.000  H
  O25      1.0000 0.16570  0.74350  0.96760  Biso   1.000  O
  O26      1.0000 0.83430  0.24350  0.03240  Biso   1.000  O
  O27      1.0000 0.12420  0.49980  0.91020  Biso   1.000  O
  O28      1.0000 0.87580  0.99980  0.08980  Biso   1.000  O
  C1       1.0000 0.09150  0.20760  0.58690  Biso   1.000  C
  C2       1.0000 0.90850  0.70760  0.41310  Biso   1.000  C
  C3       1.0000 0.25840  0.18620  0.67170  Biso   1.000  C
  C4       1.0000 0.74160  0.68620  0.32830  Biso   1.000  C
  H13      1.0000 0.33290  0.26850  0.66300  Biso   1.000  H
  H14      1.0000 0.66710  0.76850  0.33700  Biso   1.000  H
  C5       1.0000 0.24050  0.18670  0.79320  Biso   1.000  C
  C6       1.0000 0.75950  0.68670  0.20680  Biso   1.000  C
  H15      1.0000 0.17860  0.27830  0.80300  Biso   1.000  H
  H16      1.0000 0.82140  0.77830  0.19700  Biso   1.000  H
  C7       1.0000 0.40680  0.19440  0.88220  Biso   1.000  C
  C8       1.0000 0.59320  0.69440  0.11780  Biso   1.000  C
  C9       1.0000 0.31670  0.64410  0.62640  Biso   1.000  C
  C10      1.0000 0.68330  0.14410  0.37360  Biso   1.000  C
  C11      1.0000 0.20240  0.65680  0.70540  Biso   1.000  C
  C12      1.0000 0.79760  0.15680  0.29460  Biso   1.000  C
  H17      1.0000 0.12700  0.56970  0.69150  Biso   1.000  H
  H18      1.0000 0.87300  0.06970  0.30850  Biso   1.000  H
  C13      1.0000 0.30260  0.65190  0.83160  Biso   1.000  C
  C14      1.0000 0.69740  0.15190  0.16840  Biso   1.000  C
  H19      1.0000 0.38400  0.56960  0.84160  Biso   1.000  H
  H20      1.0000 0.61600  0.06960  0.15840  Biso   1.000  H
  C15      1.0000 0.19110  0.62890  0.90950  Biso   1.000  C
  C16      1.0000 0.80890  0.12890  0.09050  Biso   1.000  C
  H21      1.0000 0.22200  0.11490  0.07900  Biso   1.000  H
  H22      1.0000 0.77800  0.61490  0.92100  Biso   1.000  H
  H23      1.0000 0.37600  0.96600  0.36000  Biso   1.000  H
  H24      1.0000 0.62400  0.46600  0.64000  Biso   1.000  H
  O29      1.0000 0.28590  0.32210  0.11180  Biso   1.000  O
  O30      1.0000 0.71410  0.82210  0.88820  Biso   1.000  O
  H25      1.0000 0.21970  0.36840  0.14250  Biso   1.000  H
  H26      1.0000 0.78030  0.86840  0.85750  Biso   1.000  H
  H27      1.0000 0.24240  0.23720  0.08760  Biso   1.000  H
  H28      1.0000 0.75760  0.73720  0.91240  Biso   1.000  H
  O31      1.0000 0.14550  0.67670  0.19050  Biso   1.000  O
  O32      1.0000 0.85450  0.17670  0.80950  Biso   1.000  O
  H29      1.0000 0.15850  0.77080  0.20650  Biso   1.000  H
  H30      1.0000 0.84150  0.27080  0.79350  Biso   1.000  H
  H31      1.0000 0.18270  0.66040  0.13300  Biso   1.000  H
  H32      1.0000 0.81730  0.16040  0.86700  Biso   1.000  H
  O33      1.0000 0.22520  0.29980  0.32910  Biso   1.000  O
  O34      1.0000 0.77480  0.79980  0.67090  Biso   1.000  O
  H33      1.0000 0.27550  0.35800  0.38220  Biso   1.000  H
  H34      1.0000 0.72450  0.85800  0.61780  Biso   1.000  H
  H35      1.0000 0.12240  0.31370  0.32000  Biso   1.000  H
  H36      1.0000 0.87760  0.81370  0.68000  Biso   1.000  H
  O35      1.0000 0.38130  0.57800  0.37370  Biso   1.000  O
  O36      1.0000 0.61870  0.07800  0.62630  Biso   1.000  O
  H37      1.0000 0.29400  0.62400  0.38400  Biso   1.000  H
  H38      1.0000 0.70600  0.12400  0.61600  Biso   1.000  H
  H39      1.0000 0.38000  0.47300  0.37600  Biso   1.000  H
  H40      1.0000 0.62000  0.97300  0.62400  Biso   1.000  H
