data_image0
_cell_length_a       12.13
_cell_length_b       8.37
_cell_length_c       8.74
_cell_angle_alpha    90
_cell_angle_beta     90
_cell_angle_gamma    104.6

_symmetry_space_group_name_H-M    "P 1"
_symmetry_int_tables_number       1

loop_
  _symmetry_equiv_pos_as_xyz
  'x, y, z'

loop_
  _atom_site_label
  _atom_site_occupancy
  _atom_site_fract_x
  _atom_site_fract_y
  _atom_site_fract_z
  _atom_site_thermal_displace_type
  _atom_site_B_iso_or_equiv
  _atom_site_type_symbol
  Cu1      1.0000 0.02430  0.16750  0.00080  Biso   1.000  Cu
  Cu2      1.0000 0.97570  0.83250  0.50080  Biso   1.000  Cu
  Cu3      1.0000 0.47270  0.30730  0.99930  Biso   1.000  Cu
  Cu4      1.0000 0.52730  0.69270  0.49930  Biso   1.000  Cu
  C1       1.0000 0.12520  0.31600  0.72800  Biso   1.000  C
  C2       1.0000 0.87480  0.68400  0.22800  Biso   1.000  C
  C3       1.0000 0.20640  0.19900  0.74000  Biso   1.000  C
  C4       1.0000 0.79360  0.80100  0.24000  Biso   1.000  C
  C5       1.0000 0.33120  0.30800  0.73500  Biso   1.000  C
  C6       1.0000 0.66880  0.69200  0.23500  Biso   1.000  C
  C7       1.0000 0.40950  0.19200  0.71100  Biso   1.000  C
  C8       1.0000 0.59050  0.80800  0.21100  Biso   1.000  C
  C9       1.0000 0.08540  0.09200  0.29100  Biso   1.000  C
  C10      1.0000 0.91460  0.90800  0.79100  Biso   1.000  C
  C11      1.0000 0.17200  0.25600  0.26900  Biso   1.000  C
  C12      1.0000 0.82800  0.74400  0.76900  Biso   1.000  C
  C13      1.0000 0.29400  0.23800  0.26700  Biso   1.000  C
  C14      1.0000 0.70600  0.76200  0.76700  Biso   1.000  C
  C15      1.0000 0.37970  0.40500  0.27300  Biso   1.000  C
  C16      1.0000 0.62030  0.59500  0.77300  Biso   1.000  C
  O1       1.0000 0.86770  0.28100  0.06700  Biso   1.000  O
  O2       1.0000 0.13230  0.71900  0.56700  Biso   1.000  O
  O3       1.0000 0.04810  0.31400  0.82700  Biso   1.000  O
  O4       1.0000 0.95190  0.68600  0.32700  Biso   1.000  O
  O5       1.0000 0.13850  0.40100  0.61200  Biso   1.000  O
  O6       1.0000 0.86150  0.59900  0.11200  Biso   1.000  O
  O7       1.0000 0.18560  0.10700  0.87700  Biso   1.000  O
  O8       1.0000 0.81440  0.89300  0.37700  Biso   1.000  O
  O9       1.0000 0.35710  0.38800  0.88000  Biso   1.000  O
  O10      1.0000 0.64290  0.61200  0.38000  Biso   1.000  O
  O11      1.0000 0.46730  0.16900  0.82300  Biso   1.000  O
  O12      1.0000 0.53270  0.83100  0.32300  Biso   1.000  O
  O13      1.0000 0.40820  0.12200  0.58100  Biso   1.000  O
  O14      1.0000 0.59180  0.87800  0.08100  Biso   1.000  O
  O15      1.0000 0.57610  0.19900  0.10400  Biso   1.000  O
  O16      1.0000 0.42390  0.80100  0.60400  Biso   1.000  O
  O17      1.0000 0.01610  0.03900  0.18400  Biso   1.000  O
  O18      1.0000 0.98390  0.96100  0.68400  Biso   1.000  O
  O19      1.0000 0.09370  0.01500  0.41200  Biso   1.000  O
  O20      1.0000 0.90630  0.98500  0.91200  Biso   1.000  O
  O21      1.0000 0.14650  0.32200  0.12300  Biso   1.000  O
  O22      1.0000 0.85350  0.67800  0.62300  Biso   1.000  O
  O23      1.0000 0.30990  0.14200  0.13900  Biso   1.000  O
  O24      1.0000 0.69010  0.85800  0.63900  Biso   1.000  O
  O25      1.0000 0.45770  0.44100  0.16900  Biso   1.000  O
  O26      1.0000 0.54230  0.55900  0.66900  Biso   1.000  O
  O27      1.0000 0.37570  0.49400  0.38400  Biso   1.000  O
  O28      1.0000 0.62430  0.50600  0.88400  Biso   1.000  O
  O29      1.0000 0.82910  0.22600  0.38000  Biso   1.000  O
  O30      1.0000 0.17090  0.77400  0.88000  Biso   1.000  O
  O31      1.0000 0.60570  0.28200  0.40100  Biso   1.000  O
  O32      1.0000 0.39430  0.71800  0.90100  Biso   1.000  O
  O33      1.0000 0.69270  0.14500  0.77500  Biso   1.000  O
  O34      1.0000 0.30730  0.85500  0.27500  Biso   1.000  O
  O35      1.0000 0.87460  0.38400  0.65500  Biso   1.000  O
  O36      1.0000 0.12540  0.61600  0.15500  Biso   1.000  O
