data_image0
_cell_length_a       8.35
_cell_length_b       8.7471
_cell_length_c       12.0392
_cell_angle_alpha    90
_cell_angle_beta     104.276
_cell_angle_gamma    90

_symmetry_space_group_name_H-M    "P 1"
_symmetry_int_tables_number       1

loop_
  _symmetry_equiv_pos_as_xyz
  'x, y, z'

loop_
  _atom_site_label
  _atom_site_occupancy
  _atom_site_fract_x
  _atom_site_fract_y
  _atom_site_fract_z
  _atom_site_thermal_displace_type
  _atom_site_B_iso_or_equiv
  _atom_site_type_symbol
  Cu1      1.0000 0.19191  0.11136  0.52642  Biso   1.000  Cu
  Cu2      1.0000 0.80809  0.61136  0.47358  Biso   1.000  Cu
  Cu3      1.0000 0.33140  0.11234  0.97717  Biso   1.000  Cu
  Cu4      1.0000 0.66860  0.61234  0.02283  Biso   1.000  Cu
  O1       1.0000 0.33530  0.93570  0.53085  Biso   1.000  O
  O2       1.0000 0.66470  0.43570  0.46915  Biso   1.000  O
  O3       1.0000 0.37190  0.69340  0.58636  Biso   1.000  O
  O4       1.0000 0.62810  0.19340  0.41364  Biso   1.000  O
  O5       1.0000 0.18500  0.93790  0.95147  Biso   1.000  O
  O6       1.0000 0.81500  0.43790  0.04853  Biso   1.000  O
  O7       1.0000 0.09760  0.71960  0.86392  Biso   1.000  O
  O8       1.0000 0.90240  0.21960  0.13608  Biso   1.000  O
  O9       1.0000 0.11460  0.99100  0.64526  Biso   1.000  O
  O10      1.0000 0.88540  0.49100  0.35474  Biso   1.000  O
  H1       1.0000 0.01050  0.99220  0.63660  Biso   1.000  H
  H2       1.0000 0.98950  0.49220  0.36340  Biso   1.000  H
  O11      1.0000 0.05490  0.28240  0.54201  Biso   1.000  O
  O12      1.0000 0.94510  0.78240  0.45799  Biso   1.000  O
  O13      1.0000 0.00410  0.49930  0.62297  Biso   1.000  O
  O14      1.0000 0.99590  0.99930  0.37703  Biso   1.000  O
  O15      1.0000 0.46370  0.29590  0.98402  Biso   1.000  O
  O16      1.0000 0.53630  0.79590  0.01598  Biso   1.000  O
  O17      1.0000 0.48220  0.52560  0.90686  Biso   1.000  O
  O18      1.0000 0.51780  0.02560  0.09314  Biso   1.000  O
  O19      1.0000 0.35510  0.25210  0.68850  Biso   1.000  O
  O20      1.0000 0.64490  0.75210  0.31150  Biso   1.000  O
  H3       1.0000 0.44810  0.28450  0.68660  Biso   1.000  H
  H4       1.0000 0.55190  0.78450  0.31340  Biso   1.000  H
  O21      1.0000 0.17650  0.23590  0.85467  Biso   1.000  O
  O22      1.0000 0.82350  0.73590  0.14533  Biso   1.000  O
  H5       1.0000 0.07100  0.24560  0.85400  Biso   1.000  H
  H6       1.0000 0.92900  0.74560  0.14600  Biso   1.000  H
  O23      1.0000 0.30180  0.21460  0.41986  Biso   1.000  O
  O24      1.0000 0.69820  0.71460  0.58014  Biso   1.000  O
  H7       1.0000 0.39940  0.18940  0.43420  Biso   1.000  H
  H8       1.0000 0.60060  0.68940  0.56580  Biso   1.000  H
  H9       1.0000 0.28600  0.31000  0.41520  Biso   1.000  H
  H10      1.0000 0.71400  0.81000  0.58480  Biso   1.000  H
  O25      1.0000 0.22080  0.18090  0.13350  Biso   1.000  O
  O26      1.0000 0.77920  0.68090  0.86650  Biso   1.000  O
  H11      1.0000 0.11990  0.18570  0.11180  Biso   1.000  H
  H12      1.0000 0.88010  0.68570  0.88820  Biso   1.000  H
  H13      1.0000 0.26010  0.12940  0.19120  Biso   1.000  H
  H14      1.0000 0.73990  0.62940  0.80880  Biso   1.000  H
  C1       1.0000 0.30870  0.82190  0.58930  Biso   1.000  C
  C2       1.0000 0.69130  0.32190  0.41070  Biso   1.000  C
  C3       1.0000 0.19530  0.84520  0.67030  Biso   1.000  C
  C4       1.0000 0.80470  0.34520  0.32970  Biso   1.000  C
  H15      1.0000 0.11340  0.76290  0.66050  Biso   1.000  H
  H16      1.0000 0.88660  0.26290  0.33950  Biso   1.000  H
  C5       1.0000 0.29810  0.85140  0.79480  Biso   1.000  C
  C6       1.0000 0.70190  0.35140  0.20520  Biso   1.000  C
  H17      1.0000 0.37380  0.76390  0.80770  Biso   1.000  H
  H18      1.0000 0.62620  0.26390  0.19230  Biso   1.000  H
  C7       1.0000 0.18360  0.83650  0.87600  Biso   1.000  C
  C8       1.0000 0.81640  0.33650  0.12400  Biso   1.000  C
  C9       1.0000 0.09200  0.38810  0.61820  Biso   1.000  C
  C10      1.0000 0.90800  0.88810  0.38180  Biso   1.000  C
  C11      1.0000 0.25850  0.38130  0.70670  Biso   1.000  C
  C12      1.0000 0.74150  0.88130  0.29330  Biso   1.000  C
  H19      1.0000 0.32020  0.47370  0.69720  Biso   1.000  H
  H20      1.0000 0.67980  0.97370  0.30280  Biso   1.000  H
  C13      1.0000 0.24070  0.37990  0.82960  Biso   1.000  C
  C14      1.0000 0.75930  0.87990  0.17040  Biso   1.000  C
  H21      1.0000 0.16580  0.46210  0.83980  Biso   1.000  H
  H22      1.0000 0.83420  0.96210  0.16020  Biso   1.000  H
  C15      1.0000 0.40890  0.40230  0.91300  Biso   1.000  C
  C16      1.0000 0.59110  0.90230  0.08700  Biso   1.000  C
  O27      1.0000 0.39490  0.98830  0.81522  Biso   1.000  O
  O28      1.0000 0.60510  0.48830  0.18478  Biso   1.000  O
  H23      1.0000 0.35130  0.06130  0.76610  Biso   1.000  H
  H24      1.0000 0.64870  0.56130  0.23390  Biso   1.000  H
  O29      1.0000 0.78420  0.01160  0.61060  Biso   1.000  O
  O30      1.0000 0.21580  0.51160  0.38940  Biso   1.000  O
  H25      1.0000 0.75630  0.01450  0.68260  Biso   1.000  H
  H26      1.0000 0.24370  0.51450  0.31740  Biso   1.000  H
  H27      1.0000 0.74350  0.09340  0.56310  Biso   1.000  H
  H28      1.0000 0.25650  0.59340  0.43690  Biso   1.000  H
  O31      1.0000 0.64050  0.38250  0.69100  Biso   1.000  O
  O32      1.0000 0.35950  0.88250  0.30900  Biso   1.000  O
  H29      1.0000 0.69750  0.42790  0.65140  Biso   1.000  H
  H30      1.0000 0.30250  0.92790  0.34860  Biso   1.000  H
  H31      1.0000 0.70470  0.35990  0.75530  Biso   1.000  H
  H32      1.0000 0.29530  0.85990  0.24470  Biso   1.000  H
  O33      1.0000 0.72320  0.99430  0.82600  Biso   1.000  O
  O34      1.0000 0.27680  0.49430  0.17400  Biso   1.000  O
  H33      1.0000 0.75380  0.91040  0.83870  Biso   1.000  H
  H34      1.0000 0.24620  0.41040  0.16130  Biso   1.000  H
  H35      1.0000 0.61620  0.00140  0.80940  Biso   1.000  H
  H36      1.0000 0.38380  0.50140  0.19060  Biso   1.000  H
  O35      1.0000 0.87780  0.27020  0.87077  Biso   1.000  O
  O36      1.0000 0.12220  0.77020  0.12923  Biso   1.000  O
  H37      1.0000 0.86110  0.17580  0.88640  Biso   1.000  H
  H38      1.0000 0.13890  0.67580  0.11360  Biso   1.000  H
  H39      1.0000 0.87810  0.31830  0.93290  Biso   1.000  H
  H40      1.0000 0.12190  0.81830  0.06710  Biso   1.000  H
