data_image0
_cell_length_a       16.901
_cell_length_b       19.132
_cell_length_c       6.067
_cell_angle_alpha    90
_cell_angle_beta     90
_cell_angle_gamma    119.63

_symmetry_space_group_name_H-M    "P 1"
_symmetry_int_tables_number       1

loop_
  _symmetry_equiv_pos_as_xyz
  'x, y, z'

loop_
  _atom_site_label
  _atom_site_occupancy
  _atom_site_fract_x
  _atom_site_fract_y
  _atom_site_fract_z
  _atom_site_thermal_displace_type
  _atom_site_B_iso_or_equiv
  _atom_site_type_symbol
  Cu1      1.0000 0.29170  0.39410  0.52950  Biso   1.000  Cu
  Cu2      1.0000 0.79170  0.39410  0.02950  Biso   1.000  Cu
  Cu3      1.0000 0.70830  0.10590  0.52950  Biso   1.000  Cu
  Cu4      1.0000 0.20830  0.10590  0.02950  Biso   1.000  Cu
  Cu5      1.0000 0.70830  0.60590  0.47050  Biso   1.000  Cu
  Cu6      1.0000 0.20830  0.60590  0.97050  Biso   1.000  Cu
  Cu7      1.0000 0.29170  0.89410  0.47050  Biso   1.000  Cu
  Cu8      1.0000 0.79170  0.89410  0.97050  Biso   1.000  Cu
  O1       1.0000 0.28380  0.31610  0.74180  Biso   1.000  O
  O2       1.0000 0.78380  0.31610  0.24180  Biso   1.000  O
  O3       1.0000 0.71620  0.18390  0.74180  Biso   1.000  O
  O4       1.0000 0.21620  0.18390  0.24180  Biso   1.000  O
  O5       1.0000 0.71620  0.68390  0.25820  Biso   1.000  O
  O6       1.0000 0.21620  0.68390  0.75820  Biso   1.000  O
  O7       1.0000 0.28380  0.81610  0.25820  Biso   1.000  O
  O8       1.0000 0.78380  0.81610  0.75820  Biso   1.000  O
  O9       1.0000 0.31880  0.21940  0.77860  Biso   1.000  O
  O10      1.0000 0.81880  0.21940  0.27860  Biso   1.000  O
  O11      1.0000 0.68120  0.28060  0.77860  Biso   1.000  O
  O12      1.0000 0.18120  0.28060  0.27860  Biso   1.000  O
  O13      1.0000 0.68120  0.78060  0.22140  Biso   1.000  O
  O14      1.0000 0.18120  0.78060  0.72140  Biso   1.000  O
  O15      1.0000 0.31880  0.71940  0.22140  Biso   1.000  O
  O16      1.0000 0.81880  0.71940  0.72140  Biso   1.000  O
  O17      1.0000 0.31310  0.46560  0.28250  Biso   1.000  O
  O18      1.0000 0.81310  0.46560  0.78250  Biso   1.000  O
  O19      1.0000 0.68690  0.03440  0.28250  Biso   1.000  O
  O20      1.0000 0.18690  0.03440  0.78250  Biso   1.000  O
  O21      1.0000 0.68690  0.53440  0.71750  Biso   1.000  O
  O22      1.0000 0.18690  0.53440  0.21750  Biso   1.000  O
  O23      1.0000 0.31310  0.96560  0.71750  Biso   1.000  O
  O24      1.0000 0.81310  0.96560  0.21750  Biso   1.000  O
  O25      1.0000 0.37340  0.49130  0.94740  Biso   1.000  O
  O26      1.0000 0.87340  0.49130  0.44740  Biso   1.000  O
  O27      1.0000 0.62660  0.00870  0.94740  Biso   1.000  O
  O28      1.0000 0.12660  0.00870  0.44740  Biso   1.000  O
  O29      1.0000 0.62660  0.50870  0.05260  Biso   1.000  O
  O30      1.0000 0.12660  0.50870  0.55260  Biso   1.000  O
  O31      1.0000 0.37340  0.99130  0.05260  Biso   1.000  O
  O32      1.0000 0.87340  0.99130  0.55260  Biso   1.000  O
  N1       1.0000 0.40410  0.39390  0.42100  Biso   1.000  N
  N2       1.0000 0.90410  0.39390  0.92100  Biso   1.000  N
  N3       1.0000 0.59590  0.10610  0.42100  Biso   1.000  N
  N4       1.0000 0.09590  0.10610  0.92100  Biso   1.000  N
  N5       1.0000 0.59590  0.60610  0.57900  Biso   1.000  N
  N6       1.0000 0.09590  0.60610  0.07900  Biso   1.000  N
  N7       1.0000 0.40410  0.89390  0.57900  Biso   1.000  N
  N8       1.0000 0.90410  0.89390  0.07900  Biso   1.000  N
  C1       1.0000 0.39080  0.31400  0.48800  Biso   1.000  C
  C2       1.0000 0.89080  0.31400  0.98800  Biso   1.000  C
  C3       1.0000 0.60920  0.18600  0.48800  Biso   1.000  C
  C4       1.0000 0.10920  0.18600  0.98800  Biso   1.000  C
  C5       1.0000 0.60920  0.68600  0.51200  Biso   1.000  C
  C6       1.0000 0.10920  0.68600  0.01200  Biso   1.000  C
  C7       1.0000 0.39080  0.81400  0.51200  Biso   1.000  C
  C8       1.0000 0.89080  0.81400  0.01200  Biso   1.000  C
  C9       1.0000 0.32760  0.28080  0.68400  Biso   1.000  C
  C10      1.0000 0.82760  0.28080  0.18400  Biso   1.000  C
  C11      1.0000 0.67240  0.21920  0.68400  Biso   1.000  C
  C12      1.0000 0.17240  0.21920  0.18400  Biso   1.000  C
  C13      1.0000 0.67240  0.71920  0.31600  Biso   1.000  C
  C14      1.0000 0.17240  0.71920  0.81600  Biso   1.000  C
  C15      1.0000 0.32760  0.78080  0.31600  Biso   1.000  C
  C16      1.0000 0.82760  0.78080  0.81600  Biso   1.000  C
  C17      1.0000 0.40080  0.40420  0.17800  Biso   1.000  C
  C18      1.0000 0.90080  0.40420  0.67800  Biso   1.000  C
  C19      1.0000 0.59920  0.09580  0.17800  Biso   1.000  C
  C20      1.0000 0.09920  0.09580  0.67800  Biso   1.000  C
  C21      1.0000 0.59920  0.59580  0.82200  Biso   1.000  C
  C22      1.0000 0.09920  0.59580  0.32200  Biso   1.000  C
  C23      1.0000 0.40080  0.90420  0.82200  Biso   1.000  C
  C24      1.0000 0.90080  0.90420  0.32200  Biso   1.000  C
  C25      1.0000 0.36010  0.45850  0.12800  Biso   1.000  C
  C26      1.0000 0.86010  0.45850  0.62800  Biso   1.000  C
  C27      1.0000 0.63990  0.04150  0.12800  Biso   1.000  C
  C28      1.0000 0.13990  0.04150  0.62800  Biso   1.000  C
  C29      1.0000 0.63990  0.54150  0.87200  Biso   1.000  C
  C30      1.0000 0.13990  0.54150  0.37200  Biso   1.000  C
  C31      1.0000 0.36010  0.95850  0.87200  Biso   1.000  C
  C32      1.0000 0.86010  0.95850  0.37200  Biso   1.000  C
  C33      1.0000 0.49120  0.45680  0.51900  Biso   1.000  C
  C34      1.0000 0.99120  0.45680  0.01900  Biso   1.000  C
  C35      1.0000 0.50880  0.04320  0.51900  Biso   1.000  C
  C36      1.0000 0.00880  0.04320  0.01900  Biso   1.000  C
  C37      1.0000 0.50880  0.54320  0.48100  Biso   1.000  C
  C38      1.0000 0.00880  0.54320  0.98100  Biso   1.000  C
  C39      1.0000 0.49120  0.95680  0.48100  Biso   1.000  C
  C40      1.0000 0.99120  0.95680  0.98100  Biso   1.000  C
  O33      1.0000 0.18950  0.40280  0.64000  Biso   1.000  O
  O34      1.0000 0.68950  0.40280  0.14000  Biso   1.000  O
  O35      1.0000 0.81050  0.09720  0.64000  Biso   1.000  O
  O36      1.0000 0.31050  0.09720  0.14000  Biso   1.000  O
  O37      1.0000 0.81050  0.59720  0.36000  Biso   1.000  O
  O38      1.0000 0.31050  0.59720  0.86000  Biso   1.000  O
  O39      1.0000 0.18950  0.90280  0.36000  Biso   1.000  O
  O40      1.0000 0.68950  0.90280  0.86000  Biso   1.000  O
  O41      1.0000 0.12740  0.37500  0.05500  Biso   1.000  O
  O42      1.0000 0.62740  0.37500  0.55500  Biso   1.000  O
  O43      1.0000 0.87260  0.12500  0.05500  Biso   1.000  O
  O44      1.0000 0.37260  0.12500  0.55500  Biso   1.000  O
  O45      1.0000 0.87260  0.62500  0.94500  Biso   1.000  O
  O46      1.0000 0.37260  0.62500  0.44500  Biso   1.000  O
  O47      1.0000 0.12740  0.87500  0.94500  Biso   1.000  O
  O48      1.0000 0.62740  0.87500  0.44500  Biso   1.000  O
  H1       1.0000 0.43400  0.31300  0.52000  Biso   1.000  H
  H2       1.0000 0.93400  0.31300  0.02000  Biso   1.000  H
  H3       1.0000 0.56600  0.18700  0.52000  Biso   1.000  H
  H4       1.0000 0.06600  0.18700  0.02000  Biso   1.000  H
  H5       1.0000 0.56600  0.68700  0.48000  Biso   1.000  H
  H6       1.0000 0.06600  0.68700  0.98000  Biso   1.000  H
  H7       1.0000 0.43400  0.81300  0.48000  Biso   1.000  H
  H8       1.0000 0.93400  0.81300  0.98000  Biso   1.000  H
  H9       1.0000 0.36200  0.27700  0.39000  Biso   1.000  H
  H10      1.0000 0.86200  0.27700  0.89000  Biso   1.000  H
  H11      1.0000 0.63800  0.22300  0.39000  Biso   1.000  H
  H12      1.0000 0.13800  0.22300  0.89000  Biso   1.000  H
  H13      1.0000 0.63800  0.72300  0.61000  Biso   1.000  H
  H14      1.0000 0.13800  0.72300  0.11000  Biso   1.000  H
  H15      1.0000 0.36200  0.77700  0.61000  Biso   1.000  H
  H16      1.0000 0.86200  0.77700  0.11000  Biso   1.000  H
  H17      1.0000 0.45200  0.42700  0.12000  Biso   1.000  H
  H18      1.0000 0.95200  0.42700  0.62000  Biso   1.000  H
  H19      1.0000 0.54800  0.07300  0.12000  Biso   1.000  H
  H20      1.0000 0.04800  0.07300  0.62000  Biso   1.000  H
  H21      1.0000 0.54800  0.57300  0.88000  Biso   1.000  H
  H22      1.0000 0.04800  0.57300  0.38000  Biso   1.000  H
  H23      1.0000 0.45200  0.92700  0.88000  Biso   1.000  H
  H24      1.0000 0.95200  0.92700  0.38000  Biso   1.000  H
  H25      1.0000 0.53300  0.45000  0.45000  Biso   1.000  H
  H26      1.0000 0.03300  0.45000  0.95000  Biso   1.000  H
  H27      1.0000 0.46700  0.05000  0.45000  Biso   1.000  H
  H28      1.0000 0.96700  0.05000  0.95000  Biso   1.000  H
  H29      1.0000 0.46700  0.55000  0.55000  Biso   1.000  H
  H30      1.0000 0.96700  0.55000  0.05000  Biso   1.000  H
  H31      1.0000 0.53300  0.95000  0.55000  Biso   1.000  H
  H32      1.0000 0.03300  0.95000  0.05000  Biso   1.000  H
  H33      1.0000 0.18200  0.43700  0.60000  Biso   1.000  H
  H34      1.0000 0.68200  0.43700  0.10000  Biso   1.000  H
  H35      1.0000 0.81800  0.06300  0.60000  Biso   1.000  H
  H36      1.0000 0.31800  0.06300  0.10000  Biso   1.000  H
  H37      1.0000 0.81800  0.56300  0.40000  Biso   1.000  H
  H38      1.0000 0.31800  0.56300  0.90000  Biso   1.000  H
  H39      1.0000 0.18200  0.93700  0.40000  Biso   1.000  H
  H40      1.0000 0.68200  0.93700  0.90000  Biso   1.000  H
  H41      1.0000 0.17800  0.39900  0.77000  Biso   1.000  H
  H42      1.0000 0.67800  0.39900  0.27000  Biso   1.000  H
  H43      1.0000 0.82200  0.10100  0.77000  Biso   1.000  H
  H44      1.0000 0.32200  0.10100  0.27000  Biso   1.000  H
  H45      1.0000 0.82200  0.60100  0.23000  Biso   1.000  H
  H46      1.0000 0.32200  0.60100  0.73000  Biso   1.000  H
  H47      1.0000 0.17800  0.89900  0.23000  Biso   1.000  H
  H48      1.0000 0.67800  0.89900  0.73000  Biso   1.000  H
  H49      1.0000 0.15700  0.42000  0.11000  Biso   1.000  H
  H50      1.0000 0.65700  0.42000  0.61000  Biso   1.000  H
  H51      1.0000 0.84300  0.08000  0.11000  Biso   1.000  H
  H52      1.0000 0.34300  0.08000  0.61000  Biso   1.000  H
  H53      1.0000 0.84300  0.58000  0.89000  Biso   1.000  H
  H54      1.0000 0.34300  0.58000  0.39000  Biso   1.000  H
  H55      1.0000 0.15700  0.92000  0.89000  Biso   1.000  H
  H56      1.0000 0.65700  0.92000  0.39000  Biso   1.000  H
  H57      1.0000 0.13600  0.34000  0.14000  Biso   1.000  H
  H58      1.0000 0.63600  0.34000  0.64000  Biso   1.000  H
  H59      1.0000 0.86400  0.16000  0.14000  Biso   1.000  H
  H60      1.0000 0.36400  0.16000  0.64000  Biso   1.000  H
  H61      1.0000 0.86400  0.66000  0.86000  Biso   1.000  H
  H62      1.0000 0.36400  0.66000  0.36000  Biso   1.000  H
  H63      1.0000 0.13600  0.84000  0.86000  Biso   1.000  H
  H64      1.0000 0.63600  0.84000  0.36000  Biso   1.000  H
