data_image0
_cell_length_a       7.516
_cell_length_b       9.665
_cell_length_c       14.645
_cell_angle_alpha    81.01
_cell_angle_beta     80.51
_cell_angle_gamma    80.52

_symmetry_space_group_name_H-M    "P 1"
_symmetry_int_tables_number       1

loop_
  _symmetry_equiv_pos_as_xyz
  'x, y, z'

loop_
  _atom_site_label
  _atom_site_occupancy
  _atom_site_fract_x
  _atom_site_fract_y
  _atom_site_fract_z
  _atom_site_thermal_displace_type
  _atom_site_B_iso_or_equiv
  _atom_site_type_symbol
  Cu1      1.0000 0.50000  0.50000  0.50000  Biso   1.000  Cu
  Cu2      1.0000 0.00000  0.00000  0.00000  Biso   1.000  Cu
  N1       1.0000 0.74820  0.37720  0.48450  Biso   1.000  N
  N2       1.0000 0.25180  0.62280  0.51550  Biso   1.000  N
  H1       1.0000 0.81170  0.41150  0.43050  Biso   1.000  H
  H2       1.0000 0.18830  0.58850  0.56950  Biso   1.000  H
  H3       1.0000 0.80760  0.38840  0.53080  Biso   1.000  H
  H4       1.0000 0.19240  0.61160  0.46920  Biso   1.000  H
  N3       1.0000 0.69180  0.68770  0.48930  Biso   1.000  N
  N4       1.0000 0.30820  0.31230  0.51070  Biso   1.000  N
  N5       1.0000 0.74650  0.12640  0.01280  Biso   1.000  N
  N6       1.0000 0.25350  0.87360  0.98720  Biso   1.000  N
  H5       1.0000 0.69490  0.12350  0.96200  Biso   1.000  H
  H6       1.0000 0.30510  0.87650  0.03800  Biso   1.000  H
  H7       1.0000 0.67600  0.08690  0.06250  Biso   1.000  H
  H8       1.0000 0.32400  0.91310  0.93750  Biso   1.000  H
  N7       1.0000 0.81120  0.80480  0.04310  Biso   1.000  N
  N8       1.0000 0.18880  0.19520  0.95690  Biso   1.000  N
  N9       1.0000 0.48560  0.13330  0.78080  Biso   1.000  N
  N10      1.0000 0.51440  0.86670  0.21920  Biso   1.000  N
  N11      1.0000 0.13930  0.43610  0.31370  Biso   1.000  N
  N12      1.0000 0.86070  0.56390  0.68630  Biso   1.000  N
  O1       1.0000 0.48050  0.46690  0.63930  Biso   1.000  O
  O2       1.0000 0.51950  0.53310  0.36070  Biso   1.000  O
  O3       1.0000 0.00820  0.00810  0.13170  Biso   1.000  O
  O4       1.0000 0.99180  0.99190  0.86830  Biso   1.000  O
  O5       1.0000 0.08970  0.53790  0.35890  Biso   1.000  O
  O6       1.0000 0.91030  0.46210  0.64110  Biso   1.000  O
  O7       1.0000 0.30050  0.40530  0.28320  Biso   1.000  O
  O8       1.0000 0.69950  0.59470  0.71680  Biso   1.000  O
  O9       1.0000 0.02680  0.36880  0.29950  Biso   1.000  O
  O10      1.0000 0.97320  0.63120  0.70050  Biso   1.000  O
  O11      1.0000 0.60600  0.17110  0.81220  Biso   1.000  O
  O12      1.0000 0.39400  0.82890  0.18780  Biso   1.000  O
  O13      1.0000 0.39740  0.21810  0.72570  Biso   1.000  O
  O14      1.0000 0.60260  0.78190  0.27430  Biso   1.000  O
  O15      1.0000 0.44540  0.01120  0.80140  Biso   1.000  O
  O16      1.0000 0.55460  0.98880  0.19860  Biso   1.000  O
  O17      1.0000 0.03790  0.20710  0.74120  Biso   1.000  O
  O18      1.0000 0.96210  0.79290  0.25880  Biso   1.000  O
  O19      1.0000 0.21790  0.16290  0.18380  Biso   1.000  O
  O20      1.0000 0.78210  0.83710  0.81620  Biso   1.000  O
  C1       1.0000 0.75400  0.22950  0.48430  Biso   1.000  C
  C2       1.0000 0.24600  0.77050  0.51570  Biso   1.000  C
  C3       1.0000 0.72730  0.18180  0.40340  Biso   1.000  C
  C4       1.0000 0.27270  0.81820  0.59660  Biso   1.000  C
  H9       1.0000 0.71670  0.24520  0.34920  Biso   1.000  H
  H10      1.0000 0.28330  0.75480  0.65080  Biso   1.000  H
  C5       1.0000 0.71670  0.04260  0.40350  Biso   1.000  C
  C6       1.0000 0.28330  0.95740  0.59650  Biso   1.000  C
  H11      1.0000 0.69620  0.01120  0.34970  Biso   1.000  H
  H12      1.0000 0.30380  0.98880  0.65030  Biso   1.000  H
  C7       1.0000 0.73660  0.94690  0.48440  Biso   1.000  C
  C8       1.0000 0.26340  0.05310  0.51560  Biso   1.000  C
  C9       1.0000 0.76690  0.99360  0.56450  Biso   1.000  C
  C10      1.0000 0.23310  0.00640  0.43550  Biso   1.000  C
  H13      1.0000 0.78150  0.92990  0.61820  Biso   1.000  H
  H14      1.0000 0.21850  0.07010  0.38180  Biso   1.000  H
  C11      1.0000 0.77530  0.13440  0.56420  Biso   1.000  C
  C12      1.0000 0.22470  0.86560  0.43580  Biso   1.000  C
  H15      1.0000 0.79540  0.16610  0.61790  Biso   1.000  H
  H16      1.0000 0.20460  0.83390  0.38210  Biso   1.000  H
  C13      1.0000 0.71550  0.80090  0.48660  Biso   1.000  C
  C14      1.0000 0.28450  0.19910  0.51340  Biso   1.000  C
  C15      1.0000 0.74120  0.27190  0.02300  Biso   1.000  C
  C16      1.0000 0.25880  0.72810  0.97700  Biso   1.000  C
  C17      1.0000 0.74640  0.31140  0.10870  Biso   1.000  C
  C18      1.0000 0.25360  0.68860  0.89130  Biso   1.000  C
  H17      1.0000 0.74270  0.24430  0.16160  Biso   1.000  H
  H18      1.0000 0.25730  0.75570  0.83840  Biso   1.000  H
  C19      1.0000 0.75690  0.44960  0.11640  Biso   1.000  C
  C20      1.0000 0.24310  0.55040  0.88360  Biso   1.000  C
  H19      1.0000 0.76120  0.47600  0.17430  Biso   1.000  H
  H20      1.0000 0.23880  0.52400  0.82570  Biso   1.000  H
  C21      1.0000 0.76120  0.54950  0.03720  Biso   1.000  C
  C22      1.0000 0.23880  0.45050  0.96280  Biso   1.000  C
  C23      1.0000 0.75020  0.50990  0.95190  Biso   1.000  C
  C24      1.0000 0.24980  0.49010  0.04810  Biso   1.000  C
  H21      1.0000 0.74880  0.57730  0.89910  Biso   1.000  H
  H22      1.0000 0.25120  0.42270  0.10090  Biso   1.000  H
  C25      1.0000 0.74150  0.37260  0.94480  Biso   1.000  C
  C26      1.0000 0.25850  0.62740  0.05520  Biso   1.000  C
  H23      1.0000 0.73560  0.34640  0.88710  Biso   1.000  H
  H24      1.0000 0.26440  0.65360  0.11290  Biso   1.000  H
  C27      1.0000 0.78480  0.69200  0.04210  Biso   1.000  C
  C28      1.0000 0.21520  0.30800  0.95790  Biso   1.000  C
