data_image0
_cell_length_a       8.15
_cell_length_b       8.18
_cell_length_c       6.35
_cell_angle_alpha    90
_cell_angle_beta     101.08
_cell_angle_gamma    90

_symmetry_space_group_name_H-M    "P 1"
_symmetry_int_tables_number       1

loop_
  _symmetry_equiv_pos_as_xyz
  'x, y, z'

loop_
  _atom_site_label
  _atom_site_occupancy
  _atom_site_fract_x
  _atom_site_fract_y
  _atom_site_fract_z
  _atom_site_thermal_displace_type
  _atom_site_B_iso_or_equiv
  _atom_site_type_symbol
  Cu1      1.0000 0.00000  0.00000  0.00000  Biso   1.000  Cu
  Cu2      1.0000 0.50000  0.50000  0.00000  Biso   1.000  Cu
  C1       1.0000 0.26130  0.76950  0.97560  Biso   1.000  C
  C2       1.0000 0.23870  0.26950  0.02440  Biso   1.000  C
  C3       1.0000 0.73870  0.23050  0.02440  Biso   1.000  C
  C4       1.0000 0.76130  0.73050  0.97560  Biso   1.000  C
  H1       1.0000 0.20370  0.69330  0.08260  Biso   1.000  H
  H2       1.0000 0.29630  0.19330  0.91740  Biso   1.000  H
  H3       1.0000 0.79630  0.30670  0.91740  Biso   1.000  H
  H4       1.0000 0.70370  0.80670  0.08260  Biso   1.000  H
  O1       1.0000 0.20240  0.90790  0.92060  Biso   1.000  O
  O2       1.0000 0.29760  0.40790  0.07940  Biso   1.000  O
  O3       1.0000 0.79760  0.09210  0.07940  Biso   1.000  O
  O4       1.0000 0.70240  0.59210  0.92060  Biso   1.000  O
  O5       1.0000 0.38550  0.71190  0.91040  Biso   1.000  O
  O6       1.0000 0.11450  0.21190  0.08960  Biso   1.000  O
  O7       1.0000 0.61450  0.28810  0.08960  Biso   1.000  O
  O8       1.0000 0.88550  0.78810  0.91040  Biso   1.000  O
  O9       1.0000 0.07130  0.90060  0.36190  Biso   1.000  O
  O10      1.0000 0.42870  0.40060  0.63810  Biso   1.000  O
  O11      1.0000 0.92870  0.09940  0.63810  Biso   1.000  O
  O12      1.0000 0.57130  0.59940  0.36190  Biso   1.000  O
  H5       1.0000 0.08800  0.32570  0.33940  Biso   1.000  H
  H6       1.0000 0.41200  0.82570  0.66060  Biso   1.000  H
  H7       1.0000 0.91200  0.67430  0.66060  Biso   1.000  H
  H8       1.0000 0.58800  0.17430  0.33940  Biso   1.000  H
  O13      1.0000 0.08900  0.35960  0.48490  Biso   1.000  O
  O14      1.0000 0.41100  0.85960  0.51510  Biso   1.000  O
  O15      1.0000 0.91100  0.64040  0.51510  Biso   1.000  O
  O16      1.0000 0.58900  0.14040  0.48490  Biso   1.000  O
