data_image0
_cell_length_a       8.54
_cell_length_b       7.15
_cell_length_c       9.5
_cell_angle_alpha    90
_cell_angle_beta     96.8
_cell_angle_gamma    90

_symmetry_space_group_name_H-M    "P 1"
_symmetry_int_tables_number       1

loop_
  _symmetry_equiv_pos_as_xyz
  'x, y, z'

loop_
  _atom_site_label
  _atom_site_occupancy
  _atom_site_fract_x
  _atom_site_fract_y
  _atom_site_fract_z
  _atom_site_thermal_displace_type
  _atom_site_B_iso_or_equiv
  _atom_site_type_symbol
  Cu1      1.0000 0.50000  0.00000  0.50000  Biso   1.000  Cu
  Cu2      1.0000 0.50000  0.50000  0.00000  Biso   1.000  Cu
  Cu3      1.0000 0.00000  0.50000  0.50000  Biso   1.000  Cu
  Cu4      1.0000 0.00000  0.00000  0.00000  Biso   1.000  Cu
  C1       1.0000 0.53300  0.71700  0.30200  Biso   1.000  C
  C2       1.0000 0.46700  0.21700  0.19800  Biso   1.000  C
  C3       1.0000 0.46700  0.28300  0.69800  Biso   1.000  C
  C4       1.0000 0.53300  0.78300  0.80200  Biso   1.000  C
  C5       1.0000 0.80800  0.10000  0.42200  Biso   1.000  C
  C6       1.0000 0.19200  0.60000  0.07800  Biso   1.000  C
  C7       1.0000 0.19200  0.90000  0.57800  Biso   1.000  C
  C8       1.0000 0.80800  0.40000  0.92200  Biso   1.000  C
  O1       1.0000 0.58700  0.76700  0.41700  Biso   1.000  O
  O2       1.0000 0.41300  0.26700  0.08300  Biso   1.000  O
  O3       1.0000 0.41300  0.23300  0.58300  Biso   1.000  O
  O4       1.0000 0.58700  0.73300  0.91700  Biso   1.000  O
  O5       1.0000 0.59400  0.59600  0.22300  Biso   1.000  O
  O6       1.0000 0.40600  0.09600  0.27700  Biso   1.000  O
  O7       1.0000 0.40600  0.40400  0.77700  Biso   1.000  O
  O8       1.0000 0.59400  0.90400  0.72300  Biso   1.000  O
  O9       1.0000 0.70400  0.14400  0.49300  Biso   1.000  O
  O10      1.0000 0.29600  0.64400  0.00700  Biso   1.000  O
  O11      1.0000 0.29600  0.85600  0.50700  Biso   1.000  O
  O12      1.0000 0.70400  0.35600  0.99300  Biso   1.000  O
  O13      1.0000 0.92500  0.20500  0.40600  Biso   1.000  O
  O14      1.0000 0.07500  0.70500  0.09400  Biso   1.000  O
  O15      1.0000 0.07500  0.79500  0.59400  Biso   1.000  O
  O16      1.0000 0.92500  0.29500  0.90600  Biso   1.000  O
  O17      1.0000 0.91100  0.60300  0.31600  Biso   1.000  O
  O18      1.0000 0.08900  0.10300  0.18400  Biso   1.000  O
  O19      1.0000 0.08900  0.39700  0.68400  Biso   1.000  O
  O20      1.0000 0.91100  0.89700  0.81600  Biso   1.000  O
  O21      1.0000 0.21100  0.48400  0.42500  Biso   1.000  O
  O22      1.0000 0.78900  0.98400  0.07500  Biso   1.000  O
  O23      1.0000 0.78900  0.51600  0.57500  Biso   1.000  O
  O24      1.0000 0.21100  0.01600  0.92500  Biso   1.000  O
