data_image0
_cell_length_a       14.1791
_cell_length_b       8.9059
_cell_length_c       6.1584
_cell_angle_alpha    90
_cell_angle_beta     90
_cell_angle_gamma    90

_symmetry_space_group_name_H-M    "P 1"
_symmetry_int_tables_number       1

loop_
  _symmetry_equiv_pos_as_xyz
  'x, y, z'

loop_
  _atom_site_label
  _atom_site_occupancy
  _atom_site_fract_x
  _atom_site_fract_y
  _atom_site_fract_z
  _atom_site_thermal_displace_type
  _atom_site_B_iso_or_equiv
  _atom_site_type_symbol
  Cu1      1.0000 0.11440  0.05800  0.00300  Biso   1.000  Cu
  Cu2      1.0000 0.38560  0.94200  0.50300  Biso   1.000  Cu
  Cu3      1.0000 0.61440  0.44200  0.99700  Biso   1.000  Cu
  Cu4      1.0000 0.88560  0.55800  0.49700  Biso   1.000  Cu
  Cu5      1.0000 0.88560  0.94200  0.99700  Biso   1.000  Cu
  Cu6      1.0000 0.61440  0.05800  0.49700  Biso   1.000  Cu
  Cu7      1.0000 0.38560  0.55800  0.00300  Biso   1.000  Cu
  Cu8      1.0000 0.11440  0.44200  0.50300  Biso   1.000  Cu
  O1       1.0000 0.08780  0.24410  0.15700  Biso   1.000  O
  O2       1.0000 0.41220  0.75590  0.65700  Biso   1.000  O
  O3       1.0000 0.58780  0.25590  0.84300  Biso   1.000  O
  O4       1.0000 0.91220  0.74410  0.34300  Biso   1.000  O
  O5       1.0000 0.91220  0.75590  0.84300  Biso   1.000  O
  O6       1.0000 0.58780  0.24410  0.34300  Biso   1.000  O
  O7       1.0000 0.41220  0.74410  0.15700  Biso   1.000  O
  O8       1.0000 0.08780  0.25590  0.65700  Biso   1.000  O
  O9       1.0000 0.22320  0.02600  0.19470  Biso   1.000  O
  O10      1.0000 0.27680  0.97400  0.69470  Biso   1.000  O
  O11      1.0000 0.72320  0.47400  0.80530  Biso   1.000  O
  O12      1.0000 0.77680  0.52600  0.30530  Biso   1.000  O
  O13      1.0000 0.77680  0.97400  0.80530  Biso   1.000  O
  O14      1.0000 0.72320  0.02600  0.30530  Biso   1.000  O
  O15      1.0000 0.27680  0.52600  0.19470  Biso   1.000  O
  O16      1.0000 0.22320  0.47400  0.69470  Biso   1.000  O
  O17      1.0000 0.00510  0.42160  0.30820  Biso   1.000  O
  O18      1.0000 0.49490  0.57840  0.80820  Biso   1.000  O
  O19      1.0000 0.50510  0.07840  0.69180  Biso   1.000  O
  O20      1.0000 0.99490  0.92160  0.19180  Biso   1.000  O
  O21      1.0000 0.99490  0.57840  0.69180  Biso   1.000  O
  O22      1.0000 0.50510  0.42160  0.19180  Biso   1.000  O
  O23      1.0000 0.49490  0.92160  0.30820  Biso   1.000  O
  O24      1.0000 0.00510  0.07840  0.80820  Biso   1.000  O
  O25      1.0000 0.34930  0.12570  0.35756  Biso   1.000  O
  O26      1.0000 0.15070  0.87430  0.85756  Biso   1.000  O
  O27      1.0000 0.84930  0.37430  0.64244  Biso   1.000  O
  O28      1.0000 0.65070  0.62570  0.14244  Biso   1.000  O
  O29      1.0000 0.65070  0.87430  0.64244  Biso   1.000  O
  O30      1.0000 0.84930  0.12570  0.14244  Biso   1.000  O
  O31      1.0000 0.15070  0.62570  0.35756  Biso   1.000  O
  O32      1.0000 0.34930  0.37430  0.85756  Biso   1.000  O
  C1       1.0000 0.01720  0.32710  0.15800  Biso   1.000  C
  C2       1.0000 0.48280  0.67290  0.65800  Biso   1.000  C
  C3       1.0000 0.51720  0.17290  0.84200  Biso   1.000  C
  C4       1.0000 0.98280  0.82710  0.34200  Biso   1.000  C
  C5       1.0000 0.98280  0.67290  0.84200  Biso   1.000  C
  C6       1.0000 0.51720  0.32710  0.34200  Biso   1.000  C
  C7       1.0000 0.48280  0.82710  0.15800  Biso   1.000  C
  C8       1.0000 0.01720  0.17290  0.65800  Biso   1.000  C
  C9       1.0000 0.27700  0.13710  0.23720  Biso   1.000  C
  C10      1.0000 0.22300  0.86290  0.73720  Biso   1.000  C
  C11      1.0000 0.77700  0.36290  0.76280  Biso   1.000  C
  C12      1.0000 0.72300  0.63710  0.26280  Biso   1.000  C
  C13      1.0000 0.72300  0.86290  0.76280  Biso   1.000  C
  C14      1.0000 0.77700  0.13710  0.26280  Biso   1.000  C
  C15      1.0000 0.22300  0.63710  0.23720  Biso   1.000  C
  C16      1.0000 0.27700  0.36290  0.73720  Biso   1.000  C
  H1       1.0000 0.96580  0.32000  0.03030  Biso   1.000  H
  H2       1.0000 0.53420  0.68000  0.53030  Biso   1.000  H
  H3       1.0000 0.46580  0.18000  0.96970  Biso   1.000  H
  H4       1.0000 0.03420  0.82000  0.46970  Biso   1.000  H
  H5       1.0000 0.03420  0.68000  0.96970  Biso   1.000  H
  H6       1.0000 0.46580  0.32000  0.46970  Biso   1.000  H
  H7       1.0000 0.53420  0.82000  0.03030  Biso   1.000  H
  H8       1.0000 0.96580  0.18000  0.53030  Biso   1.000  H
  H9       1.0000 0.25900  0.24300  0.16680  Biso   1.000  H
  H10      1.0000 0.24100  0.75700  0.66680  Biso   1.000  H
  H11      1.0000 0.75900  0.25700  0.83320  Biso   1.000  H
  H12      1.0000 0.74100  0.74300  0.33320  Biso   1.000  H
  H13      1.0000 0.74100  0.75700  0.83320  Biso   1.000  H
  H14      1.0000 0.75900  0.24300  0.33320  Biso   1.000  H
  H15      1.0000 0.24100  0.74300  0.16680  Biso   1.000  H
  H16      1.0000 0.25900  0.25700  0.66680  Biso   1.000  H
