data_image0
_cell_length_a       6.504
_cell_length_b       8.813
_cell_length_c       11.707
_cell_angle_alpha    79.384
_cell_angle_beta     84.944
_cell_angle_gamma    69.022

_symmetry_space_group_name_H-M    "P 1"
_symmetry_int_tables_number       1

loop_
  _symmetry_equiv_pos_as_xyz
  'x, y, z'

loop_
  _atom_site_label
  _atom_site_occupancy
  _atom_site_fract_x
  _atom_site_fract_y
  _atom_site_fract_z
  _atom_site_thermal_displace_type
  _atom_site_B_iso_or_equiv
  _atom_site_type_symbol
  Cu1      1.0000 0.13631  0.36396  0.47261  Biso   1.000  Cu
  Cu2      1.0000 0.86369  0.63604  0.52739  Biso   1.000  Cu
  O1       1.0000 0.27180  0.50600  0.37060  Biso   1.000  O
  O2       1.0000 0.72820  0.49400  0.62940  Biso   1.000  O
  O3       1.0000 0.93490  0.39260  0.34870  Biso   1.000  O
  O4       1.0000 0.06510  0.60740  0.65130  Biso   1.000  O
  O5       1.0000 0.37450  0.13780  0.42110  Biso   1.000  O
  O6       1.0000 0.62550  0.86220  0.57890  Biso   1.000  O
  O7       1.0000 0.96290  0.25560  0.58000  Biso   1.000  O
  O8       1.0000 0.03710  0.74440  0.42000  Biso   1.000  O
  O9       1.0000 0.30050  0.36750  0.60490  Biso   1.000  O
  O10      1.0000 0.69950  0.63250  0.39510  Biso   1.000  O
  C1       1.0000 0.19690  0.66020  0.36310  Biso   1.000  C
  C2       1.0000 0.80310  0.33980  0.63690  Biso   1.000  C
  C3       1.0000 0.76420  0.51810  0.33560  Biso   1.000  C
  C4       1.0000 0.23580  0.48190  0.66440  Biso   1.000  C
  C5       1.0000 0.60770  0.10060  0.43320  Biso   1.000  C
  C6       1.0000 0.39230  0.89940  0.56680  Biso   1.000  C
  C7       1.0000 0.32320  0.98900  0.44630  Biso   1.000  C
  C8       1.0000 0.67680  0.01100  0.55370  Biso   1.000  C
  H1       1.0000 0.26900  0.71960  0.30840  Biso   1.000  H
  H2       1.0000 0.73100  0.28040  0.69160  Biso   1.000  H
  H3       1.0000 0.67290  0.52800  0.27360  Biso   1.000  H
  H4       1.0000 0.32710  0.47200  0.72640  Biso   1.000  H
  H5       1.0000 0.64020  0.20410  0.41840  Biso   1.000  H
  H6       1.0000 0.35980  0.79590  0.58160  Biso   1.000  H
  H7       1.0000 0.69210  0.03140  0.37520  Biso   1.000  H
  H8       1.0000 0.30790  0.96860  0.62480  Biso   1.000  H
  H9       1.0000 0.38870  0.91810  0.38630  Biso   1.000  H
  H10      1.0000 0.61130  0.08190  0.61370  Biso   1.000  H
  H11      1.0000 0.15540  0.01980  0.44050  Biso   1.000  H
  H12      1.0000 0.84460  0.98020  0.55950  Biso   1.000  H
  Cu3      1.0000 0.84975  0.14368  0.97174  Biso   1.000  Cu
  Cu4      1.0000 0.15025  0.85632  0.02826  Biso   1.000  Cu
  O11      1.0000 0.96920  0.20930  0.09520  Biso   1.000  O
  O12      1.0000 0.03080  0.79070  0.90480  Biso   1.000  O
  O13      1.0000 0.22460  0.95910  0.14720  Biso   1.000  O
  O14      1.0000 0.77540  0.04090  0.85280  Biso   1.000  O
  O15      1.0000 0.67220  0.05190  0.08910  Biso   1.000  O
  O16      1.0000 0.32780  0.94810  0.91090  Biso   1.000  O
  O17      1.0000 0.93020  0.80080  0.13570  Biso   1.000  O
  O18      1.0000 0.06980  0.19920  0.86430  Biso   1.000  O
  O19      1.0000 0.58200  0.38360  0.92270  Biso   1.000  O
  O20      1.0000 0.41800  0.61640  0.07730  Biso   1.000  O
  C9       1.0000 0.12580  0.10770  0.15560  Biso   1.000  C
  C10      1.0000 0.87420  0.89230  0.84440  Biso   1.000  C
  H13      1.0000 0.17450  0.14800  0.21410  Biso   1.000  H
  H14      1.0000 0.82550  0.85200  0.78590  Biso   1.000  H
  C11      1.0000 0.74240  0.90710  0.14370  Biso   1.000  C
  C12      1.0000 0.25760  0.09290  0.85630  Biso   1.000  C
  H15      1.0000 0.64150  0.87450  0.19720  Biso   1.000  H
  H16      1.0000 0.35850  0.12550  0.80280  Biso   1.000  H
  C13      1.0000 0.37140  0.40870  0.98270  Biso   1.000  C
  C14      1.0000 0.62860  0.59130  0.01730  Biso   1.000  C
  H17      1.0000 0.34110  0.30430  0.99730  Biso   1.000  H
  H18      1.0000 0.65890  0.69570  0.00270  Biso   1.000  H
  H19      1.0000 0.25370  0.49200  0.93320  Biso   1.000  H
  H20      1.0000 0.74630  0.50800  0.06680  Biso   1.000  H
  C15      1.0000 0.63020  0.53440  0.90360  Biso   1.000  C
  C16      1.0000 0.36980  0.46560  0.09640  Biso   1.000  C
  H21      1.0000 0.51890  0.62080  0.85210  Biso   1.000  H
  H22      1.0000 0.48110  0.37920  0.14790  Biso   1.000  H
  H23      1.0000 0.77660  0.51570  0.86460  Biso   1.000  H
  H24      1.0000 0.22340  0.48430  0.13540  Biso   1.000  H
