data_image0
_cell_length_a       8.18
_cell_length_b       8.15
_cell_length_c       6.35
_cell_angle_alpha    90
_cell_angle_beta     100.08
_cell_angle_gamma    90

_symmetry_space_group_name_H-M    "P 1"
_symmetry_int_tables_number       1

loop_
  _symmetry_equiv_pos_as_xyz
  'x, y, z'

loop_
  _atom_site_label
  _atom_site_occupancy
  _atom_site_fract_x
  _atom_site_fract_y
  _atom_site_fract_z
  _atom_site_thermal_displace_type
  _atom_site_B_iso_or_equiv
  _atom_site_type_symbol
  Cu1      1.0000 0.00000  0.00000  0.00000  Biso   1.000  Cu
  Cu2      1.0000 0.50000  0.50000  0.00000  Biso   1.000  Cu
  C1       1.0000 0.26300  0.76900  0.97600  Biso   1.000  C
  C2       1.0000 0.23700  0.26900  0.02400  Biso   1.000  C
  C3       1.0000 0.73700  0.23100  0.02400  Biso   1.000  C
  C4       1.0000 0.76300  0.73100  0.97600  Biso   1.000  C
  H1       1.0000 0.20700  0.69200  0.07100  Biso   1.000  H
  H2       1.0000 0.29300  0.19200  0.92900  Biso   1.000  H
  H3       1.0000 0.79300  0.30800  0.92900  Biso   1.000  H
  H4       1.0000 0.70700  0.80800  0.07100  Biso   1.000  H
  O1       1.0000 0.20500  0.90800  0.92000  Biso   1.000  O
  O2       1.0000 0.29500  0.40800  0.08000  Biso   1.000  O
  O3       1.0000 0.79500  0.09200  0.08000  Biso   1.000  O
  O4       1.0000 0.70500  0.59200  0.92000  Biso   1.000  O
  O5       1.0000 0.11600  0.21300  0.08800  Biso   1.000  O
  O6       1.0000 0.38400  0.71300  0.91200  Biso   1.000  O
  O7       1.0000 0.88400  0.78700  0.91200  Biso   1.000  O
  O8       1.0000 0.61600  0.28700  0.08800  Biso   1.000  O
