data_image0
_cell_length_a       12.516
_cell_length_b       8.121
_cell_length_c       13.537
_cell_angle_alpha    90
_cell_angle_beta     143.826
_cell_angle_gamma    90

_symmetry_space_group_name_H-M    "P 1"
_symmetry_int_tables_number       1

loop_
  _symmetry_equiv_pos_as_xyz
  'x, y, z'

loop_
  _atom_site_label
  _atom_site_occupancy
  _atom_site_fract_x
  _atom_site_fract_y
  _atom_site_fract_z
  _atom_site_thermal_displace_type
  _atom_site_B_iso_or_equiv
  _atom_site_type_symbol
  H1       1.0000 0.16700  0.30100  0.20600  Biso   1.000  H
  H2       1.0000 0.83300  0.80100  0.29400  Biso   1.000  H
  H3       1.0000 0.83300  0.69900  0.79400  Biso   1.000  H
  H4       1.0000 0.16700  0.19900  0.70600  Biso   1.000  H
  H5       1.0000 0.32300  0.79400  0.28600  Biso   1.000  H
  H6       1.0000 0.67700  0.29400  0.21400  Biso   1.000  H
  H7       1.0000 0.67700  0.20600  0.71400  Biso   1.000  H
  H8       1.0000 0.32300  0.70600  0.78600  Biso   1.000  H
  H9       1.0000 0.47200  0.39900  0.67800  Biso   1.000  H
  H10      1.0000 0.52800  0.89900  0.82200  Biso   1.000  H
  H11      1.0000 0.52800  0.60100  0.32200  Biso   1.000  H
  H12      1.0000 0.47200  0.10100  0.17800  Biso   1.000  H
  H13      1.0000 0.34100  0.33800  0.53900  Biso   1.000  H
  H14      1.0000 0.65900  0.83800  0.96100  Biso   1.000  H
  H15      1.0000 0.65900  0.66200  0.46100  Biso   1.000  H
  H16      1.0000 0.34100  0.16200  0.03900  Biso   1.000  H
  H17      1.0000 0.96200  0.11100  0.16400  Biso   1.000  H
  H18      1.0000 0.03800  0.61100  0.33600  Biso   1.000  H
  H19      1.0000 0.03800  0.88900  0.83600  Biso   1.000  H
  H20      1.0000 0.96200  0.38900  0.66400  Biso   1.000  H
  H21      1.0000 0.80900  0.05000  0.03300  Biso   1.000  H
  H22      1.0000 0.19100  0.55000  0.46700  Biso   1.000  H
  H23      1.0000 0.19100  0.95000  0.96700  Biso   1.000  H
  H24      1.0000 0.80900  0.45000  0.53300  Biso   1.000  H
  C1       1.0000 0.27280  0.22880  0.26220  Biso   1.000  C
  C2       1.0000 0.72720  0.72880  0.23780  Biso   1.000  C
  C3       1.0000 0.72720  0.77120  0.73780  Biso   1.000  C
  C4       1.0000 0.27280  0.27120  0.76220  Biso   1.000  C
  C5       1.0000 0.22380  0.72860  0.23740  Biso   1.000  C
  C6       1.0000 0.77620  0.22860  0.26260  Biso   1.000  C
  C7       1.0000 0.77620  0.27140  0.76260  Biso   1.000  C
  C8       1.0000 0.22380  0.77140  0.73740  Biso   1.000  C
  O1       1.0000 0.43009  0.28633  0.38735  Biso   1.000  O
  O2       1.0000 0.56991  0.78633  0.11265  Biso   1.000  O
  O3       1.0000 0.56991  0.71367  0.61265  Biso   1.000  O
  O4       1.0000 0.43009  0.21367  0.88735  Biso   1.000  O
  O5       1.0000 0.24240  0.08966  0.20402  Biso   1.000  O
  O6       1.0000 0.75760  0.58966  0.29598  Biso   1.000  O
  O7       1.0000 0.75760  0.91034  0.79598  Biso   1.000  O
  O8       1.0000 0.24240  0.41034  0.70402  Biso   1.000  O
  O9       1.0000 0.39440  0.40780  0.57590  Biso   1.000  O
  O10      1.0000 0.60560  0.90780  0.92410  Biso   1.000  O
  O11      1.0000 0.60560  0.59220  0.42410  Biso   1.000  O
  O12      1.0000 0.39440  0.09220  0.07590  Biso   1.000  O
  O13      1.0000 0.25522  0.58998  0.29683  Biso   1.000  O
  O14      1.0000 0.74478  0.08998  0.20317  Biso   1.000  O
  O15      1.0000 0.74478  0.41002  0.70317  Biso   1.000  O
  O16      1.0000 0.25522  0.91002  0.79683  Biso   1.000  O
  O17      1.0000 0.88690  0.10500  0.06690  Biso   1.000  O
  O18      1.0000 0.11310  0.60500  0.43310  Biso   1.000  O
  O19      1.0000 0.11310  0.89500  0.93310  Biso   1.000  O
  O20      1.0000 0.88690  0.39500  0.56690  Biso   1.000  O
  O21      1.0000 0.06575  0.78756  0.11342  Biso   1.000  O
  O22      1.0000 0.93425  0.28756  0.38658  Biso   1.000  O
  O23      1.0000 0.93425  0.21244  0.88658  Biso   1.000  O
  O24      1.0000 0.06575  0.71244  0.61342  Biso   1.000  O
  Cu1      1.0000 0.50000  0.50000  0.50000  Biso   1.000  Cu
  Cu2      1.0000 0.50000  0.00000  0.00000  Biso   1.000  Cu
  Cu3      1.0000 0.00000  0.00000  0.00000  Biso   1.000  Cu
  Cu4      1.0000 0.00000  0.50000  0.50000  Biso   1.000  Cu
  H25      1.0000 0.40700  0.65800  0.08300  Biso   1.000  H
  H26      1.0000 0.59300  0.15800  0.41700  Biso   1.000  H
  H27      1.0000 0.59300  0.34200  0.91700  Biso   1.000  H
  H28      1.0000 0.40700  0.84200  0.58300  Biso   1.000  H
  H29      1.0000 0.28000  0.69800  0.04200  Biso   1.000  H
  H30      1.0000 0.72000  0.19800  0.45800  Biso   1.000  H
  H31      1.0000 0.72000  0.30200  0.95800  Biso   1.000  H
  H32      1.0000 0.28000  0.80200  0.54200  Biso   1.000  H
  O25      1.0000 0.34490  0.63143  0.08380  Biso   1.000  O
  O26      1.0000 0.65510  0.13143  0.41620  Biso   1.000  O
  O27      1.0000 0.65510  0.36857  0.91620  Biso   1.000  O
  O28      1.0000 0.34490  0.86857  0.58380  Biso   1.000  O
  H33      1.0000 0.09500  0.32300  0.91800  Biso   1.000  H
  H34      1.0000 0.90500  0.82300  0.58200  Biso   1.000  H
  H35      1.0000 0.90500  0.67700  0.08200  Biso   1.000  H
  H36      1.0000 0.09500  0.17700  0.41800  Biso   1.000  H
  H37      1.0000 0.20500  0.43100  0.95600  Biso   1.000  H
  H38      1.0000 0.79500  0.93100  0.54400  Biso   1.000  H
  H39      1.0000 0.79500  0.56900  0.04400  Biso   1.000  H
  H40      1.0000 0.20500  0.06900  0.45600  Biso   1.000  H
  O29      1.0000 0.15760  0.34930  0.90851  Biso   1.000  O
  O30      1.0000 0.84240  0.84930  0.59149  Biso   1.000  O
  O31      1.0000 0.84240  0.65070  0.09149  Biso   1.000  O
  O32      1.0000 0.15760  0.15070  0.40851  Biso   1.000  O
