data_image0
_cell_length_a       8.18
_cell_length_b       8.15
_cell_length_c       6.35
_cell_angle_alpha    90
_cell_angle_beta     100.08
_cell_angle_gamma    90

_symmetry_space_group_name_H-M    "P 1"
_symmetry_int_tables_number       1

loop_
  _symmetry_equiv_pos_as_xyz
  'x, y, z'

loop_
  _atom_site_label
  _atom_site_occupancy
  _atom_site_fract_x
  _atom_site_fract_y
  _atom_site_fract_z
  _atom_site_thermal_displace_type
  _atom_site_B_iso_or_equiv
  _atom_site_type_symbol
  Cu1      1.0000 0.00000  0.00000  0.00000  Biso   1.000  Cu
  Cu2      1.0000 0.50000  0.50000  0.00000  Biso   1.000  Cu
  C1       1.0000 0.26200  0.76800  0.98200  Biso   1.000  C
  C2       1.0000 0.23800  0.26800  0.01800  Biso   1.000  C
  C3       1.0000 0.73800  0.23200  0.01800  Biso   1.000  C
  C4       1.0000 0.76200  0.73200  0.98200  Biso   1.000  C
  O1       1.0000 0.20700  0.91000  0.91900  Biso   1.000  O
  O2       1.0000 0.29300  0.41000  0.08100  Biso   1.000  O
  O3       1.0000 0.79300  0.09000  0.08100  Biso   1.000  O
  O4       1.0000 0.70700  0.59000  0.91900  Biso   1.000  O
  O5       1.0000 0.07500  0.90000  0.35700  Biso   1.000  O
  O6       1.0000 0.42500  0.40000  0.64300  Biso   1.000  O
  O7       1.0000 0.92500  0.10000  0.64300  Biso   1.000  O
  O8       1.0000 0.57500  0.60000  0.35700  Biso   1.000  O
  O9       1.0000 0.38600  0.71200  0.90900  Biso   1.000  O
  O10      1.0000 0.11400  0.21200  0.09100  Biso   1.000  O
  O11      1.0000 0.61400  0.28800  0.09100  Biso   1.000  O
  O12      1.0000 0.88600  0.78800  0.90900  Biso   1.000  O
  O13      1.0000 0.08600  0.35300  0.48300  Biso   1.000  O
  O14      1.0000 0.41400  0.85300  0.51700  Biso   1.000  O
  O15      1.0000 0.91400  0.64700  0.51700  Biso   1.000  O
  O16      1.0000 0.58600  0.14700  0.48300  Biso   1.000  O
