data_image0
_cell_length_a       6.62
_cell_length_b       9.05
_cell_length_c       13.31
_cell_angle_alpha    112.5
_cell_angle_beta     98.5
_cell_angle_gamma    112.5

_symmetry_space_group_name_H-M    "P 1"
_symmetry_int_tables_number       1

loop_
  _symmetry_equiv_pos_as_xyz
  'x, y, z'

loop_
  _atom_site_label
  _atom_site_occupancy
  _atom_site_fract_x
  _atom_site_fract_y
  _atom_site_fract_z
  _atom_site_thermal_displace_type
  _atom_site_B_iso_or_equiv
  _atom_site_type_symbol
  Cu1      1.0000 0.01700  0.15800  0.02500  Biso   1.000  Cu
  Cu2      1.0000 0.98300  0.84200  0.97500  Biso   1.000  Cu
  C1       1.0000 0.80800  0.98300  0.13300  Biso   1.000  C
  C2       1.0000 0.19200  0.01700  0.86700  Biso   1.000  C
  C3       1.0000 0.34200  0.13700  0.16100  Biso   1.000  C
  C4       1.0000 0.65800  0.86300  0.83900  Biso   1.000  C
  C5       1.0000 0.10000  0.40000  0.95000  Biso   1.000  C
  C6       1.0000 0.90000  0.60000  0.05000  Biso   1.000  C
  C7       1.0000 0.86700  0.44200  0.07000  Biso   1.000  C
  C8       1.0000 0.13300  0.55800  0.93000  Biso   1.000  C
  O1       1.0000 0.81300  0.11400  0.11600  Biso   1.000  O
  O2       1.0000 0.18700  0.88600  0.88400  Biso   1.000  O
  O3       1.0000 0.20000  0.16700  0.92500  Biso   1.000  O
  O4       1.0000 0.80000  0.83300  0.07500  Biso   1.000  O
  O5       1.0000 0.32200  0.24700  0.13500  Biso   1.000  O
  O6       1.0000 0.67800  0.75300  0.86500  Biso   1.000  O
  O7       1.0000 0.73300  0.02500  0.89500  Biso   1.000  O
  O8       1.0000 0.26700  0.97500  0.10500  Biso   1.000  O
  O9       1.0000 0.06500  0.42700  0.05500  Biso   1.000  O
  O10      1.0000 0.93500  0.57300  0.94500  Biso   1.000  O
  Cu3      1.0000 0.97900  0.12300  0.48000  Biso   1.000  Cu
  Cu4      1.0000 0.02100  0.87700  0.52000  Biso   1.000  Cu
  C9       1.0000 0.38500  0.18300  0.61000  Biso   1.000  C
  C10      1.0000 0.61500  0.81700  0.39000  Biso   1.000  C
  C11      1.0000 0.74900  0.00000  0.61100  Biso   1.000  C
  C12      1.0000 0.25100  0.00000  0.38900  Biso   1.000  C
  C13      1.0000 0.77000  0.40800  0.50000  Biso   1.000  C
  C14      1.0000 0.23000  0.59200  0.50000  Biso   1.000  C
  C15      1.0000 0.04500  0.42500  0.40000  Biso   1.000  C
  C16      1.0000 0.95500  0.57500  0.60000  Biso   1.000  C
  O11      1.0000 0.88000  0.31700  0.43500  Biso   1.000  O
  O12      1.0000 0.12000  0.68300  0.56500  Biso   1.000  O
  O13      1.0000 0.31500  0.27500  0.58500  Biso   1.000  O
  O14      1.0000 0.68500  0.72500  0.41500  Biso   1.000  O
  O15      1.0000 0.70000  0.91700  0.35000  Biso   1.000  O
  O16      1.0000 0.30000  0.08300  0.65000  Biso   1.000  O
  O17      1.0000 0.82300  0.13000  0.59000  Biso   1.000  O
  O18      1.0000 0.17700  0.87000  0.41000  Biso   1.000  O
  O19      1.0000 0.12200  0.06000  0.36000  Biso   1.000  O
  O20      1.0000 0.87800  0.94000  0.64000  Biso   1.000  O
