data_image0
_cell_length_a       6.258
_cell_length_b       8.121
_cell_length_c       8.147
_cell_angle_alpha    90
_cell_angle_beta     101.24
_cell_angle_gamma    90

_symmetry_space_group_name_H-M    "P 1"
_symmetry_int_tables_number       1

loop_
  _symmetry_equiv_pos_as_xyz
  'x, y, z'

loop_
  _atom_site_label
  _atom_site_occupancy
  _atom_site_fract_x
  _atom_site_fract_y
  _atom_site_fract_z
  _atom_site_thermal_displace_type
  _atom_site_B_iso_or_equiv
  _atom_site_type_symbol
  Cu1      1.0000 0.00000  0.00000  0.00000  Biso   1.000  Cu
  Cu2      1.0000 0.00000  0.50000  0.50000  Biso   1.000  Cu
  O1       1.0000 0.09050  0.21303  0.11309  Biso   1.000  O
  O2       1.0000 0.90950  0.71303  0.38691  Biso   1.000  O
  O3       1.0000 0.90950  0.78697  0.88691  Biso   1.000  O
  O4       1.0000 0.09050  0.28697  0.61309  Biso   1.000  O
  O5       1.0000 0.08000  0.41022  0.29645  Biso   1.000  O
  O6       1.0000 0.92000  0.91022  0.20355  Biso   1.000  O
  O7       1.0000 0.92000  0.58978  0.70355  Biso   1.000  O
  O8       1.0000 0.08000  0.08978  0.79645  Biso   1.000  O
  O9       1.0000 0.63880  0.09910  0.92840  Biso   1.000  O
  O10      1.0000 0.36120  0.59910  0.57160  Biso   1.000  O
  O11      1.0000 0.36120  0.90090  0.07160  Biso   1.000  O
  O12      1.0000 0.63880  0.40090  0.42840  Biso   1.000  O
  H1       1.0000 0.58960  0.10760  0.82630  Biso   1.000  H
  H2       1.0000 0.41040  0.60760  0.67370  Biso   1.000  H
  H3       1.0000 0.41040  0.89240  0.17370  Biso   1.000  H
  H4       1.0000 0.58960  0.39240  0.32630  Biso   1.000  H
  H5       1.0000 0.55200  0.05690  0.97090  Biso   1.000  H
  H6       1.0000 0.44800  0.55690  0.52910  Biso   1.000  H
  H7       1.0000 0.44800  0.94310  0.02910  Biso   1.000  H
  H8       1.0000 0.55200  0.44310  0.47090  Biso   1.000  H
  C1       1.0000 0.02450  0.27120  0.23760  Biso   1.000  C
  C2       1.0000 0.97550  0.77120  0.26240  Biso   1.000  C
  C3       1.0000 0.97550  0.72880  0.76240  Biso   1.000  C
  C4       1.0000 0.02450  0.22880  0.73760  Biso   1.000  C
  H9       1.0000 0.92870  0.20690  0.28870  Biso   1.000  H
  H10      1.0000 0.07130  0.70690  0.21130  Biso   1.000  H
  H11      1.0000 0.07130  0.79310  0.71130  Biso   1.000  H
  H12      1.0000 0.92870  0.29310  0.78870  Biso   1.000  H
  O13      1.0000 0.48820  0.35780  0.08770  Biso   1.000  O
  O14      1.0000 0.51180  0.85780  0.41230  Biso   1.000  O
  O15      1.0000 0.51180  0.64220  0.91230  Biso   1.000  O
  O16      1.0000 0.48820  0.14220  0.58770  Biso   1.000  O
  H13      1.0000 0.34390  0.33150  0.07800  Biso   1.000  H
  H14      1.0000 0.65610  0.83150  0.42200  Biso   1.000  H
  H15      1.0000 0.65610  0.66850  0.92200  Biso   1.000  H
  H16      1.0000 0.34390  0.16850  0.57800  Biso   1.000  H
  H17      1.0000 0.48960  0.43900  0.04060  Biso   1.000  H
  H18      1.0000 0.51040  0.93900  0.45940  Biso   1.000  H
  H19      1.0000 0.51040  0.56100  0.95940  Biso   1.000  H
  H20      1.0000 0.48960  0.06100  0.54060  Biso   1.000  H
