data_image0
_cell_length_a       14.1813
_cell_length_b       8.8988
_cell_length_c       6.1468
_cell_angle_alpha    90
_cell_angle_beta     90
_cell_angle_gamma    90

_symmetry_space_group_name_H-M    "P 1"
_symmetry_int_tables_number       1

loop_
  _symmetry_equiv_pos_as_xyz
  'x, y, z'

loop_
  _atom_site_label
  _atom_site_occupancy
  _atom_site_fract_x
  _atom_site_fract_y
  _atom_site_fract_z
  _atom_site_thermal_displace_type
  _atom_site_B_iso_or_equiv
  _atom_site_type_symbol
  Cu1      1.0000 0.11400  0.05800  0.00180  Biso   1.000  Cu
  Cu2      1.0000 0.38600  0.94200  0.50180  Biso   1.000  Cu
  Cu3      1.0000 0.61400  0.44200  0.99820  Biso   1.000  Cu
  Cu4      1.0000 0.88600  0.55800  0.49820  Biso   1.000  Cu
  Cu5      1.0000 0.88600  0.94200  0.99820  Biso   1.000  Cu
  Cu6      1.0000 0.61400  0.05800  0.49820  Biso   1.000  Cu
  Cu7      1.0000 0.38600  0.55800  0.00180  Biso   1.000  Cu
  Cu8      1.0000 0.11400  0.44200  0.50180  Biso   1.000  Cu
  O1       1.0000 0.08790  0.24410  0.15700  Biso   1.000  O
  O2       1.0000 0.41210  0.75590  0.65700  Biso   1.000  O
  O3       1.0000 0.58790  0.25590  0.84300  Biso   1.000  O
  O4       1.0000 0.91210  0.74410  0.34300  Biso   1.000  O
  O5       1.0000 0.91210  0.75590  0.84300  Biso   1.000  O
  O6       1.0000 0.58790  0.24410  0.34300  Biso   1.000  O
  O7       1.0000 0.41210  0.74410  0.15700  Biso   1.000  O
  O8       1.0000 0.08790  0.25590  0.65700  Biso   1.000  O
  O9       1.0000 0.22320  0.02710  0.19430  Biso   1.000  O
  O10      1.0000 0.27680  0.97290  0.69430  Biso   1.000  O
  O11      1.0000 0.72320  0.47290  0.80570  Biso   1.000  O
  O12      1.0000 0.77680  0.52710  0.30570  Biso   1.000  O
  O13      1.0000 0.77680  0.97290  0.80570  Biso   1.000  O
  O14      1.0000 0.72320  0.02710  0.30570  Biso   1.000  O
  O15      1.0000 0.27680  0.52710  0.19430  Biso   1.000  O
  O16      1.0000 0.22320  0.47290  0.69430  Biso   1.000  O
  O17      1.0000 0.00440  0.42770  0.30180  Biso   1.000  O
  O18      1.0000 0.49560  0.57230  0.80180  Biso   1.000  O
  O19      1.0000 0.50440  0.07230  0.69820  Biso   1.000  O
  O20      1.0000 0.99560  0.92770  0.19820  Biso   1.000  O
  O21      1.0000 0.99560  0.57230  0.69820  Biso   1.000  O
  O22      1.0000 0.50440  0.42770  0.19820  Biso   1.000  O
  O23      1.0000 0.49560  0.92770  0.30180  Biso   1.000  O
  O24      1.0000 0.00440  0.07230  0.80180  Biso   1.000  O
  O25      1.0000 0.35250  0.12590  0.34940  Biso   1.000  O
  O26      1.0000 0.14750  0.87410  0.84940  Biso   1.000  O
  O27      1.0000 0.85250  0.37410  0.65060  Biso   1.000  O
  O28      1.0000 0.64750  0.62590  0.15060  Biso   1.000  O
  O29      1.0000 0.64750  0.87410  0.65060  Biso   1.000  O
  O30      1.0000 0.85250  0.12590  0.15060  Biso   1.000  O
  O31      1.0000 0.14750  0.62590  0.34940  Biso   1.000  O
  O32      1.0000 0.35250  0.37410  0.84940  Biso   1.000  O
  C1       1.0000 0.01770  0.32720  0.15780  Biso   1.000  C
  C2       1.0000 0.48230  0.67280  0.65780  Biso   1.000  C
  C3       1.0000 0.51770  0.17280  0.84220  Biso   1.000  C
  C4       1.0000 0.98230  0.82720  0.34220  Biso   1.000  C
  C5       1.0000 0.98230  0.67280  0.84220  Biso   1.000  C
  C6       1.0000 0.51770  0.32720  0.34220  Biso   1.000  C
  C7       1.0000 0.48230  0.82720  0.15780  Biso   1.000  C
  C8       1.0000 0.01770  0.17280  0.65780  Biso   1.000  C
  C9       1.0000 0.27710  0.13780  0.23620  Biso   1.000  C
  C10      1.0000 0.22290  0.86220  0.73620  Biso   1.000  C
  C11      1.0000 0.77710  0.36220  0.76380  Biso   1.000  C
  C12      1.0000 0.72290  0.63780  0.26380  Biso   1.000  C
  C13      1.0000 0.72290  0.86220  0.76380  Biso   1.000  C
  C14      1.0000 0.77710  0.13780  0.26380  Biso   1.000  C
  C15      1.0000 0.22290  0.63780  0.23620  Biso   1.000  C
  C16      1.0000 0.27710  0.36220  0.73620  Biso   1.000  C
  H1       1.0000 0.96650  0.32030  0.02810  Biso   1.000  H
  H2       1.0000 0.53350  0.67970  0.52810  Biso   1.000  H
  H3       1.0000 0.46650  0.17970  0.97190  Biso   1.000  H
  H4       1.0000 0.03350  0.82030  0.47190  Biso   1.000  H
  H5       1.0000 0.03350  0.67970  0.97190  Biso   1.000  H
  H6       1.0000 0.46650  0.32030  0.47190  Biso   1.000  H
  H7       1.0000 0.53350  0.82030  0.02810  Biso   1.000  H
  H8       1.0000 0.96650  0.17970  0.52810  Biso   1.000  H
  H9       1.0000 0.25920  0.24310  0.16660  Biso   1.000  H
  H10      1.0000 0.24080  0.75690  0.66660  Biso   1.000  H
  H11      1.0000 0.75920  0.25690  0.83340  Biso   1.000  H
  H12      1.0000 0.74080  0.74310  0.33340  Biso   1.000  H
  H13      1.0000 0.74080  0.75690  0.83340  Biso   1.000  H
  H14      1.0000 0.75920  0.24310  0.33340  Biso   1.000  H
  H15      1.0000 0.24080  0.74310  0.16660  Biso   1.000  H
  H16      1.0000 0.25920  0.25690  0.66660  Biso   1.000  H
