data_image0
_cell_length_a       14.195
_cell_length_b       8.955
_cell_length_c       6.218
_cell_angle_alpha    90
_cell_angle_beta     90
_cell_angle_gamma    90

_symmetry_space_group_name_H-M    "P 1"
_symmetry_int_tables_number       1

loop_
  _symmetry_equiv_pos_as_xyz
  'x, y, z'

loop_
  _atom_site_label
  _atom_site_occupancy
  _atom_site_fract_x
  _atom_site_fract_y
  _atom_site_fract_z
  _atom_site_thermal_displace_type
  _atom_site_B_iso_or_equiv
  _atom_site_type_symbol
  Cu1      1.0000 0.11520  0.05880  0.00650  Biso   1.000  Cu
  Cu2      1.0000 0.38480  0.94120  0.50650  Biso   1.000  Cu
  Cu3      1.0000 0.61520  0.44120  0.99350  Biso   1.000  Cu
  Cu4      1.0000 0.88480  0.55880  0.49350  Biso   1.000  Cu
  Cu5      1.0000 0.88480  0.94120  0.99350  Biso   1.000  Cu
  Cu6      1.0000 0.61520  0.05880  0.49350  Biso   1.000  Cu
  Cu7      1.0000 0.38480  0.55880  0.00650  Biso   1.000  Cu
  Cu8      1.0000 0.11520  0.44120  0.50650  Biso   1.000  Cu
  C1       1.0000 0.01840  0.32260  0.16130  Biso   1.000  C
  C2       1.0000 0.48160  0.67740  0.66130  Biso   1.000  C
  C3       1.0000 0.51840  0.17740  0.83870  Biso   1.000  C
  C4       1.0000 0.98160  0.82260  0.33870  Biso   1.000  C
  C5       1.0000 0.98160  0.67740  0.83870  Biso   1.000  C
  C6       1.0000 0.51840  0.32260  0.33870  Biso   1.000  C
  C7       1.0000 0.48160  0.82260  0.16130  Biso   1.000  C
  C8       1.0000 0.01840  0.17740  0.66130  Biso   1.000  C
  C9       1.0000 0.27780  0.13530  0.23360  Biso   1.000  C
  C10      1.0000 0.22220  0.86470  0.73360  Biso   1.000  C
  C11      1.0000 0.77780  0.36470  0.76640  Biso   1.000  C
  C12      1.0000 0.72220  0.63530  0.26640  Biso   1.000  C
  C13      1.0000 0.72220  0.86470  0.76640  Biso   1.000  C
  C14      1.0000 0.77780  0.13530  0.26640  Biso   1.000  C
  C15      1.0000 0.22220  0.63530  0.23360  Biso   1.000  C
  C16      1.0000 0.27780  0.36470  0.73360  Biso   1.000  C
  O1       1.0000 0.08930  0.24270  0.16210  Biso   1.000  O
  O2       1.0000 0.41070  0.75730  0.66210  Biso   1.000  O
  O3       1.0000 0.58930  0.25730  0.83790  Biso   1.000  O
  O4       1.0000 0.91070  0.74270  0.33790  Biso   1.000  O
  O5       1.0000 0.91070  0.75730  0.83790  Biso   1.000  O
  O6       1.0000 0.58930  0.24270  0.33790  Biso   1.000  O
  O7       1.0000 0.41070  0.74270  0.16210  Biso   1.000  O
  O8       1.0000 0.08930  0.25730  0.66210  Biso   1.000  O
  O9       1.0000 0.22230  0.02620  0.19500  Biso   1.000  O
  O10      1.0000 0.27770  0.97380  0.69500  Biso   1.000  O
  O11      1.0000 0.72230  0.47380  0.80500  Biso   1.000  O
  O12      1.0000 0.77770  0.52620  0.30500  Biso   1.000  O
  O13      1.0000 0.77770  0.97380  0.80500  Biso   1.000  O
  O14      1.0000 0.72230  0.02620  0.30500  Biso   1.000  O
  O15      1.0000 0.27770  0.52620  0.19500  Biso   1.000  O
  O16      1.0000 0.22230  0.47380  0.69500  Biso   1.000  O
  O17      1.0000 0.00670  0.42190  0.30980  Biso   1.000  O
  O18      1.0000 0.49330  0.57810  0.80980  Biso   1.000  O
  O19      1.0000 0.50670  0.07810  0.69020  Biso   1.000  O
  O20      1.0000 0.99330  0.92190  0.19020  Biso   1.000  O
  O21      1.0000 0.99330  0.57810  0.69020  Biso   1.000  O
  O22      1.0000 0.50670  0.42190  0.19020  Biso   1.000  O
  O23      1.0000 0.49330  0.92190  0.30980  Biso   1.000  O
  O24      1.0000 0.00670  0.07810  0.80980  Biso   1.000  O
  O25      1.0000 0.35070  0.12070  0.35410  Biso   1.000  O
  O26      1.0000 0.14930  0.87930  0.85410  Biso   1.000  O
  O27      1.0000 0.85070  0.37930  0.64590  Biso   1.000  O
  O28      1.0000 0.64930  0.62070  0.14590  Biso   1.000  O
  O29      1.0000 0.64930  0.87930  0.64590  Biso   1.000  O
  O30      1.0000 0.85070  0.12070  0.14590  Biso   1.000  O
  O31      1.0000 0.14930  0.62070  0.35410  Biso   1.000  O
  O32      1.0000 0.35070  0.37930  0.85410  Biso   1.000  O
