data_image0
_cell_length_a       8
_cell_length_b       8.15
_cell_length_c       12.41
_cell_angle_alpha    90
_cell_angle_beta     101.1
_cell_angle_gamma    90

_symmetry_space_group_name_H-M    "P 1"
_symmetry_int_tables_number       1

loop_
  _symmetry_equiv_pos_as_xyz
  'x, y, z'

loop_
  _atom_site_label
  _atom_site_occupancy
  _atom_site_fract_x
  _atom_site_fract_y
  _atom_site_fract_z
  _atom_site_thermal_displace_type
  _atom_site_B_iso_or_equiv
  _atom_site_type_symbol
  Cu1      1.0000 0.00000  0.00000  0.00000  Biso   1.000  Cu
  Cu2      1.0000 0.50000  0.50000  0.50000  Biso   1.000  Cu
  Cu3      1.0000 0.50000  0.50000  0.00000  Biso   1.000  Cu
  Cu4      1.0000 0.00000  0.00000  0.50000  Biso   1.000  Cu
  C1       1.0000 0.23680  0.27180  0.01180  Biso   1.000  C
  C2       1.0000 0.26320  0.77180  0.48820  Biso   1.000  C
  C3       1.0000 0.76320  0.72820  0.98820  Biso   1.000  C
  C4       1.0000 0.73680  0.22820  0.51180  Biso   1.000  C
  C5       1.0000 0.26320  0.77180  0.98820  Biso   1.000  C
  C6       1.0000 0.23680  0.27180  0.51180  Biso   1.000  C
  C7       1.0000 0.73680  0.22820  0.01180  Biso   1.000  C
  C8       1.0000 0.76320  0.72820  0.48820  Biso   1.000  C
  O1       1.0000 0.29570  0.41130  0.04050  Biso   1.000  O
  O2       1.0000 0.20430  0.91130  0.45950  Biso   1.000  O
  O3       1.0000 0.70430  0.58870  0.95950  Biso   1.000  O
  O4       1.0000 0.79570  0.08870  0.54050  Biso   1.000  O
  O5       1.0000 0.11270  0.21260  0.04590  Biso   1.000  O
  O6       1.0000 0.38730  0.71260  0.45410  Biso   1.000  O
  O7       1.0000 0.88730  0.78740  0.95410  Biso   1.000  O
  O8       1.0000 0.61270  0.28740  0.54590  Biso   1.000  O
  O9       1.0000 0.20430  0.91130  0.95950  Biso   1.000  O
  O10      1.0000 0.29570  0.41130  0.54050  Biso   1.000  O
  O11      1.0000 0.79570  0.08870  0.04050  Biso   1.000  O
  O12      1.0000 0.70430  0.58870  0.45950  Biso   1.000  O
  O13      1.0000 0.38730  0.71260  0.95410  Biso   1.000  O
  O14      1.0000 0.11270  0.21260  0.54590  Biso   1.000  O
  O15      1.0000 0.61270  0.28740  0.04590  Biso   1.000  O
  O16      1.0000 0.88730  0.78740  0.45410  Biso   1.000  O
  H1       1.0000 0.29480  0.19590  0.95480  Biso   1.000  H
  H2       1.0000 0.20520  0.69590  0.54520  Biso   1.000  H
  H3       1.0000 0.70520  0.80410  0.04520  Biso   1.000  H
  H4       1.0000 0.79480  0.30410  0.45480  Biso   1.000  H
  H5       1.0000 0.20520  0.69590  0.04520  Biso   1.000  H
  H6       1.0000 0.29480  0.19590  0.45480  Biso   1.000  H
  H7       1.0000 0.79480  0.30410  0.95480  Biso   1.000  H
  H8       1.0000 0.70520  0.80410  0.54520  Biso   1.000  H
  O17      1.0000 0.07170  0.89760  0.18010  Biso   1.000  O
  O18      1.0000 0.42830  0.39760  0.31990  Biso   1.000  O
  O19      1.0000 0.92830  0.10240  0.81990  Biso   1.000  O
  O20      1.0000 0.57170  0.60240  0.68010  Biso   1.000  O
  O21      1.0000 0.43130  0.40790  0.81420  Biso   1.000  O
  O22      1.0000 0.06870  0.90790  0.68580  Biso   1.000  O
  O23      1.0000 0.56870  0.59210  0.18580  Biso   1.000  O
  O24      1.0000 0.93130  0.09210  0.31420  Biso   1.000  O
  H9       1.0000 0.18700  0.89000  0.20400  Biso   1.000  H
  H10      1.0000 0.31300  0.39000  0.29600  Biso   1.000  H
  H11      1.0000 0.81300  0.11000  0.79600  Biso   1.000  H
  H12      1.0000 0.68700  0.61000  0.70400  Biso   1.000  H
  H13      1.0000 0.29900  0.39800  0.78500  Biso   1.000  H
  H14      1.0000 0.20100  0.89800  0.71500  Biso   1.000  H
  H15      1.0000 0.70100  0.60200  0.21500  Biso   1.000  H
  H16      1.0000 0.79900  0.10200  0.28500  Biso   1.000  H
  H17      1.0000 0.47500  0.31000  0.79600  Biso   1.000  H
  H18      1.0000 0.02500  0.81000  0.70400  Biso   1.000  H
  H19      1.0000 0.52500  0.69000  0.20400  Biso   1.000  H
  H20      1.0000 0.97500  0.19000  0.29600  Biso   1.000  H
  H21      1.0000 0.02300  0.96600  0.24200  Biso   1.000  H
  H22      1.0000 0.47700  0.46600  0.25800  Biso   1.000  H
  H23      1.0000 0.97700  0.03400  0.75800  Biso   1.000  H
  H24      1.0000 0.52300  0.53400  0.74200  Biso   1.000  H
  O25      1.0000 0.09560  0.35000  0.25090  Biso   1.000  O
  O26      1.0000 0.40440  0.85000  0.24910  Biso   1.000  O
  O27      1.0000 0.90440  0.65000  0.74910  Biso   1.000  O
  O28      1.0000 0.59560  0.15000  0.75090  Biso   1.000  O
  H25      1.0000 0.08500  0.32500  0.17200  Biso   1.000  H
  H26      1.0000 0.41500  0.82500  0.32800  Biso   1.000  H
  H27      1.0000 0.91500  0.67500  0.82800  Biso   1.000  H
  H28      1.0000 0.58500  0.17500  0.67200  Biso   1.000  H
  H29      1.0000 0.02900  0.44900  0.24500  Biso   1.000  H
  H30      1.0000 0.47100  0.94900  0.25500  Biso   1.000  H
  H31      1.0000 0.97100  0.55100  0.75500  Biso   1.000  H
  H32      1.0000 0.52900  0.05100  0.74500  Biso   1.000  H
  O29      1.0000 0.07810  0.36880  0.73780  Biso   1.000  O
  O30      1.0000 0.42190  0.86880  0.76220  Biso   1.000  O
  O31      1.0000 0.92190  0.63120  0.26220  Biso   1.000  O
  O32      1.0000 0.57810  0.13120  0.23780  Biso   1.000  O
  H33      1.0000 0.08700  0.32600  0.67100  Biso   1.000  H
  H34      1.0000 0.41300  0.82600  0.82900  Biso   1.000  H
  H35      1.0000 0.91300  0.67400  0.32900  Biso   1.000  H
  H36      1.0000 0.58700  0.17400  0.17100  Biso   1.000  H
  H37      1.0000 0.02500  0.27400  0.78200  Biso   1.000  H
  H38      1.0000 0.47500  0.77400  0.71800  Biso   1.000  H
  H39      1.0000 0.97500  0.72600  0.21800  Biso   1.000  H
  H40      1.0000 0.52500  0.22600  0.28200  Biso   1.000  H
