data_image0
_cell_length_a       5.206
_cell_length_b       14.406
_cell_length_c       8.74
_cell_angle_alpha    90
_cell_angle_beta     109.2
_cell_angle_gamma    90

_symmetry_space_group_name_H-M    "P 1"
_symmetry_int_tables_number       1

loop_
  _symmetry_equiv_pos_as_xyz
  'x, y, z'

loop_
  _atom_site_label
  _atom_site_occupancy
  _atom_site_fract_x
  _atom_site_fract_y
  _atom_site_fract_z
  _atom_site_thermal_displace_type
  _atom_site_B_iso_or_equiv
  _atom_site_type_symbol
  Cu1      1.0000 0.00000  0.00000  0.00000  Biso   1.000  Cu
  Cu2      1.0000 0.00000  0.50000  0.50000  Biso   1.000  Cu
  C1       1.0000 0.66890  0.59050  0.23680  Biso   1.000  C
  C2       1.0000 0.33110  0.09050  0.26320  Biso   1.000  C
  C3       1.0000 0.33110  0.40950  0.76320  Biso   1.000  C
  C4       1.0000 0.66890  0.90950  0.73680  Biso   1.000  C
  C5       1.0000 0.41860  0.64130  0.13350  Biso   1.000  C
  C6       1.0000 0.58140  0.14130  0.36650  Biso   1.000  C
  C7       1.0000 0.58140  0.35870  0.86650  Biso   1.000  C
  C8       1.0000 0.41860  0.85870  0.63350  Biso   1.000  C
  C9       1.0000 0.47380  0.74380  0.13450  Biso   1.000  C
  C10      1.0000 0.52620  0.24380  0.36550  Biso   1.000  C
  C11      1.0000 0.52620  0.25620  0.86550  Biso   1.000  C
  C12      1.0000 0.47380  0.75620  0.63450  Biso   1.000  C
  C13      1.0000 0.21150  0.80070  0.05730  Biso   1.000  C
  C14      1.0000 0.78850  0.30070  0.44270  Biso   1.000  C
  C15      1.0000 0.78850  0.19930  0.94270  Biso   1.000  C
  C16      1.0000 0.21150  0.69930  0.55730  Biso   1.000  C
  H1       1.0000 0.36300  0.61900  0.00100  Biso   1.000  H
  H2       1.0000 0.63700  0.11900  0.49900  Biso   1.000  H
  H3       1.0000 0.63700  0.38100  0.99900  Biso   1.000  H
  H4       1.0000 0.36300  0.88100  0.50100  Biso   1.000  H
  H5       1.0000 0.12700  0.46400  0.17400  Biso   1.000  H
  H6       1.0000 0.87300  0.96400  0.32600  Biso   1.000  H
  H7       1.0000 0.87300  0.53600  0.82600  Biso   1.000  H
  H8       1.0000 0.12700  0.03600  0.67400  Biso   1.000  H
  H9       1.0000 0.25800  0.63400  0.19800  Biso   1.000  H
  H10      1.0000 0.74200  0.13400  0.30200  Biso   1.000  H
  H11      1.0000 0.74200  0.36600  0.80200  Biso   1.000  H
  H12      1.0000 0.25800  0.86600  0.69800  Biso   1.000  H
  H13      1.0000 0.57200  0.75900  0.27100  Biso   1.000  H
  H14      1.0000 0.42800  0.25900  0.22900  Biso   1.000  H
  H15      1.0000 0.42800  0.24100  0.72900  Biso   1.000  H
  H16      1.0000 0.57200  0.74100  0.77100  Biso   1.000  H
  H17      1.0000 0.63600  0.75200  0.05700  Biso   1.000  H
  H18      1.0000 0.36400  0.25200  0.44300  Biso   1.000  H
  H19      1.0000 0.36400  0.24800  0.94300  Biso   1.000  H
  H20      1.0000 0.63600  0.74800  0.55700  Biso   1.000  H
  H21      1.0000 0.13800  0.78000  0.95700  Biso   1.000  H
  H22      1.0000 0.86200  0.28000  0.54300  Biso   1.000  H
  H23      1.0000 0.86200  0.22000  0.04300  Biso   1.000  H
  H24      1.0000 0.13800  0.72000  0.45700  Biso   1.000  H
  H25      1.0000 0.05600  0.79400  0.11300  Biso   1.000  H
  H26      1.0000 0.94400  0.29400  0.38700  Biso   1.000  H
  H27      1.0000 0.94400  0.20600  0.88700  Biso   1.000  H
  H28      1.0000 0.05600  0.70600  0.61300  Biso   1.000  H
  H29      1.0000 0.45800  0.91200  0.16000  Biso   1.000  H
  H30      1.0000 0.54200  0.41200  0.34000  Biso   1.000  H
  H31      1.0000 0.54200  0.08800  0.84000  Biso   1.000  H
  H32      1.0000 0.45800  0.58800  0.66000  Biso   1.000  H
  H33      1.0000 0.20900  0.43100  0.04400  Biso   1.000  H
  H34      1.0000 0.79100  0.93100  0.45600  Biso   1.000  H
  H35      1.0000 0.79100  0.56900  0.95600  Biso   1.000  H
  H36      1.0000 0.20900  0.06900  0.54400  Biso   1.000  H
  H37      1.0000 0.37700  0.90900  0.97400  Biso   1.000  H
  H38      1.0000 0.62300  0.40900  0.52600  Biso   1.000  H
  H39      1.0000 0.62300  0.09100  0.02600  Biso   1.000  H
  H40      1.0000 0.37700  0.59100  0.47400  Biso   1.000  H
  N1       1.0000 0.27970  0.89780  0.05370  Biso   1.000  N
  N2       1.0000 0.72030  0.39780  0.44630  Biso   1.000  N
  N3       1.0000 0.72030  0.10220  0.94630  Biso   1.000  N
  N4       1.0000 0.27970  0.60220  0.55370  Biso   1.000  N
  O1       1.0000 0.30150  0.08310  0.11130  Biso   1.000  O
  O2       1.0000 0.69850  0.58310  0.38870  Biso   1.000  O
  O3       1.0000 0.69850  0.91690  0.88870  Biso   1.000  O
  O4       1.0000 0.30150  0.41690  0.61130  Biso   1.000  O
  O5       1.0000 0.22250  0.42250  0.15530  Biso   1.000  O
  O6       1.0000 0.77750  0.92250  0.34470  Biso   1.000  O
  O7       1.0000 0.77750  0.57750  0.84470  Biso   1.000  O
  O8       1.0000 0.22250  0.07750  0.65530  Biso   1.000  O
  O9       1.0000 0.82030  0.55330  0.17430  Biso   1.000  O
  O10      1.0000 0.17970  0.05330  0.32570  Biso   1.000  O
  O11      1.0000 0.17970  0.44670  0.82570  Biso   1.000  O
  O12      1.0000 0.82030  0.94670  0.67430  Biso   1.000  O
