data_image0
_cell_length_a       7.232
_cell_length_b       10.311
_cell_length_c       11.058
_cell_angle_alpha    90
_cell_angle_beta     90
_cell_angle_gamma    90

_symmetry_space_group_name_H-M    "P 1"
_symmetry_int_tables_number       1

loop_
  _symmetry_equiv_pos_as_xyz
  'x, y, z'

loop_
  _atom_site_label
  _atom_site_occupancy
  _atom_site_fract_x
  _atom_site_fract_y
  _atom_site_fract_z
  _atom_site_thermal_displace_type
  _atom_site_B_iso_or_equiv
  _atom_site_type_symbol
  Cu1      1.0000 0.60031  0.43316  0.47087  Biso   1.000  Cu
  Cu2      1.0000 0.39969  0.93316  0.02913  Biso   1.000  Cu
  Cu3      1.0000 0.10031  0.06684  0.52913  Biso   1.000  Cu
  Cu4      1.0000 0.89969  0.56684  0.97087  Biso   1.000  Cu
  O1       1.0000 0.87450  0.37900  0.38090  Biso   1.000  O
  O2       1.0000 0.12550  0.87900  0.11910  Biso   1.000  O
  O3       1.0000 0.37450  0.12100  0.61910  Biso   1.000  O
  O4       1.0000 0.62550  0.62100  0.88090  Biso   1.000  O
  O5       1.0000 0.98160  0.23810  0.51690  Biso   1.000  O
  O6       1.0000 0.01840  0.73810  0.98310  Biso   1.000  O
  O7       1.0000 0.48160  0.26190  0.48310  Biso   1.000  O
  O8       1.0000 0.51840  0.76190  0.01690  Biso   1.000  O
  C1       1.0000 0.97040  0.28500  0.41160  Biso   1.000  C
  C2       1.0000 0.02960  0.78500  0.08840  Biso   1.000  C
  C3       1.0000 0.47040  0.21500  0.58840  Biso   1.000  C
  C4       1.0000 0.52960  0.71500  0.91160  Biso   1.000  C
  C5       1.0000 0.08050  0.21570  0.30990  Biso   1.000  C
  C6       1.0000 0.91950  0.71570  0.19010  Biso   1.000  C
  C7       1.0000 0.58050  0.28430  0.69010  Biso   1.000  C
  C8       1.0000 0.41950  0.78430  0.80990  Biso   1.000  C
  H1       1.0000 0.16580  0.27860  0.27390  Biso   1.000  H
  H2       1.0000 0.83420  0.77860  0.22610  Biso   1.000  H
  H3       1.0000 0.66580  0.22140  0.72610  Biso   1.000  H
  H4       1.0000 0.33420  0.72140  0.77390  Biso   1.000  H
  N1       1.0000 0.19070  0.10920  0.36270  Biso   1.000  N
  N2       1.0000 0.80930  0.60920  0.13730  Biso   1.000  N
  N3       1.0000 0.69070  0.39080  0.63730  Biso   1.000  N
  N4       1.0000 0.30930  0.89080  0.86270  Biso   1.000  N
  H5       1.0000 0.31040  0.13280  0.36610  Biso   1.000  H
  H6       1.0000 0.68960  0.63280  0.13390  Biso   1.000  H
  H7       1.0000 0.81040  0.36720  0.63390  Biso   1.000  H
  H8       1.0000 0.18960  0.86720  0.86610  Biso   1.000  H
  H9       1.0000 0.18190  0.03850  0.31540  Biso   1.000  H
  H10      1.0000 0.81810  0.53850  0.18460  Biso   1.000  H
  H11      1.0000 0.68190  0.46150  0.68460  Biso   1.000  H
  H12      1.0000 0.31810  0.96150  0.81540  Biso   1.000  H
  C9       1.0000 0.94940  0.16820  0.21130  Biso   1.000  C
  C10      1.0000 0.05060  0.66820  0.28870  Biso   1.000  C
  C11      1.0000 0.44940  0.33180  0.78870  Biso   1.000  C
  C12      1.0000 0.55060  0.83180  0.71130  Biso   1.000  C
  H13      1.0000 0.02030  0.12010  0.15180  Biso   1.000  H
  H14      1.0000 0.97970  0.62010  0.34820  Biso   1.000  H
  H15      1.0000 0.52030  0.37990  0.84820  Biso   1.000  H
  H16      1.0000 0.47970  0.87990  0.65180  Biso   1.000  H
  H17      1.0000 0.89630  0.24290  0.17090  Biso   1.000  H
  H18      1.0000 0.10370  0.74290  0.32910  Biso   1.000  H
  H19      1.0000 0.39630  0.25710  0.82910  Biso   1.000  H
  H20      1.0000 0.60370  0.75710  0.67090  Biso   1.000  H
  C13      1.0000 0.79240  0.08200  0.25700  Biso   1.000  C
  C14      1.0000 0.20760  0.58200  0.24300  Biso   1.000  C
  C15      1.0000 0.29240  0.41800  0.74300  Biso   1.000  C
  C16      1.0000 0.70760  0.91800  0.75700  Biso   1.000  C
  H21      1.0000 0.84430  0.00900  0.30070  Biso   1.000  H
  H22      1.0000 0.15570  0.50900  0.19930  Biso   1.000  H
  H23      1.0000 0.34430  0.49100  0.69930  Biso   1.000  H
  H24      1.0000 0.65570  0.99100  0.80070  Biso   1.000  H
  H25      1.0000 0.71640  0.13120  0.31290  Biso   1.000  H
  H26      1.0000 0.28360  0.63120  0.18710  Biso   1.000  H
  H27      1.0000 0.21640  0.36880  0.68710  Biso   1.000  H
  H28      1.0000 0.78360  0.86880  0.81290  Biso   1.000  H
  C17      1.0000 0.67250  0.03200  0.15490  Biso   1.000  C
  C18      1.0000 0.32750  0.53200  0.34510  Biso   1.000  C
  C19      1.0000 0.17250  0.46800  0.84510  Biso   1.000  C
  C20      1.0000 0.82750  0.96800  0.65490  Biso   1.000  C
  O9       1.0000 0.68740  0.61550  0.48190  Biso   1.000  O
  O10      1.0000 0.31260  0.11550  0.01810  Biso   1.000  O
  O11      1.0000 0.18740  0.88450  0.51810  Biso   1.000  O
  O12      1.0000 0.81260  0.38450  0.98190  Biso   1.000  O
  H29      1.0000 0.61800  0.68300  0.46200  Biso   1.000  H
  H30      1.0000 0.38200  0.18300  0.03800  Biso   1.000  H
  H31      1.0000 0.11800  0.81700  0.53800  Biso   1.000  H
  H32      1.0000 0.88200  0.31700  0.96200  Biso   1.000  H
  H33      1.0000 0.76100  0.62900  0.54200  Biso   1.000  H
  H34      1.0000 0.23900  0.12900  0.95800  Biso   1.000  H
  H35      1.0000 0.26100  0.87100  0.45800  Biso   1.000  H
  H36      1.0000 0.73900  0.37100  0.04200  Biso   1.000  H
  O13      1.0000 0.71480  0.05060  0.04610  Biso   1.000  O
  O14      1.0000 0.28520  0.55060  0.45390  Biso   1.000  O
  O15      1.0000 0.21480  0.44940  0.95390  Biso   1.000  O
  O16      1.0000 0.78520  0.94940  0.54610  Biso   1.000  O
  O17      1.0000 0.52410  0.97150  0.18380  Biso   1.000  O
  O18      1.0000 0.47590  0.47150  0.31620  Biso   1.000  O
  O19      1.0000 0.02410  0.52850  0.81620  Biso   1.000  O
  O20      1.0000 0.97590  0.02850  0.68380  Biso   1.000  O
  O21      1.0000 0.51600  0.84560  0.40550  Biso   1.000  O
  O22      1.0000 0.48400  0.34560  0.09450  Biso   1.000  O
  O23      1.0000 0.01600  0.65440  0.59450  Biso   1.000  O
  O24      1.0000 0.98400  0.15440  0.90550  Biso   1.000  O
  H37      1.0000 0.59600  0.88600  0.45500  Biso   1.000  H
  H38      1.0000 0.40400  0.38600  0.04500  Biso   1.000  H
  H39      1.0000 0.09600  0.61400  0.54500  Biso   1.000  H
  H40      1.0000 0.90400  0.11400  0.95500  Biso   1.000  H
  H41      1.0000 0.52600  0.87900  0.33200  Biso   1.000  H
  H42      1.0000 0.47400  0.37900  0.16800  Biso   1.000  H
  H43      1.0000 0.02600  0.62100  0.66800  Biso   1.000  H
  H44      1.0000 0.97400  0.12100  0.83200  Biso   1.000  H
