data_image0
_cell_length_a       11.24
_cell_length_b       11.24
_cell_length_c       17.84
_cell_angle_alpha    90
_cell_angle_beta     90
_cell_angle_gamma    90

_symmetry_space_group_name_H-M    "P 1"
_symmetry_int_tables_number       1

loop_
  _symmetry_equiv_pos_as_xyz
  'x, y, z'

loop_
  _atom_site_label
  _atom_site_occupancy
  _atom_site_fract_x
  _atom_site_fract_y
  _atom_site_fract_z
  _atom_site_thermal_displace_type
  _atom_site_B_iso_or_equiv
  _atom_site_type_symbol
  Cu1      1.0000 0.98950  0.28270  0.16830  Biso   1.000  Cu
  Cu2      1.0000 0.21730  0.48950  0.91830  Biso   1.000  Cu
  Cu3      1.0000 0.48950  0.21730  0.08170  Biso   1.000  Cu
  Cu4      1.0000 0.01050  0.71730  0.66830  Biso   1.000  Cu
  Cu5      1.0000 0.28270  0.98950  0.83170  Biso   1.000  Cu
  Cu6      1.0000 0.78270  0.51050  0.41830  Biso   1.000  Cu
  Cu7      1.0000 0.51050  0.78270  0.58170  Biso   1.000  Cu
  Cu8      1.0000 0.71730  0.01050  0.33170  Biso   1.000  Cu
  C1       1.0000 0.08390  0.52100  0.18440  Biso   1.000  C
  C2       1.0000 0.97900  0.58390  0.93440  Biso   1.000  C
  C3       1.0000 0.58390  0.97900  0.06560  Biso   1.000  C
  C4       1.0000 0.91610  0.47900  0.68440  Biso   1.000  C
  C5       1.0000 0.52100  0.08390  0.81560  Biso   1.000  C
  C6       1.0000 0.02100  0.41610  0.43440  Biso   1.000  C
  C7       1.0000 0.41610  0.02100  0.56560  Biso   1.000  C
  C8       1.0000 0.47900  0.91610  0.31560  Biso   1.000  C
  C9       1.0000 0.16920  0.43570  0.22210  Biso   1.000  C
  C10      1.0000 0.06430  0.66920  0.97210  Biso   1.000  C
  C11      1.0000 0.66920  0.06430  0.02790  Biso   1.000  C
  C12      1.0000 0.83080  0.56430  0.72210  Biso   1.000  C
  C13      1.0000 0.43570  0.16920  0.77790  Biso   1.000  C
  C14      1.0000 0.93570  0.33080  0.47210  Biso   1.000  C
  C15      1.0000 0.33080  0.93570  0.52790  Biso   1.000  C
  C16      1.0000 0.56430  0.83080  0.27790  Biso   1.000  C
  C17      1.0000 0.22690  0.23860  0.25380  Biso   1.000  C
  C18      1.0000 0.26140  0.72690  0.00380  Biso   1.000  C
  C19      1.0000 0.72690  0.26140  0.99620  Biso   1.000  C
  C20      1.0000 0.77310  0.76140  0.75380  Biso   1.000  C
  C21      1.0000 0.23860  0.22690  0.74620  Biso   1.000  C
  C22      1.0000 0.73860  0.27310  0.50380  Biso   1.000  C
  C23      1.0000 0.27310  0.73860  0.49620  Biso   1.000  C
  C24      1.0000 0.76140  0.77310  0.24620  Biso   1.000  C
  C25      1.0000 0.33940  0.22080  0.20750  Biso   1.000  C
  C26      1.0000 0.27920  0.83940  0.95750  Biso   1.000  C
  C27      1.0000 0.83940  0.27920  0.04250  Biso   1.000  C
  C28      1.0000 0.66060  0.77920  0.70750  Biso   1.000  C
  C29      1.0000 0.22080  0.33940  0.79250  Biso   1.000  C
  C30      1.0000 0.72080  0.16060  0.45750  Biso   1.000  C
  C31      1.0000 0.16060  0.72080  0.54250  Biso   1.000  C
  C32      1.0000 0.77920  0.66060  0.29250  Biso   1.000  C
  C33      1.0000 0.16930  0.11840  0.26900  Biso   1.000  C
  C34      1.0000 0.38160  0.66930  0.01900  Biso   1.000  C
  C35      1.0000 0.66930  0.38160  0.98100  Biso   1.000  C
  C36      1.0000 0.83070  0.88160  0.76900  Biso   1.000  C
  C37      1.0000 0.11840  0.16930  0.73100  Biso   1.000  C
  C38      1.0000 0.61840  0.33070  0.51900  Biso   1.000  C
  C39      1.0000 0.33070  0.61840  0.48100  Biso   1.000  C
  C40      1.0000 0.88160  0.83070  0.23100  Biso   1.000  C
  C41      1.0000 0.11950  0.06130  0.19910  Biso   1.000  C
  C42      1.0000 0.43870  0.61950  0.94910  Biso   1.000  C
  C43      1.0000 0.61950  0.43870  0.05090  Biso   1.000  C
  C44      1.0000 0.88050  0.93870  0.69910  Biso   1.000  C
  C45      1.0000 0.06130  0.11950  0.80090  Biso   1.000  C
  C46      1.0000 0.56130  0.38050  0.44910  Biso   1.000  C
  C47      1.0000 0.38050  0.56130  0.55090  Biso   1.000  C
  C48      1.0000 0.93870  0.88050  0.30090  Biso   1.000  C
  C49      1.0000 0.00290  0.04100  0.09970  Biso   1.000  C
  C50      1.0000 0.45900  0.50290  0.84970  Biso   1.000  C
  C51      1.0000 0.50290  0.45900  0.15030  Biso   1.000  C
  C52      1.0000 0.99710  0.95900  0.59970  Biso   1.000  C
  C53      1.0000 0.04100  0.00290  0.90030  Biso   1.000  C
  C54      1.0000 0.54100  0.49710  0.34970  Biso   1.000  C
  C55      1.0000 0.49710  0.54100  0.65030  Biso   1.000  C
  C56      1.0000 0.95900  0.99710  0.40030  Biso   1.000  C
  C57      1.0000 0.14820  0.95520  0.16490  Biso   1.000  C
  C58      1.0000 0.54480  0.64820  0.91490  Biso   1.000  C
  C59      1.0000 0.64820  0.54480  0.08510  Biso   1.000  C
  C60      1.0000 0.85180  0.04480  0.66490  Biso   1.000  C
  C61      1.0000 0.95520  0.14820  0.83510  Biso   1.000  C
  C62      1.0000 0.45520  0.35180  0.41490  Biso   1.000  C
  C63      1.0000 0.35180  0.45520  0.58510  Biso   1.000  C
  C64      1.0000 0.04480  0.85180  0.33510  Biso   1.000  C
  N1       1.0000 0.98050  0.46240  0.15230  Biso   1.000  N
  N2       1.0000 0.03760  0.48050  0.90230  Biso   1.000  N
  N3       1.0000 0.48050  0.03760  0.09770  Biso   1.000  N
  N4       1.0000 0.01950  0.53760  0.65230  Biso   1.000  N
  N5       1.0000 0.46240  0.98050  0.84770  Biso   1.000  N
  N6       1.0000 0.96240  0.51950  0.40230  Biso   1.000  N
  N7       1.0000 0.51950  0.96240  0.59770  Biso   1.000  N
  N8       1.0000 0.53760  0.01950  0.34770  Biso   1.000  N
  N9       1.0000 0.14260  0.32230  0.21850  Biso   1.000  N
  N10      1.0000 0.17770  0.64260  0.96850  Biso   1.000  N
  N11      1.0000 0.64260  0.17770  0.03150  Biso   1.000  N
  N12      1.0000 0.85740  0.67770  0.71850  Biso   1.000  N
  N13      1.0000 0.32230  0.14260  0.78150  Biso   1.000  N
  N14      1.0000 0.82230  0.35740  0.46850  Biso   1.000  N
  N15      1.0000 0.35740  0.82230  0.53150  Biso   1.000  N
  N16      1.0000 0.67770  0.85740  0.28150  Biso   1.000  N
  N17      1.0000 0.03200  0.11270  0.15820  Biso   1.000  N
  N18      1.0000 0.38730  0.53200  0.90820  Biso   1.000  N
  N19      1.0000 0.53200  0.38730  0.09180  Biso   1.000  N
  N20      1.0000 0.96800  0.88730  0.65820  Biso   1.000  N
  N21      1.0000 0.11270  0.03200  0.84180  Biso   1.000  N
  N22      1.0000 0.61270  0.46800  0.40820  Biso   1.000  N
  N23      1.0000 0.46800  0.61270  0.59180  Biso   1.000  N
  N24      1.0000 0.88730  0.96800  0.34180  Biso   1.000  N
  N25      1.0000 0.07450  0.94220  0.10400  Biso   1.000  N
  N26      1.0000 0.55780  0.57450  0.85400  Biso   1.000  N
  N27      1.0000 0.57450  0.55780  0.14600  Biso   1.000  N
  N28      1.0000 0.92550  0.05780  0.60400  Biso   1.000  N
  N29      1.0000 0.94220  0.07450  0.89600  Biso   1.000  N
  N30      1.0000 0.44220  0.42550  0.35400  Biso   1.000  N
  N31      1.0000 0.42550  0.44220  0.64600  Biso   1.000  N
  N32      1.0000 0.05780  0.92550  0.39600  Biso   1.000  N
  O1       1.0000 0.26080  0.47840  0.25350  Biso   1.000  O
  O2       1.0000 0.02160  0.76080  0.00350  Biso   1.000  O
  O3       1.0000 0.76080  0.02160  0.99650  Biso   1.000  O
  O4       1.0000 0.73920  0.52160  0.75350  Biso   1.000  O
  O5       1.0000 0.47840  0.26080  0.74650  Biso   1.000  O
  O6       1.0000 0.97840  0.23920  0.50350  Biso   1.000  O
  O7       1.0000 0.23920  0.97840  0.49650  Biso   1.000  O
  O8       1.0000 0.52160  0.73920  0.24650  Biso   1.000  O
  O9       1.0000 0.43000  0.18270  0.24090  Biso   1.000  O
  O10      1.0000 0.31730  0.93000  0.99090  Biso   1.000  O
  O11      1.0000 0.93000  0.31730  0.00910  Biso   1.000  O
  O12      1.0000 0.57000  0.81730  0.74090  Biso   1.000  O
  O13      1.0000 0.18270  0.43000  0.75910  Biso   1.000  O
  O14      1.0000 0.68270  0.07000  0.49090  Biso   1.000  O
  O15      1.0000 0.07000  0.68270  0.50910  Biso   1.000  O
  O16      1.0000 0.81730  0.57000  0.25910  Biso   1.000  O
  O17      1.0000 0.33720  0.24690  0.13750  Biso   1.000  O
  O18      1.0000 0.25310  0.83720  0.88750  Biso   1.000  O
  O19      1.0000 0.83720  0.25310  0.11250  Biso   1.000  O
  O20      1.0000 0.66280  0.75310  0.63750  Biso   1.000  O
  O21      1.0000 0.24690  0.33720  0.86250  Biso   1.000  O
  O22      1.0000 0.74690  0.16280  0.38750  Biso   1.000  O
  O23      1.0000 0.16280  0.74690  0.61250  Biso   1.000  O
  O24      1.0000 0.75310  0.66280  0.36250  Biso   1.000  O
  O25      1.0000 0.86840  0.31760  0.28090  Biso   1.000  O
  O26      1.0000 0.18240  0.36840  0.03090  Biso   1.000  O
  O27      1.0000 0.36840  0.18240  0.96910  Biso   1.000  O
  O28      1.0000 0.13160  0.68240  0.78090  Biso   1.000  O
  O29      1.0000 0.31760  0.86840  0.71910  Biso   1.000  O
  O30      1.0000 0.81760  0.63160  0.53090  Biso   1.000  O
  O31      1.0000 0.63160  0.81760  0.46910  Biso   1.000  O
  O32      1.0000 0.68240  0.13160  0.21910  Biso   1.000  O
  O33      1.0000 0.27900  0.72100  0.25000  Biso   1.000  O
  O34      1.0000 0.77900  0.77900  0.00000  Biso   1.000  O
  O35      1.0000 0.72100  0.27900  0.75000  Biso   1.000  O
  O36      1.0000 0.22100  0.22100  0.50000  Biso   1.000  O
