data_image0
_cell_length_a       20.758
_cell_length_b       23.37
_cell_length_c       11.345
_cell_angle_alpha    90
_cell_angle_beta     90
_cell_angle_gamma    90

_symmetry_space_group_name_H-M    "P 1"
_symmetry_int_tables_number       1

loop_
  _symmetry_equiv_pos_as_xyz
  'x, y, z'

loop_
  _atom_site_label
  _atom_site_occupancy
  _atom_site_fract_x
  _atom_site_fract_y
  _atom_site_fract_z
  _atom_site_thermal_displace_type
  _atom_site_B_iso_or_equiv
  _atom_site_type_symbol
  Cu1      1.0000 0.79960  0.62780  0.31600  Biso   1.000  Cu
  Cu2      1.0000 0.29960  0.87220  0.68400  Biso   1.000  Cu
  Cu3      1.0000 0.70040  0.12780  0.68400  Biso   1.000  Cu
  Cu4      1.0000 0.20040  0.37220  0.31600  Biso   1.000  Cu
  P1       1.0000 0.73120  0.76940  0.68550  Biso   1.000  P
  P2       1.0000 0.23120  0.73060  0.31450  Biso   1.000  P
  P3       1.0000 0.76880  0.26940  0.31450  Biso   1.000  P
  P4       1.0000 0.26880  0.23060  0.68550  Biso   1.000  P
  O1       1.0000 0.72660  0.62180  0.20490  Biso   1.000  O
  O2       1.0000 0.22660  0.87820  0.79510  Biso   1.000  O
  O3       1.0000 0.77340  0.12180  0.79510  Biso   1.000  O
  O4       1.0000 0.27340  0.37820  0.20490  Biso   1.000  O
  O5       1.0000 0.83840  0.57140  0.21030  Biso   1.000  O
  O6       1.0000 0.33840  0.92860  0.78970  Biso   1.000  O
  O7       1.0000 0.66160  0.07140  0.78970  Biso   1.000  O
  O8       1.0000 0.16160  0.42860  0.21030  Biso   1.000  O
  O9       1.0000 0.76060  0.69890  0.38740  Biso   1.000  O
  O10      1.0000 0.26060  0.80110  0.61260  Biso   1.000  O
  O11      1.0000 0.73940  0.19890  0.61260  Biso   1.000  O
  O12      1.0000 0.23940  0.30110  0.38740  Biso   1.000  O
  O13      1.0000 0.67810  0.81200  0.65030  Biso   1.000  O
  O14      1.0000 0.17810  0.68800  0.34970  Biso   1.000  O
  O15      1.0000 0.82190  0.31200  0.34970  Biso   1.000  O
  O16      1.0000 0.32190  0.18800  0.65030  Biso   1.000  O
  O17      1.0000 0.78120  0.76100  0.59360  Biso   1.000  O
  O18      1.0000 0.28120  0.73900  0.40640  Biso   1.000  O
  O19      1.0000 0.71880  0.26100  0.40640  Biso   1.000  O
  O20      1.0000 0.21880  0.23900  0.59360  Biso   1.000  O
  O21      1.0000 0.75780  0.78480  0.79960  Biso   1.000  O
  O22      1.0000 0.25780  0.71520  0.20040  Biso   1.000  O
  O23      1.0000 0.74220  0.28480  0.20040  Biso   1.000  O
  O24      1.0000 0.24220  0.21520  0.79960  Biso   1.000  O
  O25      1.0000 0.66670  0.59590  0.76610  Biso   1.000  O
  O26      1.0000 0.16670  0.90410  0.23390  Biso   1.000  O
  O27      1.0000 0.83330  0.09590  0.23390  Biso   1.000  O
  O28      1.0000 0.33330  0.40410  0.76610  Biso   1.000  O
  O29      1.0000 0.74260  0.54220  0.97250  Biso   1.000  O
  O30      1.0000 0.24260  0.95780  0.02750  Biso   1.000  O
  O31      1.0000 0.75740  0.04220  0.02750  Biso   1.000  O
  O32      1.0000 0.25740  0.45780  0.97250  Biso   1.000  O
  O33      1.0000 0.76830  0.65500  0.98710  Biso   1.000  O
  O34      1.0000 0.26830  0.84500  0.01290  Biso   1.000  O
  O35      1.0000 0.73170  0.15500  0.01290  Biso   1.000  O
  O36      1.0000 0.23170  0.34500  0.98710  Biso   1.000  O
  O37      1.0000 0.69600  0.70750  0.69790  Biso   1.000  O
  O38      1.0000 0.19600  0.79250  0.30210  Biso   1.000  O
  O39      1.0000 0.80400  0.20750  0.30210  Biso   1.000  O
  O40      1.0000 0.30400  0.29250  0.69790  Biso   1.000  O
  O41      1.0000 0.78070  0.47090  0.28280  Biso   1.000  O
  O42      1.0000 0.28070  0.02910  0.71720  Biso   1.000  O
  O43      1.0000 0.71930  0.97090  0.71720  Biso   1.000  O
  O44      1.0000 0.21930  0.52910  0.28280  Biso   1.000  O
  N1       1.0000 0.75640  0.41410  0.43260  Biso   1.000  N
  N2       1.0000 0.25640  0.08590  0.56740  Biso   1.000  N
  N3       1.0000 0.74360  0.91410  0.56740  Biso   1.000  N
  N4       1.0000 0.24360  0.58590  0.43260  Biso   1.000  N
  N5       1.0000 0.73390  0.34670  0.57870  Biso   1.000  N
  N6       1.0000 0.23390  0.15330  0.42130  Biso   1.000  N
  N7       1.0000 0.76610  0.84670  0.42130  Biso   1.000  N
  N8       1.0000 0.26610  0.65330  0.57870  Biso   1.000  N
  N9       1.0000 0.73030  0.44540  0.63490  Biso   1.000  N
  N10      1.0000 0.23030  0.05460  0.36510  Biso   1.000  N
  N11      1.0000 0.76970  0.94540  0.36510  Biso   1.000  N
  N12      1.0000 0.26970  0.55460  0.63490  Biso   1.000  N
  N13      1.0000 0.76810  0.57140  0.46000  Biso   1.000  N
  N14      1.0000 0.26810  0.92860  0.54000  Biso   1.000  N
  N15      1.0000 0.73190  0.07140  0.54000  Biso   1.000  N
  N16      1.0000 0.23190  0.42860  0.46000  Biso   1.000  N
  N17      1.0000 0.73840  0.54730  0.65200  Biso   1.000  N
  N18      1.0000 0.23840  0.95270  0.34800  Biso   1.000  N
  N19      1.0000 0.76160  0.04730  0.34800  Biso   1.000  N
  N20      1.0000 0.26160  0.45270  0.65200  Biso   1.000  N
  C1       1.0000 0.71570  0.55410  0.77470  Biso   1.000  C
  C2       1.0000 0.21570  0.94590  0.22530  Biso   1.000  C
  C3       1.0000 0.78430  0.05410  0.22530  Biso   1.000  C
  C4       1.0000 0.28430  0.44590  0.77470  Biso   1.000  C
  C5       1.0000 0.76130  0.56820  0.86180  Biso   1.000  C
  C6       1.0000 0.26130  0.93180  0.13820  Biso   1.000  C
  C7       1.0000 0.73870  0.06820  0.13820  Biso   1.000  C
  C8       1.0000 0.23870  0.43180  0.86180  Biso   1.000  C
  C9       1.0000 0.75230  0.63360  0.87450  Biso   1.000  C
  C10      1.0000 0.25230  0.86640  0.12550  Biso   1.000  C
  C11      1.0000 0.74770  0.13360  0.12550  Biso   1.000  C
  C12      1.0000 0.24770  0.36640  0.87450  Biso   1.000  C
  C13      1.0000 0.68090  0.63960  0.86220  Biso   1.000  C
  C14      1.0000 0.18090  0.86040  0.13780  Biso   1.000  C
  C15      1.0000 0.81910  0.13960  0.13780  Biso   1.000  C
  C16      1.0000 0.31910  0.36040  0.86220  Biso   1.000  C
  C17      1.0000 0.66210  0.69580  0.80090  Biso   1.000  C
  C18      1.0000 0.16210  0.80420  0.19910  Biso   1.000  C
  C19      1.0000 0.83790  0.19580  0.19910  Biso   1.000  C
  C20      1.0000 0.33790  0.30420  0.80090  Biso   1.000  C
  C21      1.0000 0.73950  0.40250  0.54830  Biso   1.000  C
  C22      1.0000 0.23950  0.09750  0.45170  Biso   1.000  C
  C23      1.0000 0.76050  0.90250  0.45170  Biso   1.000  C
  C24      1.0000 0.26050  0.59750  0.54830  Biso   1.000  C
  C25      1.0000 0.74420  0.49690  0.58390  Biso   1.000  C
  C26      1.0000 0.24420  0.00310  0.41610  Biso   1.000  C
  C27      1.0000 0.75580  0.99690  0.41610  Biso   1.000  C
  C28      1.0000 0.25580  0.50310  0.58390  Biso   1.000  C
  C29      1.0000 0.75580  0.50840  0.47040  Biso   1.000  C
  C30      1.0000 0.25580  0.99160  0.52960  Biso   1.000  C
  C31      1.0000 0.74420  0.00840  0.52960  Biso   1.000  C
  C32      1.0000 0.24420  0.49160  0.47040  Biso   1.000  C
  C33      1.0000 0.76930  0.46810  0.39070  Biso   1.000  C
  C34      1.0000 0.26930  0.03190  0.60930  Biso   1.000  C
  C35      1.0000 0.73070  0.96810  0.60930  Biso   1.000  C
  C36      1.0000 0.23070  0.53190  0.39070  Biso   1.000  C
  C37      1.0000 0.75410  0.59190  0.56570  Biso   1.000  C
  C38      1.0000 0.25410  0.90810  0.43430  Biso   1.000  C
  C39      1.0000 0.74590  0.09190  0.43430  Biso   1.000  C
  C40      1.0000 0.24590  0.40810  0.56570  Biso   1.000  C
  Cu5      1.0000 0.08810  0.67340  0.34940  Biso   1.000  Cu
  Cu6      1.0000 0.58810  0.82660  0.65060  Biso   1.000  Cu
  Cu7      1.0000 0.41190  0.17340  0.65060  Biso   1.000  Cu
  Cu8      1.0000 0.91190  0.32660  0.34940  Biso   1.000  Cu
  P5       1.0000 0.09350  0.80260  0.71420  Biso   1.000  P
  P6       1.0000 0.59350  0.69740  0.28580  Biso   1.000  P
  P7       1.0000 0.40650  0.30260  0.28580  Biso   1.000  P
  P8       1.0000 0.90650  0.19740  0.71420  Biso   1.000  P
  O45      1.0000 0.09920  0.61170  0.23020  Biso   1.000  O
  O46      1.0000 0.59920  0.88830  0.76980  Biso   1.000  O
  O47      1.0000 0.40080  0.11170  0.76980  Biso   1.000  O
  O48      1.0000 0.90080  0.38830  0.23020  Biso   1.000  O
  O49      1.0000 0.06910  0.74490  0.44190  Biso   1.000  O
  O50      1.0000 0.56910  0.75510  0.55810  Biso   1.000  O
  O51      1.0000 0.43090  0.24490  0.55810  Biso   1.000  O
  O52      1.0000 0.93090  0.25510  0.44190  Biso   1.000  O
  O53      1.0000 0.02270  0.78870  0.68710  Biso   1.000  O
  O54      1.0000 0.52270  0.71130  0.31290  Biso   1.000  O
  O55      1.0000 0.47730  0.28870  0.31290  Biso   1.000  O
  O56      1.0000 0.97730  0.21130  0.68710  Biso   1.000  O
  O57      1.0000 0.13280  0.79440  0.60800  Biso   1.000  O
  O58      1.0000 0.63280  0.70560  0.39200  Biso   1.000  O
  O59      1.0000 0.36720  0.29440  0.39200  Biso   1.000  O
  O60      1.0000 0.86720  0.20560  0.60800  Biso   1.000  O
  O61      1.0000 0.10470  0.86130  0.77260  Biso   1.000  O
  O62      1.0000 0.60470  0.63870  0.22740  Biso   1.000  O
  O63      1.0000 0.39530  0.36130  0.22740  Biso   1.000  O
  O64      1.0000 0.89530  0.13870  0.77260  Biso   1.000  O
  O65      1.0000 0.07340  0.64390  0.87860  Biso   1.000  O
  O66      1.0000 0.57340  0.85610  0.12140  Biso   1.000  O
  O67      1.0000 0.42660  0.14390  0.12140  Biso   1.000  O
  O68      1.0000 0.92660  0.35610  0.87860  Biso   1.000  O
  O69      1.0000 0.23590  0.59900  0.85840  Biso   1.000  O
  O70      1.0000 0.73590  0.90100  0.14160  Biso   1.000  O
  O71      1.0000 0.26410  0.09900  0.14160  Biso   1.000  O
  O72      1.0000 0.76410  0.40100  0.85840  Biso   1.000  O
  O73      1.0000 0.18870  0.64080  0.06410  Biso   1.000  O
  O74      1.0000 0.68870  0.85920  0.93590  Biso   1.000  O
  O75      1.0000 0.31130  0.14080  0.93590  Biso   1.000  O
  O76      1.0000 0.81130  0.35920  0.06410  Biso   1.000  O
  O77      1.0000 0.12080  0.75350  0.80200  Biso   1.000  O
  O78      1.0000 0.62080  0.74650  0.19800  Biso   1.000  O
  O79      1.0000 0.37920  0.25350  0.19800  Biso   1.000  O
  O80      1.0000 0.87920  0.24650  0.80200  Biso   1.000  O
  O81      1.0000 0.07340  0.51280  0.34280  Biso   1.000  O
  O82      1.0000 0.57340  0.98720  0.65720  Biso   1.000  O
  O83      1.0000 0.42660  0.01280  0.65720  Biso   1.000  O
  O84      1.0000 0.92660  0.48720  0.34280  Biso   1.000  O
  N21      1.0000 0.07950  0.46050  0.51410  Biso   1.000  N
  N22      1.0000 0.57950  0.03950  0.48590  Biso   1.000  N
  N23      1.0000 0.42050  0.96050  0.48590  Biso   1.000  N
  N24      1.0000 0.92050  0.53950  0.51410  Biso   1.000  N
  N25      1.0000 0.08190  0.39670  0.67050  Biso   1.000  N
  N26      1.0000 0.58190  0.10330  0.32950  Biso   1.000  N
  N27      1.0000 0.41810  0.89670  0.32950  Biso   1.000  N
  N28      1.0000 0.91810  0.60330  0.67050  Biso   1.000  N
  N29      1.0000 0.09170  0.49430  0.70540  Biso   1.000  N
  N30      1.0000 0.59170  0.00570  0.29460  Biso   1.000  N
  N31      1.0000 0.40830  0.99430  0.29460  Biso   1.000  N
  N32      1.0000 0.90830  0.50570  0.70540  Biso   1.000  N
  N33      1.0000 0.09280  0.61710  0.51440  Biso   1.000  N
  N34      1.0000 0.59280  0.88290  0.48560  Biso   1.000  N
  N35      1.0000 0.40720  0.11710  0.48560  Biso   1.000  N
  N36      1.0000 0.90720  0.38290  0.51440  Biso   1.000  N
  N37      1.0000 0.10540  0.59650  0.71010  Biso   1.000  N
  N38      1.0000 0.60540  0.90350  0.28990  Biso   1.000  N
  N39      1.0000 0.39460  0.09650  0.28990  Biso   1.000  N
  N40      1.0000 0.89460  0.40350  0.71010  Biso   1.000  N
  C41      1.0000 0.11930  0.60500  0.83120  Biso   1.000  C
  C42      1.0000 0.61930  0.89500  0.16880  Biso   1.000  C
  C43      1.0000 0.38070  0.10500  0.16880  Biso   1.000  C
  C44      1.0000 0.88070  0.39500  0.83120  Biso   1.000  C
  C45      1.0000 0.18920  0.63690  0.85070  Biso   1.000  C
  C46      1.0000 0.68920  0.86310  0.14930  Biso   1.000  C
  C47      1.0000 0.31080  0.13690  0.14930  Biso   1.000  C
  C48      1.0000 0.81080  0.36310  0.85070  Biso   1.000  C
  C49      1.0000 0.17370  0.67060  0.96050  Biso   1.000  C
  C50      1.0000 0.67370  0.82940  0.03950  Biso   1.000  C
  C51      1.0000 0.32630  0.17060  0.03950  Biso   1.000  C
  C52      1.0000 0.82630  0.32940  0.96050  Biso   1.000  C
  C53      1.0000 0.10510  0.68330  0.95160  Biso   1.000  C
  C54      1.0000 0.60510  0.81670  0.04840  Biso   1.000  C
  C55      1.0000 0.39490  0.18330  0.04840  Biso   1.000  C
  C56      1.0000 0.89490  0.31670  0.95160  Biso   1.000  C
  C57      1.0000 0.09080  0.74420  0.90830  Biso   1.000  C
  C58      1.0000 0.59080  0.75580  0.09170  Biso   1.000  C
  C59      1.0000 0.40920  0.24420  0.09170  Biso   1.000  C
  C60      1.0000 0.90920  0.25580  0.90830  Biso   1.000  C
  C61      1.0000 0.08320  0.45010  0.62280  Biso   1.000  C
  C62      1.0000 0.58320  0.04990  0.37720  Biso   1.000  C
  C63      1.0000 0.41680  0.95010  0.37720  Biso   1.000  C
  C64      1.0000 0.91680  0.54990  0.62280  Biso   1.000  C
  C65      1.0000 0.09730  0.54550  0.65000  Biso   1.000  C
  C66      1.0000 0.59730  0.95450  0.35000  Biso   1.000  C
  C67      1.0000 0.40270  0.04550  0.35000  Biso   1.000  C
  C68      1.0000 0.90270  0.45450  0.65000  Biso   1.000  C
  C69      1.0000 0.08780  0.55840  0.53390  Biso   1.000  C
  C70      1.0000 0.58780  0.94160  0.46610  Biso   1.000  C
  C71      1.0000 0.41220  0.05840  0.46610  Biso   1.000  C
  C72      1.0000 0.91220  0.44160  0.53390  Biso   1.000  C
  C73      1.0000 0.07880  0.51130  0.45490  Biso   1.000  C
  C74      1.0000 0.57880  0.98870  0.54510  Biso   1.000  C
  C75      1.0000 0.42120  0.01130  0.54510  Biso   1.000  C
  C76      1.0000 0.92120  0.48870  0.45490  Biso   1.000  C
  C77      1.0000 0.10350  0.63480  0.62070  Biso   1.000  C
  C78      1.0000 0.60350  0.86520  0.37930  Biso   1.000  C
  C79      1.0000 0.39650  0.13480  0.37930  Biso   1.000  C
  C80      1.0000 0.89650  0.36520  0.62070  Biso   1.000  C
  Cu9      1.0000 0.94370  0.82510  0.74210  Biso   1.000  Cu
  Cu10     1.0000 0.44370  0.67490  0.25790  Biso   1.000  Cu
  Cu11     1.0000 0.55630  0.32510  0.25790  Biso   1.000  Cu
  Cu12     1.0000 0.05630  0.17490  0.74210  Biso   1.000  Cu
  P9       1.0000 0.93950  0.68710  0.38610  Biso   1.000  P
  P10      1.0000 0.43950  0.81290  0.61390  Biso   1.000  P
  P11      1.0000 0.56050  0.18710  0.61390  Biso   1.000  P
  P12      1.0000 0.06050  0.31290  0.38610  Biso   1.000  P
  O85      1.0000 0.86510  0.84460  0.82820  Biso   1.000  O
  O86      1.0000 0.36510  0.65540  0.17180  Biso   1.000  O
  O87      1.0000 0.63490  0.34460  0.17180  Biso   1.000  O
  O88      1.0000 0.13490  0.15540  0.82820  Biso   1.000  O
  O89      1.0000 0.98640  0.88120  0.84750  Biso   1.000  O
  O90      1.0000 0.48640  0.61880  0.15250  Biso   1.000  O
  O91      1.0000 0.51360  0.38120  0.15250  Biso   1.000  O
  O92      1.0000 0.01360  0.11880  0.84750  Biso   1.000  O
  O93      1.0000 0.90010  0.75770  0.68320  Biso   1.000  O
  O94      1.0000 0.40010  0.74230  0.31680  Biso   1.000  O
  O95      1.0000 0.59990  0.25770  0.31680  Biso   1.000  O
  O96      1.0000 0.09990  0.24230  0.68320  Biso   1.000  O
  O97      1.0000 0.88340  0.64170  0.37960  Biso   1.000  O
  O98      1.0000 0.38340  0.85830  0.62040  Biso   1.000  O
  O99      1.0000 0.61660  0.14170  0.62040  Biso   1.000  O
  O100     1.0000 0.11660  0.35830  0.37960  Biso   1.000  O
  O101     1.0000 0.95780  0.69980  0.50960  Biso   1.000  O
  O102     1.0000 0.45780  0.80020  0.49040  Biso   1.000  O
  O103     1.0000 0.54220  0.19980  0.49040  Biso   1.000  O
  O104     1.0000 0.04220  0.30020  0.50960  Biso   1.000  O
  O105     1.0000 0.99470  0.66840  0.30680  Biso   1.000  O
  O106     1.0000 0.49470  0.83160  0.69320  Biso   1.000  O
  O107     1.0000 0.50530  0.16840  0.69320  Biso   1.000  O
  O108     1.0000 0.00530  0.33160  0.30680  Biso   1.000  O
  O109     1.0000 0.87430  0.85330  0.25310  Biso   1.000  O
  O110     1.0000 0.37430  0.64670  0.74690  Biso   1.000  O
  O111     1.0000 0.62570  0.35330  0.74690  Biso   1.000  O
  O112     1.0000 0.12570  0.14670  0.25310  Biso   1.000  O
  O113     1.0000 0.97130  0.92570  0.09800  Biso   1.000  O
  O114     1.0000 0.47130  0.57430  0.90200  Biso   1.000  O
  O115     1.0000 0.52870  0.42570  0.90200  Biso   1.000  O
  O116     1.0000 0.02870  0.07430  0.09800  Biso   1.000  O
  O117     1.0000 0.01540  0.81900  0.08720  Biso   1.000  O
  O118     1.0000 0.51540  0.68100  0.91280  Biso   1.000  O
  O119     1.0000 0.48460  0.31900  0.91280  Biso   1.000  O
  O120     1.0000 0.98460  0.18100  0.08720  Biso   1.000  O
  O121     1.0000 0.91060  0.74680  0.33830  Biso   1.000  O
  O122     1.0000 0.41060  0.75320  0.66170  Biso   1.000  O
  O123     1.0000 0.58940  0.24680  0.66170  Biso   1.000  O
  O124     1.0000 0.08940  0.25320  0.33830  Biso   1.000  O
  O125     1.0000 0.92680  0.98150  0.77880  Biso   1.000  O
  O126     1.0000 0.42680  0.51850  0.22120  Biso   1.000  O
  O127     1.0000 0.57320  0.48150  0.22120  Biso   1.000  O
  O128     1.0000 0.07320  0.01850  0.77880  Biso   1.000  O
  N41      1.0000 0.90930  0.04110  0.62070  Biso   1.000  N
  N42      1.0000 0.40930  0.45890  0.37930  Biso   1.000  N
  N43      1.0000 0.59070  0.54110  0.37930  Biso   1.000  N
  N44      1.0000 0.09070  0.95890  0.62070  Biso   1.000  N
  N45      1.0000 0.89670  0.10720  0.46880  Biso   1.000  N
  N46      1.0000 0.39670  0.39280  0.53120  Biso   1.000  N
  N47      1.0000 0.60330  0.60720  0.53120  Biso   1.000  N
  N48      1.0000 0.10330  0.89280  0.46880  Biso   1.000  N
  N49      1.0000 0.91290  0.01260  0.41930  Biso   1.000  N
  N50      1.0000 0.41290  0.48740  0.58070  Biso   1.000  N
  N51      1.0000 0.58710  0.51260  0.58070  Biso   1.000  N
  N52      1.0000 0.08710  0.98740  0.41930  Biso   1.000  N
  N53      1.0000 0.93060  0.88300  0.59280  Biso   1.000  N
  N54      1.0000 0.43060  0.61700  0.40720  Biso   1.000  N
  N55      1.0000 0.56940  0.38300  0.40720  Biso   1.000  N
  N56      1.0000 0.06940  0.11700  0.59280  Biso   1.000  N
  N57      1.0000 0.92250  0.90840  0.40210  Biso   1.000  N
  N58      1.0000 0.42250  0.59160  0.59790  Biso   1.000  N
  N59      1.0000 0.57750  0.40840  0.59790  Biso   1.000  N
  N60      1.0000 0.07750  0.09160  0.40210  Biso   1.000  N
  C81      1.0000 0.91720  0.90360  0.27490  Biso   1.000  C
  C82      1.0000 0.41720  0.59640  0.72510  Biso   1.000  C
  C83      1.0000 0.58280  0.40360  0.72510  Biso   1.000  C
  C84      1.0000 0.08280  0.09640  0.27490  Biso   1.000  C
  C85      1.0000 0.97860  0.90020  0.20570  Biso   1.000  C
  C86      1.0000 0.47860  0.59980  0.79430  Biso   1.000  C
  C87      1.0000 0.52140  0.40020  0.79430  Biso   1.000  C
  C88      1.0000 0.02140  0.09980  0.20570  Biso   1.000  C
  C89      1.0000 0.97950  0.82940  0.19350  Biso   1.000  C
  C90      1.0000 0.47950  0.67060  0.80650  Biso   1.000  C
  C91      1.0000 0.52050  0.32940  0.80650  Biso   1.000  C
  C92      1.0000 0.02050  0.17060  0.19350  Biso   1.000  C
  C93      1.0000 0.91020  0.81530  0.17730  Biso   1.000  C
  C94      1.0000 0.41020  0.68470  0.82270  Biso   1.000  C
  C95      1.0000 0.58980  0.31530  0.82270  Biso   1.000  C
  C96      1.0000 0.08980  0.18470  0.17730  Biso   1.000  C
  C97      1.0000 0.89710  0.75190  0.21460  Biso   1.000  C
  C98      1.0000 0.39710  0.74810  0.78540  Biso   1.000  C
  C99      1.0000 0.60290  0.25190  0.78540  Biso   1.000  C
  C100     1.0000 0.10290  0.24810  0.21460  Biso   1.000  C
  C101     1.0000 0.90430  0.05170  0.50390  Biso   1.000  C
  C102     1.0000 0.40430  0.44830  0.49610  Biso   1.000  C
  C103     1.0000 0.59570  0.55170  0.49610  Biso   1.000  C
  C104     1.0000 0.09570  0.94830  0.50390  Biso   1.000  C
  C105     1.0000 0.91860  0.95900  0.46580  Biso   1.000  C
  C106     1.0000 0.41860  0.54100  0.53420  Biso   1.000  C
  C107     1.0000 0.58140  0.45900  0.53420  Biso   1.000  C
  C108     1.0000 0.08140  0.04100  0.46580  Biso   1.000  C
  C109     1.0000 0.92050  0.94290  0.58540  Biso   1.000  C
  C110     1.0000 0.42050  0.55710  0.41460  Biso   1.000  C
  C111     1.0000 0.57950  0.44290  0.41460  Biso   1.000  C
  C112     1.0000 0.07950  0.05710  0.58540  Biso   1.000  C
  C113     1.0000 0.92080  0.98460  0.67370  Biso   1.000  C
  C114     1.0000 0.42080  0.51540  0.32630  Biso   1.000  C
  C115     1.0000 0.57920  0.48460  0.32630  Biso   1.000  C
  C116     1.0000 0.07920  0.01540  0.67370  Biso   1.000  C
  C117     1.0000 0.93010  0.86580  0.48220  Biso   1.000  C
  C118     1.0000 0.43010  0.63420  0.51780  Biso   1.000  C
  C119     1.0000 0.56990  0.36580  0.51780  Biso   1.000  C
  C120     1.0000 0.06990  0.13420  0.48220  Biso   1.000  C
  H1       1.0000 0.75700  0.37300  0.40500  Biso   1.000  H
  H2       1.0000 0.25700  0.12700  0.59500  Biso   1.000  H
  H3       1.0000 0.74300  0.87300  0.59500  Biso   1.000  H
  H4       1.0000 0.24300  0.62700  0.40500  Biso   1.000  H
  H5       1.0000 0.70600  0.33600  0.62800  Biso   1.000  H
  H6       1.0000 0.20600  0.16400  0.37200  Biso   1.000  H
  H7       1.0000 0.79400  0.83600  0.37200  Biso   1.000  H
  H8       1.0000 0.29400  0.66400  0.62800  Biso   1.000  H
  H9       1.0000 0.73900  0.32900  0.50800  Biso   1.000  H
  H10      1.0000 0.23900  0.17100  0.49200  Biso   1.000  H
  H11      1.0000 0.76100  0.82900  0.49200  Biso   1.000  H
  H12      1.0000 0.26100  0.67100  0.50800  Biso   1.000  H
  H13      1.0000 0.77200  0.62700  0.59300  Biso   1.000  H
  H14      1.0000 0.27200  0.87300  0.40700  Biso   1.000  H
  H15      1.0000 0.72800  0.12700  0.40700  Biso   1.000  H
  H16      1.0000 0.22800  0.37300  0.59300  Biso   1.000  H
  H17      1.0000 0.69400  0.52700  0.73600  Biso   1.000  H
  H18      1.0000 0.19400  0.97300  0.26400  Biso   1.000  H
  H19      1.0000 0.80600  0.02700  0.26400  Biso   1.000  H
  H20      1.0000 0.30600  0.47300  0.73600  Biso   1.000  H
  H21      1.0000 0.80500  0.56700  0.84600  Biso   1.000  H
  H22      1.0000 0.30500  0.93300  0.15400  Biso   1.000  H
  H23      1.0000 0.69500  0.06700  0.15400  Biso   1.000  H
  H24      1.0000 0.19500  0.43300  0.84600  Biso   1.000  H
  H25      1.0000 0.79600  0.65700  0.80700  Biso   1.000  H
  H26      1.0000 0.29600  0.84300  0.19300  Biso   1.000  H
  H27      1.0000 0.70400  0.15700  0.19300  Biso   1.000  H
  H28      1.0000 0.20400  0.34300  0.80700  Biso   1.000  H
  H29      1.0000 0.67300  0.61400  0.93800  Biso   1.000  H
  H30      1.0000 0.17300  0.88600  0.06200  Biso   1.000  H
  H31      1.0000 0.82700  0.11400  0.06200  Biso   1.000  H
  H32      1.0000 0.32700  0.38600  0.93800  Biso   1.000  H
  H33      1.0000 0.61400  0.70100  0.79000  Biso   1.000  H
  H34      1.0000 0.11400  0.79900  0.21000  Biso   1.000  H
  H35      1.0000 0.88600  0.20100  0.21000  Biso   1.000  H
  H36      1.0000 0.38600  0.29900  0.79000  Biso   1.000  H
  H37      1.0000 0.67000  0.72100  0.88100  Biso   1.000  H
  H38      1.0000 0.17000  0.77900  0.11900  Biso   1.000  H
  H39      1.0000 0.83000  0.22100  0.11900  Biso   1.000  H
  H40      1.0000 0.33000  0.27900  0.88100  Biso   1.000  H
  H41      1.0000 0.72500  0.49500  0.97700  Biso   1.000  H
  H42      1.0000 0.22500  0.00500  0.02300  Biso   1.000  H
  H43      1.0000 0.77500  0.99500  0.02300  Biso   1.000  H
  H44      1.0000 0.27500  0.50500  0.97700  Biso   1.000  H
  H45      1.0000 0.81000  0.68100  0.98800  Biso   1.000  H
  H46      1.0000 0.31000  0.81900  0.01200  Biso   1.000  H
  H47      1.0000 0.69000  0.18100  0.01200  Biso   1.000  H
  H48      1.0000 0.19000  0.31900  0.98800  Biso   1.000  H
  H49      1.0000 0.08500  0.42300  0.46900  Biso   1.000  H
  H50      1.0000 0.58500  0.07700  0.53100  Biso   1.000  H
  H51      1.0000 0.41500  0.92300  0.53100  Biso   1.000  H
  H52      1.0000 0.91500  0.57700  0.46900  Biso   1.000  H
  H53      1.0000 0.11200  0.37200  0.60000  Biso   1.000  H
  H54      1.0000 0.61200  0.12800  0.40000  Biso   1.000  H
  H55      1.0000 0.38800  0.87200  0.40000  Biso   1.000  H
  H56      1.0000 0.88800  0.62800  0.60000  Biso   1.000  H
  H57      1.0000 0.12800  0.38600  0.74200  Biso   1.000  H
  H58      1.0000 0.62800  0.11400  0.25800  Biso   1.000  H
  H59      1.0000 0.37200  0.88600  0.25800  Biso   1.000  H
  H60      1.0000 0.87200  0.61400  0.74200  Biso   1.000  H
  H61      1.0000 0.13100  0.66300  0.63100  Biso   1.000  H
  H62      1.0000 0.63100  0.83700  0.36900  Biso   1.000  H
  H63      1.0000 0.36900  0.16300  0.36900  Biso   1.000  H
  H64      1.0000 0.86900  0.33700  0.63100  Biso   1.000  H
  H65      1.0000 0.20100  0.65000  0.78500  Biso   1.000  H
  H66      1.0000 0.70100  0.85000  0.21500  Biso   1.000  H
  H67      1.0000 0.29900  0.15000  0.21500  Biso   1.000  H
  H68      1.0000 0.79900  0.35000  0.78500  Biso   1.000  H
  H69      1.0000 0.21500  0.69400  0.90000  Biso   1.000  H
  H70      1.0000 0.71500  0.80600  0.10000  Biso   1.000  H
  H71      1.0000 0.28500  0.19400  0.10000  Biso   1.000  H
  H72      1.0000 0.78500  0.30600  0.90000  Biso   1.000  H
  H73      1.0000 0.07800  0.68200  0.02500  Biso   1.000  H
  H74      1.0000 0.57800  0.81800  0.97500  Biso   1.000  H
  H75      1.0000 0.42200  0.18200  0.97500  Biso   1.000  H
  H76      1.0000 0.92200  0.31800  0.02500  Biso   1.000  H
  H77      1.0000 0.11300  0.77200  0.97100  Biso   1.000  H
  H78      1.0000 0.61300  0.72800  0.02900  Biso   1.000  H
  H79      1.0000 0.38700  0.27200  0.02900  Biso   1.000  H
  H80      1.0000 0.88700  0.22800  0.97100  Biso   1.000  H
  H81      1.0000 0.04500  0.73300  0.91400  Biso   1.000  H
  H82      1.0000 0.54500  0.76700  0.08600  Biso   1.000  H
  H83      1.0000 0.45500  0.23300  0.08600  Biso   1.000  H
  H84      1.0000 0.95500  0.26700  0.91400  Biso   1.000  H
  H85      1.0000 0.23800  0.60000  0.75200  Biso   1.000  H
  H86      1.0000 0.73800  0.90000  0.24800  Biso   1.000  H
  H87      1.0000 0.26200  0.10000  0.24800  Biso   1.000  H
  H88      1.0000 0.76200  0.40000  0.75200  Biso   1.000  H
  H89      1.0000 0.21500  0.68200  0.07400  Biso   1.000  H
  H90      1.0000 0.71500  0.81800  0.92600  Biso   1.000  H
  H91      1.0000 0.28500  0.18200  0.92600  Biso   1.000  H
  H92      1.0000 0.78500  0.31800  0.07400  Biso   1.000  H
  H93      1.0000 0.88400  0.04300  0.68400  Biso   1.000  H
  H94      1.0000 0.38400  0.45700  0.31600  Biso   1.000  H
  H95      1.0000 0.61600  0.54300  0.31600  Biso   1.000  H
  H96      1.0000 0.11600  0.95700  0.68400  Biso   1.000  H
  H97      1.0000 0.87000  0.13100  0.53100  Biso   1.000  H
  H98      1.0000 0.37000  0.36900  0.46900  Biso   1.000  H
  H99      1.0000 0.63000  0.63100  0.46900  Biso   1.000  H
  H100     1.0000 0.13000  0.86900  0.53100  Biso   1.000  H
  H101     1.0000 0.87000  0.10000  0.38800  Biso   1.000  H
  H102     1.0000 0.37000  0.40000  0.61200  Biso   1.000  H
  H103     1.0000 0.63000  0.60000  0.61200  Biso   1.000  H
  H104     1.0000 0.13000  0.90000  0.38800  Biso   1.000  H
  H105     1.0000 0.96100  0.81900  0.50300  Biso   1.000  H
  H106     1.0000 0.46100  0.68100  0.49700  Biso   1.000  H
  H107     1.0000 0.53900  0.31900  0.49700  Biso   1.000  H
  H108     1.0000 0.03900  0.18100  0.50300  Biso   1.000  H
  H109     1.0000 0.89000  0.93300  0.24400  Biso   1.000  H
  H110     1.0000 0.39000  0.56700  0.75600  Biso   1.000  H
  H111     1.0000 0.61000  0.43300  0.75600  Biso   1.000  H
  H112     1.0000 0.11000  0.06700  0.24400  Biso   1.000  H
  H113     1.0000 0.01100  0.90000  0.27200  Biso   1.000  H
  H114     1.0000 0.51100  0.60000  0.72800  Biso   1.000  H
  H115     1.0000 0.48900  0.40000  0.72800  Biso   1.000  H
  H116     1.0000 0.98900  0.10000  0.27200  Biso   1.000  H
  H117     1.0000 0.01500  0.81200  0.27400  Biso   1.000  H
  H118     1.0000 0.51500  0.68800  0.72600  Biso   1.000  H
  H119     1.0000 0.48500  0.31200  0.72600  Biso   1.000  H
  H120     1.0000 0.98500  0.18800  0.27400  Biso   1.000  H
  H121     1.0000 0.91200  0.81200  0.09500  Biso   1.000  H
  H122     1.0000 0.41200  0.68800  0.90500  Biso   1.000  H
  H123     1.0000 0.58800  0.31200  0.90500  Biso   1.000  H
  H124     1.0000 0.08800  0.18800  0.09500  Biso   1.000  H
  H125     1.0000 0.92200  0.72500  0.15100  Biso   1.000  H
  H126     1.0000 0.42200  0.77500  0.84900  Biso   1.000  H
  H127     1.0000 0.57800  0.22500  0.84900  Biso   1.000  H
  H128     1.0000 0.07800  0.27500  0.15100  Biso   1.000  H
  H129     1.0000 0.85900  0.74300  0.21500  Biso   1.000  H
  H130     1.0000 0.35900  0.75700  0.78500  Biso   1.000  H
  H131     1.0000 0.64100  0.24300  0.78500  Biso   1.000  H
  H132     1.0000 0.14100  0.25700  0.21500  Biso   1.000  H
  H133     1.0000 0.99000  0.91600  0.01100  Biso   1.000  H
  H134     1.0000 0.49000  0.58400  0.98900  Biso   1.000  H
  H135     1.0000 0.51000  0.41600  0.98900  Biso   1.000  H
  H136     1.0000 0.01000  0.08400  0.01100  Biso   1.000  H
  H137     1.0000 0.01900  0.81900  0.98400  Biso   1.000  H
  H138     1.0000 0.51900  0.68100  0.01600  Biso   1.000  H
  H139     1.0000 0.48100  0.31900  0.01600  Biso   1.000  H
  H140     1.0000 0.98100  0.18100  0.98400  Biso   1.000  H
  O129     1.0000 0.67840  0.43150  0.04700  Biso   1.000  O
  O130     1.0000 0.17840  0.06850  0.95300  Biso   1.000  O
  O131     1.0000 0.82160  0.93150  0.95300  Biso   1.000  O
  O132     1.0000 0.32160  0.56850  0.04700  Biso   1.000  O
  O133     1.0000 0.03580  0.41400  0.15020  Biso   1.000  O
  O134     1.0000 0.53580  0.08600  0.84980  Biso   1.000  O
  O135     1.0000 0.46420  0.91400  0.84980  Biso   1.000  O
  O136     1.0000 0.96420  0.58600  0.15020  Biso   1.000  O
  O137     1.0000 0.41520  0.46790  0.99560  Biso   1.000  O
  O138     1.0000 0.91520  0.03210  0.00440  Biso   1.000  O
  O139     1.0000 0.08480  0.96790  0.00440  Biso   1.000  O
  O140     1.0000 0.58480  0.53210  0.99560  Biso   1.000  O
  O141     1.0000 0.55520  0.12470  0.06690  Biso   1.000  O
  O142     1.0000 0.05520  0.37530  0.93310  Biso   1.000  O
  O143     1.0000 0.94480  0.62470  0.93310  Biso   1.000  O
  O144     1.0000 0.44480  0.87530  0.06690  Biso   1.000  O
  O145     1.0000 0.62240  0.21950  0.05670  Biso   1.000  O
  O146     1.0000 0.12240  0.28050  0.94330  Biso   1.000  O
  O147     1.0000 0.87760  0.71950  0.94330  Biso   1.000  O
  O148     1.0000 0.37760  0.78050  0.05670  Biso   1.000  O
