data_image0
_cell_length_a       23.369
_cell_length_b       20.711
_cell_length_c       11.305
_cell_angle_alpha    90
_cell_angle_beta     90
_cell_angle_gamma    90

_symmetry_space_group_name_H-M    "P 1"
_symmetry_int_tables_number       1

loop_
  _symmetry_equiv_pos_as_xyz
  'x, y, z'

loop_
  _atom_site_label
  _atom_site_occupancy
  _atom_site_fract_x
  _atom_site_fract_y
  _atom_site_fract_z
  _atom_site_thermal_displace_type
  _atom_site_B_iso_or_equiv
  _atom_site_type_symbol
  Cu1      1.0000 0.17468  0.05696  0.25726  Biso   1.000  Cu
  Cu2      1.0000 0.67468  0.44304  0.74274  Biso   1.000  Cu
  Cu3      1.0000 0.32532  0.55696  0.74274  Biso   1.000  Cu
  Cu4      1.0000 0.82532  0.94304  0.25726  Biso   1.000  Cu
  Cu5      1.0000 0.32659  0.91241  0.65142  Biso   1.000  Cu
  Cu6      1.0000 0.82659  0.58759  0.34858  Biso   1.000  Cu
  Cu7      1.0000 0.17341  0.41241  0.34858  Biso   1.000  Cu
  Cu8      1.0000 0.67341  0.08759  0.65142  Biso   1.000  Cu
  Cu9      1.0000 0.37167  0.20021  0.68407  Biso   1.000  Cu
  Cu10     1.0000 0.87167  0.29979  0.31593  Biso   1.000  Cu
  Cu11     1.0000 0.12833  0.70021  0.31593  Biso   1.000  Cu
  Cu12     1.0000 0.62833  0.79979  0.68407  Biso   1.000  Cu
  P1       1.0000 0.31282  0.06198  0.61542  Biso   1.000  P
  P2       1.0000 0.81282  0.43802  0.38458  Biso   1.000  P
  P3       1.0000 0.18718  0.56198  0.38458  Biso   1.000  P
  P4       1.0000 0.68718  0.93802  0.61542  Biso   1.000  P
  P5       1.0000 0.19788  0.90617  0.28712  Biso   1.000  P
  P6       1.0000 0.69788  0.59383  0.71288  Biso   1.000  P
  P7       1.0000 0.30212  0.40617  0.71288  Biso   1.000  P
  P8       1.0000 0.80212  0.09383  0.28712  Biso   1.000  P
  P9       1.0000 0.23085  0.26934  0.31340  Biso   1.000  P
  P10      1.0000 0.73085  0.23066  0.68660  Biso   1.000  P
  P11      1.0000 0.26915  0.76934  0.68660  Biso   1.000  P
  P12      1.0000 0.76915  0.73066  0.31340  Biso   1.000  P
  N1       1.0000 0.95900  0.08910  0.38220  Biso   1.000  N
  N2       1.0000 0.45900  0.41090  0.61780  Biso   1.000  N
  N3       1.0000 0.54100  0.58910  0.61780  Biso   1.000  N
  N4       1.0000 0.04100  0.91090  0.38220  Biso   1.000  N
  N5       1.0000 0.89390  0.09950  0.53560  Biso   1.000  N
  N6       1.0000 0.39390  0.40050  0.46440  Biso   1.000  N
  N7       1.0000 0.60610  0.59950  0.46440  Biso   1.000  N
  N8       1.0000 0.10610  0.90050  0.53560  Biso   1.000  N
  N9       1.0000 0.98920  0.08940  0.58150  Biso   1.000  N
  N10      1.0000 0.48920  0.41060  0.41850  Biso   1.000  N
  N11      1.0000 0.51080  0.58940  0.41850  Biso   1.000  N
  N12      1.0000 0.01080  0.91060  0.58150  Biso   1.000  N
  N13      1.0000 0.11460  0.06910  0.40580  Biso   1.000  N
  N14      1.0000 0.61460  0.43090  0.59420  Biso   1.000  N
  N15      1.0000 0.38540  0.56910  0.59420  Biso   1.000  N
  N16      1.0000 0.88540  0.93090  0.40580  Biso   1.000  N
  N17      1.0000 0.09180  0.07870  0.59780  Biso   1.000  N
  N18      1.0000 0.59180  0.42130  0.40220  Biso   1.000  N
  N19      1.0000 0.40820  0.57870  0.40220  Biso   1.000  N
  N20      1.0000 0.90820  0.92130  0.59780  Biso   1.000  N
  C1       1.0000 0.94920  0.09380  0.50070  Biso   1.000  C
  C2       1.0000 0.44920  0.40620  0.49930  Biso   1.000  C
  C3       1.0000 0.55080  0.59380  0.49930  Biso   1.000  C
  C4       1.0000 0.05080  0.90620  0.50070  Biso   1.000  C
  C5       1.0000 0.04040  0.08260  0.53470  Biso   1.000  C
  C6       1.0000 0.54040  0.41740  0.46530  Biso   1.000  C
  C7       1.0000 0.45960  0.58260  0.46530  Biso   1.000  C
  C8       1.0000 0.95960  0.91740  0.53470  Biso   1.000  C
  C9       1.0000 0.05760  0.07630  0.41590  Biso   1.000  C
  C10      1.0000 0.55760  0.42370  0.58410  Biso   1.000  C
  C11      1.0000 0.44240  0.57630  0.58410  Biso   1.000  C
  C12      1.0000 0.94240  0.92370  0.41590  Biso   1.000  C
  C13      1.0000 0.01430  0.07900  0.33110  Biso   1.000  C
  C14      1.0000 0.51430  0.42100  0.66890  Biso   1.000  C
  C15      1.0000 0.48570  0.57900  0.66890  Biso   1.000  C
  C16      1.0000 0.98570  0.92100  0.33110  Biso   1.000  C
  C17      1.0000 0.13420  0.07260  0.51410  Biso   1.000  C
  C18      1.0000 0.63420  0.42740  0.48590  Biso   1.000  C
  C19      1.0000 0.36580  0.57260  0.48590  Biso   1.000  C
  C20      1.0000 0.86580  0.92740  0.51410  Biso   1.000  C
  C21      1.0000 0.09690  0.08860  0.72630  Biso   1.000  C
  C22      1.0000 0.59690  0.41140  0.27370  Biso   1.000  C
  C23      1.0000 0.40310  0.58860  0.27370  Biso   1.000  C
  C24      1.0000 0.90310  0.91140  0.72630  Biso   1.000  C
  C25      1.0000 0.10250  0.02400  0.79340  Biso   1.000  C
  C26      1.0000 0.60250  0.47600  0.20660  Biso   1.000  C
  C27      1.0000 0.39750  0.52400  0.20660  Biso   1.000  C
  C28      1.0000 0.89750  0.97600  0.79340  Biso   1.000  C
  C29      1.0000 0.16640  0.01920  0.81220  Biso   1.000  C
  C30      1.0000 0.66640  0.48080  0.18780  Biso   1.000  C
  C31      1.0000 0.33360  0.51920  0.18780  Biso   1.000  C
  C32      1.0000 0.83360  0.98080  0.81220  Biso   1.000  C
  C33      1.0000 0.18540  0.09160  0.82390  Biso   1.000  C
  C34      1.0000 0.68540  0.40840  0.17610  Biso   1.000  C
  C35      1.0000 0.31460  0.59160  0.17610  Biso   1.000  C
  C36      1.0000 0.81460  0.90840  0.82390  Biso   1.000  C
  C37      1.0000 0.24470  0.10310  0.78630  Biso   1.000  C
  C38      1.0000 0.74470  0.39690  0.21370  Biso   1.000  C
  C39      1.0000 0.25530  0.60310  0.21370  Biso   1.000  C
  C40      1.0000 0.75530  0.89690  0.78630  Biso   1.000  C
  O1       1.0000 0.01720  0.07310  0.22220  Biso   1.000  O
  O2       1.0000 0.51720  0.42690  0.77780  Biso   1.000  O
  O3       1.0000 0.48280  0.57310  0.77780  Biso   1.000  O
  O4       1.0000 0.98280  0.92690  0.22220  Biso   1.000  O
  O5       1.0000 0.14570  0.12410  0.74860  Biso   1.000  O
  O6       1.0000 0.64570  0.37590  0.25140  Biso   1.000  O
  O7       1.0000 0.35430  0.62410  0.25140  Biso   1.000  O
  O8       1.0000 0.85430  0.87590  0.74860  Biso   1.000  O
  O9       1.0000 0.07300  0.03120  0.90230  Biso   1.000  O
  O10      1.0000 0.57300  0.46880  0.09770  Biso   1.000  O
  O11      1.0000 0.42700  0.53120  0.09770  Biso   1.000  O
  O12      1.0000 0.92700  0.96880  0.90230  Biso   1.000  O
  O13      1.0000 0.18190  0.98400  0.91800  Biso   1.000  O
  O14      1.0000 0.68190  0.51600  0.08200  Biso   1.000  O
  O15      1.0000 0.31810  0.48400  0.08200  Biso   1.000  O
  O16      1.0000 0.81810  0.01600  0.91800  Biso   1.000  O
  O17      1.0000 0.25330  0.08810  0.66540  Biso   1.000  O
  O18      1.0000 0.75330  0.41190  0.33460  Biso   1.000  O
  O19      1.0000 0.24670  0.58810  0.33460  Biso   1.000  O
  O20      1.0000 0.74670  0.91190  0.66540  Biso   1.000  O
  O21      1.0000 0.29920  0.04310  0.49110  Biso   1.000  O
  O22      1.0000 0.79920  0.45690  0.50890  Biso   1.000  O
  O23      1.0000 0.20080  0.54310  0.50890  Biso   1.000  O
  O24      1.0000 0.70080  0.95690  0.49110  Biso   1.000  O
  O25      1.0000 0.35650  0.11510  0.62170  Biso   1.000  O
  O26      1.0000 0.85650  0.38490  0.37830  Biso   1.000  O
  O27      1.0000 0.14350  0.61510  0.37830  Biso   1.000  O
  O28      1.0000 0.64350  0.88490  0.62170  Biso   1.000  O
  O29      1.0000 0.33210  0.00510  0.69000  Biso   1.000  O
  O30      1.0000 0.83210  0.49490  0.31000  Biso   1.000  O
  O31      1.0000 0.16790  0.50510  0.31000  Biso   1.000  O
  O32      1.0000 0.66790  0.99490  0.69000  Biso   1.000  O
  O33      1.0000 0.24270  0.10000  0.31910  Biso   1.000  O
  O34      1.0000 0.74270  0.40000  0.68090  Biso   1.000  O
  O35      1.0000 0.25730  0.60000  0.68090  Biso   1.000  O
  O36      1.0000 0.75730  0.90000  0.31910  Biso   1.000  O
  O37      1.0000 0.15600  0.13430  0.17270  Biso   1.000  O
  O38      1.0000 0.65600  0.36570  0.82730  Biso   1.000  O
  O39      1.0000 0.34400  0.63430  0.82730  Biso   1.000  O
  O40      1.0000 0.84400  0.86570  0.17270  Biso   1.000  O
  O41      1.0000 0.11870  0.01300  0.15360  Biso   1.000  O
  O42      1.0000 0.61870  0.48700  0.84640  Biso   1.000  O
  O43      1.0000 0.38130  0.51300  0.84640  Biso   1.000  O
  O44      1.0000 0.88130  0.98700  0.15360  Biso   1.000  O
  N21      1.0000 0.54080  0.92080  0.49150  Biso   1.000  N
  N22      1.0000 0.04080  0.57920  0.50850  Biso   1.000  N
  N23      1.0000 0.95920  0.42080  0.50850  Biso   1.000  N
  N24      1.0000 0.45920  0.07920  0.49150  Biso   1.000  N
  N25      1.0000 0.60340  0.91760  0.32840  Biso   1.000  N
  N26      1.0000 0.10340  0.58240  0.67160  Biso   1.000  N
  N27      1.0000 0.89660  0.41760  0.67160  Biso   1.000  N
  N28      1.0000 0.39660  0.08240  0.32840  Biso   1.000  N
  N29      1.0000 0.50660  0.90700  0.29410  Biso   1.000  N
  N30      1.0000 0.00660  0.59300  0.70590  Biso   1.000  N
  N31      1.0000 0.99340  0.40700  0.70590  Biso   1.000  N
  N32      1.0000 0.49340  0.09300  0.29410  Biso   1.000  N
  N33      1.0000 0.38370  0.90940  0.48640  Biso   1.000  N
  N34      1.0000 0.88370  0.59060  0.51360  Biso   1.000  N
  N35      1.0000 0.11630  0.40940  0.51360  Biso   1.000  N
  N36      1.0000 0.61630  0.09060  0.48640  Biso   1.000  N
  N37      1.0000 0.40400  0.89480  0.29260  Biso   1.000  N
  N38      1.0000 0.90400  0.60520  0.70740  Biso   1.000  N
  N39      1.0000 0.09600  0.39480  0.70740  Biso   1.000  N
  N40      1.0000 0.59600  0.10520  0.29260  Biso   1.000  N
  C41      1.0000 0.54890  0.91520  0.37080  Biso   1.000  C
  C42      1.0000 0.04890  0.58480  0.62920  Biso   1.000  C
  C43      1.0000 0.95110  0.41520  0.62920  Biso   1.000  C
  C44      1.0000 0.45110  0.08480  0.37080  Biso   1.000  C
  C45      1.0000 0.45520  0.90530  0.34820  Biso   1.000  C
  C46      1.0000 0.95520  0.59470  0.65180  Biso   1.000  C
  C47      1.0000 0.04480  0.40530  0.65180  Biso   1.000  C
  C48      1.0000 0.54480  0.09470  0.34820  Biso   1.000  C
  C49      1.0000 0.44310  0.91450  0.46470  Biso   1.000  C
  C50      1.0000 0.94310  0.58550  0.53530  Biso   1.000  C
  C51      1.0000 0.05690  0.41450  0.53530  Biso   1.000  C
  C52      1.0000 0.55690  0.08550  0.46470  Biso   1.000  C
  C53      1.0000 0.48780  0.92150  0.54760  Biso   1.000  C
  C54      1.0000 0.98780  0.57850  0.45240  Biso   1.000  C
  C55      1.0000 0.01220  0.42150  0.45240  Biso   1.000  C
  C56      1.0000 0.51220  0.07850  0.54760  Biso   1.000  C
  C57      1.0000 0.36220  0.89640  0.38010  Biso   1.000  C
  C58      1.0000 0.86220  0.60360  0.61990  Biso   1.000  C
  C59      1.0000 0.13780  0.39640  0.61990  Biso   1.000  C
  C60      1.0000 0.63780  0.10360  0.38010  Biso   1.000  C
  C61      1.0000 0.39320  0.87740  0.16820  Biso   1.000  C
  C62      1.0000 0.89320  0.62260  0.83180  Biso   1.000  C
  C63      1.0000 0.10680  0.37740  0.83180  Biso   1.000  C
  C64      1.0000 0.60680  0.12260  0.16820  Biso   1.000  C
  C65      1.0000 0.36280  0.81400  0.15080  Biso   1.000  C
  C66      1.0000 0.86280  0.68600  0.84920  Biso   1.000  C
  C67      1.0000 0.13720  0.31400  0.84920  Biso   1.000  C
  C68      1.0000 0.63720  0.18600  0.15080  Biso   1.000  C
  C69      1.0000 0.32750  0.82440  0.03900  Biso   1.000  C
  C70      1.0000 0.82750  0.67560  0.96100  Biso   1.000  C
  C71      1.0000 0.17250  0.32440  0.96100  Biso   1.000  C
  C72      1.0000 0.67250  0.17560  0.03900  Biso   1.000  C
  C73      1.0000 0.31500  0.89640  0.04760  Biso   1.000  C
  C74      1.0000 0.81500  0.60360  0.95240  Biso   1.000  C
  C75      1.0000 0.18500  0.39640  0.95240  Biso   1.000  C
  C76      1.0000 0.68500  0.10360  0.04760  Biso   1.000  C
  C77      1.0000 0.25670  0.91350  0.09100  Biso   1.000  C
  C78      1.0000 0.75670  0.58650  0.90900  Biso   1.000  C
  C79      1.0000 0.24330  0.41350  0.90900  Biso   1.000  C
  C80      1.0000 0.74330  0.08650  0.09100  Biso   1.000  C
  O45      1.0000 0.48680  0.92650  0.65520  Biso   1.000  O
  O46      1.0000 0.98680  0.57350  0.34480  Biso   1.000  O
  O47      1.0000 0.01320  0.42650  0.34480  Biso   1.000  O
  O48      1.0000 0.51320  0.07350  0.65520  Biso   1.000  O
  O49      1.0000 0.35780  0.92600  0.11860  Biso   1.000  O
  O50      1.0000 0.85780  0.57400  0.88140  Biso   1.000  O
  O51      1.0000 0.14220  0.42600  0.88140  Biso   1.000  O
  O52      1.0000 0.64220  0.07400  0.11860  Biso   1.000  O
  O53      1.0000 0.40150  0.76240  0.14120  Biso   1.000  O
  O54      1.0000 0.90150  0.73760  0.85880  Biso   1.000  O
  O55      1.0000 0.09850  0.26240  0.85880  Biso   1.000  O
  O56      1.0000 0.59850  0.23760  0.14120  Biso   1.000  O
  O57      1.0000 0.36010  0.80890  0.93610  Biso   1.000  O
  O58      1.0000 0.86010  0.69110  0.06390  Biso   1.000  O
  O59      1.0000 0.13990  0.30890  0.06390  Biso   1.000  O
  O60      1.0000 0.63990  0.19110  0.93610  Biso   1.000  O
  O61      1.0000 0.24670  0.88100  0.20410  Biso   1.000  O
  O62      1.0000 0.74670  0.61900  0.79590  Biso   1.000  O
  O63      1.0000 0.25330  0.38100  0.79590  Biso   1.000  O
  O64      1.0000 0.75330  0.11900  0.20410  Biso   1.000  O
  O65      1.0000 0.20490  0.86480  0.39510  Biso   1.000  O
  O66      1.0000 0.70490  0.63520  0.60490  Biso   1.000  O
  O67      1.0000 0.29510  0.36480  0.60490  Biso   1.000  O
  O68      1.0000 0.79510  0.13520  0.39510  Biso   1.000  O
  O69      1.0000 0.21050  0.97710  0.31060  Biso   1.000  O
  O70      1.0000 0.71050  0.52290  0.68940  Biso   1.000  O
  O71      1.0000 0.28950  0.47710  0.68940  Biso   1.000  O
  O72      1.0000 0.78950  0.02290  0.31060  Biso   1.000  O
  O73      1.0000 0.13930  0.89670  0.22820  Biso   1.000  O
  O74      1.0000 0.63930  0.60330  0.77180  Biso   1.000  O
  O75      1.0000 0.36070  0.39670  0.77180  Biso   1.000  O
  O76      1.0000 0.86070  0.10330  0.22820  Biso   1.000  O
  O77      1.0000 0.25530  0.92990  0.56430  Biso   1.000  O
  O78      1.0000 0.75530  0.57010  0.43570  Biso   1.000  O
  O79      1.0000 0.24470  0.42990  0.43570  Biso   1.000  O
  O80      1.0000 0.74470  0.07010  0.56430  Biso   1.000  O
  O81      1.0000 0.38800  0.90120  0.76780  Biso   1.000  O
  O82      1.0000 0.88800  0.59880  0.23220  Biso   1.000  O
  O83      1.0000 0.11200  0.40120  0.23220  Biso   1.000  O
  O84      1.0000 0.61200  0.09880  0.76780  Biso   1.000  O
  N41      1.0000 0.58510  0.23970  0.56560  Biso   1.000  N
  N42      1.0000 0.08510  0.26030  0.43440  Biso   1.000  N
  N43      1.0000 0.91490  0.73970  0.43440  Biso   1.000  N
  N44      1.0000 0.41490  0.76030  0.56560  Biso   1.000  N
  N45      1.0000 0.65150  0.26560  0.41710  Biso   1.000  N
  N46      1.0000 0.15150  0.23440  0.58290  Biso   1.000  N
  N47      1.0000 0.84850  0.76560  0.58290  Biso   1.000  N
  N48      1.0000 0.34850  0.73440  0.41710  Biso   1.000  N
  N49      1.0000 0.55500  0.26850  0.36920  Biso   1.000  N
  N50      1.0000 0.05500  0.23150  0.63080  Biso   1.000  N
  N51      1.0000 0.94500  0.76850  0.63080  Biso   1.000  N
  N52      1.0000 0.44500  0.73150  0.36920  Biso   1.000  N
  N53      1.0000 0.42830  0.23290  0.53660  Biso   1.000  N
  N54      1.0000 0.92830  0.26710  0.46340  Biso   1.000  N
  N55      1.0000 0.07170  0.73290  0.46340  Biso   1.000  N
  N56      1.0000 0.57170  0.76710  0.53660  Biso   1.000  N
  N57      1.0000 0.45270  0.26280  0.35200  Biso   1.000  N
  N58      1.0000 0.95270  0.23720  0.64800  Biso   1.000  N
  N59      1.0000 0.04730  0.76280  0.64800  Biso   1.000  N
  N60      1.0000 0.54730  0.73720  0.35200  Biso   1.000  N
  C81      1.0000 0.59830  0.25960  0.44990  Biso   1.000  C
  C82      1.0000 0.09830  0.24040  0.55010  Biso   1.000  C
  C83      1.0000 0.90170  0.75960  0.55010  Biso   1.000  C
  C84      1.0000 0.40170  0.74040  0.44990  Biso   1.000  C
  C85      1.0000 0.50460  0.25660  0.41510  Biso   1.000  C
  C86      1.0000 0.00460  0.24340  0.58490  Biso   1.000  C
  C87      1.0000 0.99540  0.75660  0.58490  Biso   1.000  C
  C88      1.0000 0.49540  0.74340  0.41510  Biso   1.000  C
  C89      1.0000 0.48890  0.24060  0.52750  Biso   1.000  C
  C90      1.0000 0.98890  0.25940  0.47250  Biso   1.000  C
  C91      1.0000 0.01110  0.74060  0.47250  Biso   1.000  C
  C92      1.0000 0.51110  0.75940  0.52750  Biso   1.000  C
  C93      1.0000 0.53190  0.23170  0.61200  Biso   1.000  C
  C94      1.0000 0.03190  0.26830  0.38800  Biso   1.000  C
  C95      1.0000 0.96810  0.73170  0.38800  Biso   1.000  C
  C96      1.0000 0.46810  0.76830  0.61200  Biso   1.000  C
  C97      1.0000 0.40800  0.24840  0.43110  Biso   1.000  C
  C98      1.0000 0.90800  0.25160  0.56890  Biso   1.000  C
  C99      1.0000 0.09200  0.74840  0.56890  Biso   1.000  C
  C100     1.0000 0.59200  0.75160  0.43110  Biso   1.000  C
  C101     1.0000 0.44640  0.28740  0.23080  Biso   1.000  C
  C102     1.0000 0.94640  0.21260  0.76920  Biso   1.000  C
  C103     1.0000 0.05360  0.78740  0.76920  Biso   1.000  C
  C104     1.0000 0.55360  0.71260  0.23080  Biso   1.000  C
  C105     1.0000 0.43120  0.23640  0.13410  Biso   1.000  C
  C106     1.0000 0.93120  0.26360  0.86590  Biso   1.000  C
  C107     1.0000 0.06880  0.73640  0.86590  Biso   1.000  C
  C108     1.0000 0.56880  0.76360  0.13410  Biso   1.000  C
  C109     1.0000 0.36820  0.24900  0.12710  Biso   1.000  C
  C110     1.0000 0.86820  0.25100  0.87290  Biso   1.000  C
  C111     1.0000 0.13180  0.74900  0.87290  Biso   1.000  C
  C112     1.0000 0.63180  0.75100  0.12710  Biso   1.000  C
  C113     1.0000 0.36090  0.31900  0.14270  Biso   1.000  C
  C114     1.0000 0.86090  0.18100  0.85730  Biso   1.000  C
  C115     1.0000 0.13910  0.81900  0.85730  Biso   1.000  C
  C116     1.0000 0.63910  0.68100  0.14270  Biso   1.000  C
  C117     1.0000 0.30420  0.34010  0.19490  Biso   1.000  C
  C118     1.0000 0.80420  0.15990  0.80510  Biso   1.000  C
  C119     1.0000 0.19580  0.84010  0.80510  Biso   1.000  C
  C120     1.0000 0.69580  0.65990  0.19490  Biso   1.000  C
  O85      1.0000 0.52920  0.21600  0.71780  Biso   1.000  O
  O86      1.0000 0.02920  0.28400  0.28220  Biso   1.000  O
  O87      1.0000 0.97080  0.71600  0.28220  Biso   1.000  O
  O88      1.0000 0.47080  0.78400  0.71780  Biso   1.000  O
  O89      1.0000 0.40490  0.33490  0.23100  Biso   1.000  O
  O90      1.0000 0.90490  0.16510  0.76900  Biso   1.000  O
  O91      1.0000 0.09510  0.83490  0.76900  Biso   1.000  O
  O92      1.0000 0.59510  0.66510  0.23100  Biso   1.000  O
  O93      1.0000 0.45910  0.25350  0.02750  Biso   1.000  O
  O94      1.0000 0.95910  0.24650  0.97250  Biso   1.000  O
  O95      1.0000 0.04090  0.75350  0.97250  Biso   1.000  O
  O96      1.0000 0.54090  0.74650  0.02750  Biso   1.000  O
  O97      1.0000 0.34340  0.22970  0.01680  Biso   1.000  O
  O98      1.0000 0.84340  0.27030  0.98320  Biso   1.000  O
  O99      1.0000 0.15660  0.72970  0.98320  Biso   1.000  O
  O100     1.0000 0.65660  0.77030  0.01680  Biso   1.000  O
  O101     1.0000 0.29140  0.30490  0.30140  Biso   1.000  O
  O102     1.0000 0.79140  0.19510  0.69860  Biso   1.000  O
  O103     1.0000 0.20860  0.80490  0.69860  Biso   1.000  O
  O104     1.0000 0.70860  0.69510  0.30140  Biso   1.000  O
  O105     1.0000 0.23940  0.21830  0.40780  Biso   1.000  O
  O106     1.0000 0.73940  0.28170  0.59220  Biso   1.000  O
  O107     1.0000 0.26060  0.71830  0.59220  Biso   1.000  O
  O108     1.0000 0.76060  0.78170  0.40780  Biso   1.000  O
  O109     1.0000 0.18720  0.32070  0.34990  Biso   1.000  O
  O110     1.0000 0.68720  0.17930  0.65010  Biso   1.000  O
  O111     1.0000 0.31280  0.82070  0.65010  Biso   1.000  O
  O112     1.0000 0.81280  0.67930  0.34990  Biso   1.000  O
  O113     1.0000 0.21540  0.24120  0.19500  Biso   1.000  O
  O114     1.0000 0.71540  0.25880  0.80500  Biso   1.000  O
  O115     1.0000 0.28460  0.74120  0.80500  Biso   1.000  O
  O116     1.0000 0.78460  0.75880  0.19500  Biso   1.000  O
  O117     1.0000 0.37840  0.27270  0.79370  Biso   1.000  O
  O118     1.0000 0.87840  0.22730  0.20630  Biso   1.000  O
  O119     1.0000 0.12160  0.77270  0.20630  Biso   1.000  O
  O120     1.0000 0.62160  0.72730  0.79370  Biso   1.000  O
  O121     1.0000 0.42920  0.16410  0.79150  Biso   1.000  O
  O122     1.0000 0.92920  0.33590  0.20850  Biso   1.000  O
  O123     1.0000 0.07080  0.66410  0.20850  Biso   1.000  O
  O124     1.0000 0.57080  0.83590  0.79150  Biso   1.000  O
  O125     1.0000 0.30100  0.23690  0.61310  Biso   1.000  O
  O126     1.0000 0.80100  0.26310  0.38690  Biso   1.000  O
  O127     1.0000 0.19900  0.73690  0.38690  Biso   1.000  O
  O128     1.0000 0.69900  0.76310  0.61310  Biso   1.000  O
  H1       1.0000 0.92200  0.10000  0.30700  Biso   1.000  H
  H2       1.0000 0.42200  0.40000  0.69300  Biso   1.000  H
  H3       1.0000 0.57800  0.60000  0.69300  Biso   1.000  H
  H4       1.0000 0.07800  0.90000  0.30700  Biso   1.000  H
  H5       1.0000 0.89200  0.10400  0.60500  Biso   1.000  H
  H6       1.0000 0.39200  0.39600  0.39500  Biso   1.000  H
  H7       1.0000 0.60800  0.60400  0.39500  Biso   1.000  H
  H8       1.0000 0.10800  0.89600  0.60500  Biso   1.000  H
  H9       1.0000 0.85900  0.11200  0.48900  Biso   1.000  H
  H10      1.0000 0.35900  0.38800  0.51100  Biso   1.000  H
  H11      1.0000 0.64100  0.61200  0.51100  Biso   1.000  H
  H12      1.0000 0.14100  0.88800  0.48900  Biso   1.000  H
  H13      1.0000 0.17700  0.07000  0.55000  Biso   1.000  H
  H14      1.0000 0.67700  0.43000  0.45000  Biso   1.000  H
  H15      1.0000 0.32300  0.57000  0.45000  Biso   1.000  H
  H16      1.0000 0.82300  0.93000  0.55000  Biso   1.000  H
  H17      1.0000 0.06600  0.11300  0.75900  Biso   1.000  H
  H18      1.0000 0.56600  0.38700  0.24100  Biso   1.000  H
  H19      1.0000 0.43400  0.61300  0.24100  Biso   1.000  H
  H20      1.0000 0.93400  0.88700  0.75900  Biso   1.000  H
  H21      1.0000 0.04500  0.08000  0.85800  Biso   1.000  H
  H22      1.0000 0.54500  0.42000  0.14200  Biso   1.000  H
  H23      1.0000 0.45500  0.58000  0.14200  Biso   1.000  H
  H24      1.0000 0.95500  0.92000  0.85800  Biso   1.000  H
  H25      1.0000 0.08900  0.99000  0.73000  Biso   1.000  H
  H26      1.0000 0.58900  0.51000  0.27000  Biso   1.000  H
  H27      1.0000 0.41100  0.49000  0.27000  Biso   1.000  H
  H28      1.0000 0.91100  0.01000  0.73000  Biso   1.000  H
  H29      1.0000 0.15000  0.96400  0.97000  Biso   1.000  H
  H30      1.0000 0.65000  0.53600  0.03000  Biso   1.000  H
  H31      1.0000 0.35000  0.46400  0.03000  Biso   1.000  H
  H32      1.0000 0.85000  0.03600  0.97000  Biso   1.000  H
  H33      1.0000 0.19000  0.00100  0.73300  Biso   1.000  H
  H34      1.0000 0.69000  0.49900  0.26700  Biso   1.000  H
  H35      1.0000 0.31000  0.50100  0.26700  Biso   1.000  H
  H36      1.0000 0.81000  0.99900  0.73300  Biso   1.000  H
  H37      1.0000 0.19200  0.10200  0.90400  Biso   1.000  H
  H38      1.0000 0.69200  0.39800  0.09600  Biso   1.000  H
  H39      1.0000 0.30800  0.60200  0.09600  Biso   1.000  H
  H40      1.0000 0.80800  0.89800  0.90400  Biso   1.000  H
  H41      1.0000 0.27200  0.08000  0.83000  Biso   1.000  H
  H42      1.0000 0.77200  0.42000  0.17000  Biso   1.000  H
  H43      1.0000 0.22800  0.58000  0.17000  Biso   1.000  H
  H44      1.0000 0.72800  0.92000  0.83000  Biso   1.000  H
  H45      1.0000 0.25500  0.15100  0.80100  Biso   1.000  H
  H46      1.0000 0.75500  0.34900  0.19900  Biso   1.000  H
  H47      1.0000 0.24500  0.65100  0.19900  Biso   1.000  H
  H48      1.0000 0.74500  0.84900  0.80100  Biso   1.000  H
  H49      1.0000 0.24000  0.14300  0.33000  Biso   1.000  H
  H50      1.0000 0.74000  0.35700  0.67000  Biso   1.000  H
  H51      1.0000 0.26000  0.64300  0.67000  Biso   1.000  H
  H52      1.0000 0.76000  0.85700  0.33000  Biso   1.000  H
  H53      1.0000 0.26500  0.07000  0.38000  Biso   1.000  H
  H54      1.0000 0.76500  0.43000  0.62000  Biso   1.000  H
  H55      1.0000 0.23500  0.57000  0.62000  Biso   1.000  H
  H56      1.0000 0.73500  0.93000  0.38000  Biso   1.000  H
  H57      1.0000 0.17500  0.18000  0.17800  Biso   1.000  H
  H58      1.0000 0.67500  0.32000  0.82200  Biso   1.000  H
  H59      1.0000 0.32500  0.68000  0.82200  Biso   1.000  H
  H60      1.0000 0.82500  0.82000  0.17800  Biso   1.000  H
  H61      1.0000 0.13500  0.14500  0.11000  Biso   1.000  H
  H62      1.0000 0.63500  0.35500  0.89000  Biso   1.000  H
  H63      1.0000 0.36500  0.64500  0.89000  Biso   1.000  H
  H64      1.0000 0.86500  0.85500  0.11000  Biso   1.000  H
  H65      1.0000 0.08000  0.03300  0.17000  Biso   1.000  H
  H66      1.0000 0.58000  0.46700  0.83000  Biso   1.000  H
  H67      1.0000 0.42000  0.53300  0.83000  Biso   1.000  H
  H68      1.0000 0.92000  0.96700  0.17000  Biso   1.000  H
  H69      1.0000 0.11300  0.96100  0.17500  Biso   1.000  H
  H70      1.0000 0.61300  0.53900  0.82500  Biso   1.000  H
  H71      1.0000 0.38700  0.46100  0.82500  Biso   1.000  H
  H72      1.0000 0.88700  0.03900  0.17500  Biso   1.000  H
  H73      1.0000 0.63600  0.93300  0.38400  Biso   1.000  H
  H74      1.0000 0.13600  0.56700  0.61600  Biso   1.000  H
  H75      1.0000 0.86400  0.43300  0.61600  Biso   1.000  H
  H76      1.0000 0.36400  0.06700  0.38400  Biso   1.000  H
  H77      1.0000 0.62500  0.91500  0.26000  Biso   1.000  H
  H78      1.0000 0.12500  0.58500  0.74000  Biso   1.000  H
  H79      1.0000 0.87500  0.41500  0.74000  Biso   1.000  H
  H80      1.0000 0.37500  0.08500  0.26000  Biso   1.000  H
  H81      1.0000 0.31900  0.88300  0.36200  Biso   1.000  H
  H82      1.0000 0.81900  0.61700  0.63800  Biso   1.000  H
  H83      1.0000 0.18100  0.38300  0.63800  Biso   1.000  H
  H84      1.0000 0.68100  0.11700  0.36200  Biso   1.000  H
  H85      1.0000 0.43300  0.87200  0.12800  Biso   1.000  H
  H86      1.0000 0.93300  0.62800  0.87200  Biso   1.000  H
  H87      1.0000 0.06700  0.37200  0.87200  Biso   1.000  H
  H88      1.0000 0.56700  0.12800  0.12800  Biso   1.000  H
  H89      1.0000 0.40500  0.74000  0.23000  Biso   1.000  H
  H90      1.0000 0.90500  0.76000  0.77000  Biso   1.000  H
  H91      1.0000 0.09500  0.24000  0.77000  Biso   1.000  H
  H92      1.0000 0.59500  0.26000  0.23000  Biso   1.000  H
  H93      1.0000 0.33600  0.79500  0.21500  Biso   1.000  H
  H94      1.0000 0.83600  0.70500  0.78500  Biso   1.000  H
  H95      1.0000 0.16400  0.29500  0.78500  Biso   1.000  H
  H96      1.0000 0.66400  0.20500  0.21500  Biso   1.000  H
  H97      1.0000 0.33300  0.78800  0.88500  Biso   1.000  H
  H98      1.0000 0.83300  0.71200  0.11500  Biso   1.000  H
  H99      1.0000 0.16700  0.28800  0.11500  Biso   1.000  H
  H100     1.0000 0.66700  0.21200  0.88500  Biso   1.000  H
  H101     1.0000 0.29300  0.79200  0.05000  Biso   1.000  H
  H102     1.0000 0.79300  0.70800  0.95000  Biso   1.000  H
  H103     1.0000 0.20700  0.29200  0.95000  Biso   1.000  H
  H104     1.0000 0.70700  0.20800  0.05000  Biso   1.000  H
  H105     1.0000 0.32500  0.91800  0.96700  Biso   1.000  H
  H106     1.0000 0.82500  0.58200  0.03300  Biso   1.000  H
  H107     1.0000 0.17500  0.41800  0.03300  Biso   1.000  H
  H108     1.0000 0.67500  0.08200  0.96700  Biso   1.000  H
  H109     1.0000 0.23000  0.90200  0.03300  Biso   1.000  H
  H110     1.0000 0.73000  0.59800  0.96700  Biso   1.000  H
  H111     1.0000 0.27000  0.40200  0.96700  Biso   1.000  H
  H112     1.0000 0.77000  0.09800  0.03300  Biso   1.000  H
  H113     1.0000 0.26000  0.96500  0.09300  Biso   1.000  H
  H114     1.0000 0.76000  0.53500  0.90700  Biso   1.000  H
  H115     1.0000 0.24000  0.46500  0.90700  Biso   1.000  H
  H116     1.0000 0.74000  0.03500  0.09300  Biso   1.000  H
  H117     1.0000 0.25500  0.90500  0.50500  Biso   1.000  H
  H118     1.0000 0.75500  0.59500  0.49500  Biso   1.000  H
  H119     1.0000 0.24500  0.40500  0.49500  Biso   1.000  H
  H120     1.0000 0.74500  0.09500  0.50500  Biso   1.000  H
  H121     1.0000 0.43000  0.90100  0.74300  Biso   1.000  H
  H122     1.0000 0.93000  0.59900  0.25700  Biso   1.000  H
  H123     1.0000 0.07000  0.40100  0.25700  Biso   1.000  H
  H124     1.0000 0.57000  0.09900  0.74300  Biso   1.000  H
  H125     1.0000 0.40000  0.86000  0.78000  Biso   1.000  H
  H126     1.0000 0.90000  0.64000  0.22000  Biso   1.000  H
  H127     1.0000 0.10000  0.36000  0.22000  Biso   1.000  H
  H128     1.0000 0.60000  0.14000  0.78000  Biso   1.000  H
  H129     1.0000 0.62500  0.22600  0.61300  Biso   1.000  H
  H130     1.0000 0.12500  0.27400  0.38700  Biso   1.000  H
  H131     1.0000 0.87500  0.72600  0.38700  Biso   1.000  H
  H132     1.0000 0.37500  0.77400  0.61300  Biso   1.000  H
  H133     1.0000 0.68100  0.27000  0.48800  Biso   1.000  H
  H134     1.0000 0.18100  0.23000  0.51200  Biso   1.000  H
  H135     1.0000 0.81900  0.77000  0.51200  Biso   1.000  H
  H136     1.0000 0.31900  0.73000  0.48800  Biso   1.000  H
  H137     1.0000 0.65500  0.28300  0.37000  Biso   1.000  H
  H138     1.0000 0.15500  0.21700  0.63000  Biso   1.000  H
  H139     1.0000 0.84500  0.78300  0.63000  Biso   1.000  H
  H140     1.0000 0.34500  0.71700  0.37000  Biso   1.000  H
  H141     1.0000 0.35900  0.25500  0.37900  Biso   1.000  H
  H142     1.0000 0.85900  0.24500  0.62100  Biso   1.000  H
  H143     1.0000 0.14100  0.75500  0.62100  Biso   1.000  H
  H144     1.0000 0.64100  0.74500  0.37900  Biso   1.000  H
  H145     1.0000 0.48500  0.30800  0.21000  Biso   1.000  H
  H146     1.0000 0.98500  0.19200  0.79000  Biso   1.000  H
  H147     1.0000 0.01500  0.80800  0.79000  Biso   1.000  H
  H148     1.0000 0.51500  0.69200  0.21000  Biso   1.000  H
  H149     1.0000 0.46400  0.30000  0.03000  Biso   1.000  H
  H150     1.0000 0.96400  0.20000  0.97000  Biso   1.000  H
  H151     1.0000 0.03600  0.80000  0.97000  Biso   1.000  H
  H152     1.0000 0.53600  0.70000  0.03000  Biso   1.000  H
  H153     1.0000 0.45400  0.20400  0.18700  Biso   1.000  H
  H154     1.0000 0.95400  0.29600  0.81300  Biso   1.000  H
  H155     1.0000 0.04600  0.70400  0.81300  Biso   1.000  H
  H156     1.0000 0.54600  0.79600  0.18700  Biso   1.000  H
  H157     1.0000 0.35500  0.18400  0.01000  Biso   1.000  H
  H158     1.0000 0.85500  0.31600  0.99000  Biso   1.000  H
  H159     1.0000 0.14500  0.68400  0.99000  Biso   1.000  H
  H160     1.0000 0.64500  0.81600  0.01000  Biso   1.000  H
  H161     1.0000 0.33600  0.23600  0.17300  Biso   1.000  H
  H162     1.0000 0.83600  0.26400  0.82700  Biso   1.000  H
  H163     1.0000 0.16400  0.73600  0.82700  Biso   1.000  H
  H164     1.0000 0.66400  0.76400  0.17300  Biso   1.000  H
  H165     1.0000 0.37500  0.34000  0.05000  Biso   1.000  H
  H166     1.0000 0.87500  0.16000  0.95000  Biso   1.000  H
  H167     1.0000 0.12500  0.84000  0.95000  Biso   1.000  H
  H168     1.0000 0.62500  0.66000  0.05000  Biso   1.000  H
  H169     1.0000 0.27700  0.34300  0.13400  Biso   1.000  H
  H170     1.0000 0.77700  0.15700  0.86600  Biso   1.000  H
  H171     1.0000 0.22300  0.84300  0.86600  Biso   1.000  H
  H172     1.0000 0.72300  0.65700  0.13400  Biso   1.000  H
  H173     1.0000 0.31100  0.38600  0.21700  Biso   1.000  H
  H174     1.0000 0.81100  0.11400  0.78300  Biso   1.000  H
  H175     1.0000 0.18900  0.88600  0.78300  Biso   1.000  H
  H176     1.0000 0.68900  0.61400  0.21700  Biso   1.000  H
  H177     1.0000 0.38000  0.32100  0.77000  Biso   1.000  H
  H178     1.0000 0.88000  0.17900  0.23000  Biso   1.000  H
  H179     1.0000 0.12000  0.82100  0.23000  Biso   1.000  H
  H180     1.0000 0.62000  0.67900  0.77000  Biso   1.000  H
  H181     1.0000 0.34600  0.26100  0.83100  Biso   1.000  H
  H182     1.0000 0.84600  0.23900  0.16900  Biso   1.000  H
  H183     1.0000 0.15400  0.76100  0.16900  Biso   1.000  H
  H184     1.0000 0.65400  0.73900  0.83100  Biso   1.000  H
  H185     1.0000 0.46800  0.19000  0.76500  Biso   1.000  H
  H186     1.0000 0.96800  0.31000  0.23500  Biso   1.000  H
  H187     1.0000 0.03200  0.69000  0.23500  Biso   1.000  H
  H188     1.0000 0.53200  0.81000  0.76500  Biso   1.000  H
  H189     1.0000 0.44100  0.13000  0.76200  Biso   1.000  H
  H190     1.0000 0.94100  0.37000  0.23800  Biso   1.000  H
  H191     1.0000 0.05900  0.63000  0.23800  Biso   1.000  H
  H192     1.0000 0.55900  0.87000  0.76200  Biso   1.000  H
  H193     1.0000 0.30300  0.27500  0.60700  Biso   1.000  H
  H194     1.0000 0.80300  0.22500  0.39300  Biso   1.000  H
  H195     1.0000 0.19700  0.77500  0.39300  Biso   1.000  H
  H196     1.0000 0.69700  0.72500  0.60700  Biso   1.000  H
  H197     1.0000 0.26000  0.20500  0.58000  Biso   1.000  H
  H198     1.0000 0.76000  0.29500  0.42000  Biso   1.000  H
  H199     1.0000 0.24000  0.70500  0.42000  Biso   1.000  H
  H200     1.0000 0.74000  0.79500  0.58000  Biso   1.000  H
  O129     1.0000 0.46670  0.41550  0.00610  Biso   1.000  O
  O130     1.0000 0.96670  0.08450  0.99390  Biso   1.000  O
  O131     1.0000 0.03330  0.91550  0.99390  Biso   1.000  O
  O132     1.0000 0.53330  0.58450  0.00610  Biso   1.000  O
  O133     1.0000 0.06790  0.18110  0.04990  Biso   1.000  O
  O134     1.0000 0.56790  0.31890  0.95010  Biso   1.000  O
  O135     1.0000 0.43210  0.68110  0.95010  Biso   1.000  O
  O136     1.0000 0.93210  0.81890  0.04990  Biso   1.000  O
  O137     1.0000 0.28330  0.12760  0.05980  Biso   1.000  O
  O138     1.0000 0.78330  0.37240  0.94020  Biso   1.000  O
  O139     1.0000 0.21670  0.62760  0.94020  Biso   1.000  O
  O140     1.0000 0.71670  0.87240  0.05980  Biso   1.000  O
  O141     1.0000 0.37420  0.05840  0.07600  Biso   1.000  O
  O142     1.0000 0.87420  0.44160  0.92400  Biso   1.000  O
  O143     1.0000 0.12580  0.55840  0.92400  Biso   1.000  O
  O144     1.0000 0.62580  0.94160  0.07600  Biso   1.000  O
  O145     1.0000 0.41880  0.03720  0.85060  Biso   1.000  O
  O146     1.0000 0.91880  0.46280  0.14940  Biso   1.000  O
  O147     1.0000 0.08120  0.53720  0.14940  Biso   1.000  O
  O148     1.0000 0.58120  0.96280  0.85060  Biso   1.000  O
