data_image0
_cell_length_a       20.813
_cell_length_b       23.356
_cell_length_c       11.392
_cell_angle_alpha    90
_cell_angle_beta     90
_cell_angle_gamma    90

_symmetry_space_group_name_H-M    "P 1"
_symmetry_int_tables_number       1

loop_
  _symmetry_equiv_pos_as_xyz
  'x, y, z'

loop_
  _atom_site_label
  _atom_site_occupancy
  _atom_site_fract_x
  _atom_site_fract_y
  _atom_site_fract_z
  _atom_site_thermal_displace_type
  _atom_site_B_iso_or_equiv
  _atom_site_type_symbol
  Cu1      1.0000 0.80060  0.62820  0.31770  Biso   1.000  Cu
  Cu2      1.0000 0.30060  0.87180  0.68230  Biso   1.000  Cu
  Cu3      1.0000 0.69940  0.12820  0.68230  Biso   1.000  Cu
  Cu4      1.0000 0.19940  0.37180  0.31770  Biso   1.000  Cu
  P1       1.0000 0.73150  0.77000  0.68400  Biso   1.000  P
  P2       1.0000 0.23150  0.73000  0.31600  Biso   1.000  P
  P3       1.0000 0.76850  0.27000  0.31600  Biso   1.000  P
  P4       1.0000 0.26850  0.23000  0.68400  Biso   1.000  P
  O1       1.0000 0.72830  0.62210  0.20510  Biso   1.000  O
  O2       1.0000 0.22830  0.87790  0.79490  Biso   1.000  O
  O3       1.0000 0.77170  0.12210  0.79490  Biso   1.000  O
  O4       1.0000 0.27170  0.37790  0.20510  Biso   1.000  O
  O5       1.0000 0.83680  0.56890  0.21540  Biso   1.000  O
  O6       1.0000 0.33680  0.93110  0.78460  Biso   1.000  O
  O7       1.0000 0.66320  0.06890  0.78460  Biso   1.000  O
  O8       1.0000 0.16320  0.43110  0.21540  Biso   1.000  O
  O9       1.0000 0.76250  0.70060  0.39000  Biso   1.000  O
  O10      1.0000 0.26250  0.79940  0.61000  Biso   1.000  O
  O11      1.0000 0.73750  0.20060  0.61000  Biso   1.000  O
  O12      1.0000 0.23750  0.29940  0.39000  Biso   1.000  O
  O13      1.0000 0.68210  0.81320  0.64890  Biso   1.000  O
  O14      1.0000 0.18210  0.68680  0.35110  Biso   1.000  O
  O15      1.0000 0.81790  0.31320  0.35110  Biso   1.000  O
  O16      1.0000 0.31790  0.18680  0.64890  Biso   1.000  O
  O17      1.0000 0.78000  0.76070  0.59200  Biso   1.000  O
  O18      1.0000 0.28000  0.73930  0.40800  Biso   1.000  O
  O19      1.0000 0.72000  0.26070  0.40800  Biso   1.000  O
  O20      1.0000 0.22000  0.23930  0.59200  Biso   1.000  O
  O21      1.0000 0.76040  0.78740  0.80150  Biso   1.000  O
  O22      1.0000 0.26040  0.71260  0.19850  Biso   1.000  O
  O23      1.0000 0.73960  0.28740  0.19850  Biso   1.000  O
  O24      1.0000 0.23960  0.21260  0.80150  Biso   1.000  O
  O25      1.0000 0.66080  0.59610  0.76270  Biso   1.000  O
  O26      1.0000 0.16080  0.90390  0.23730  Biso   1.000  O
  O27      1.0000 0.83920  0.09610  0.23730  Biso   1.000  O
  O28      1.0000 0.33920  0.40390  0.76270  Biso   1.000  O
  O29      1.0000 0.73530  0.54090  0.97120  Biso   1.000  O
  O30      1.0000 0.23530  0.95910  0.02880  Biso   1.000  O
  O31      1.0000 0.76470  0.04090  0.02880  Biso   1.000  O
  O32      1.0000 0.26470  0.45910  0.97120  Biso   1.000  O
  O33      1.0000 0.76950  0.65190  0.98120  Biso   1.000  O
  O34      1.0000 0.26950  0.84810  0.01880  Biso   1.000  O
  O35      1.0000 0.73050  0.15190  0.01880  Biso   1.000  O
  O36      1.0000 0.23050  0.34810  0.98120  Biso   1.000  O
  O37      1.0000 0.69790  0.70950  0.69690  Biso   1.000  O
  O38      1.0000 0.19790  0.79050  0.30310  Biso   1.000  O
  O39      1.0000 0.80210  0.20950  0.30310  Biso   1.000  O
  O40      1.0000 0.30210  0.29050  0.69690  Biso   1.000  O
  O41      1.0000 0.78260  0.47040  0.28190  Biso   1.000  O
  O42      1.0000 0.28260  0.02960  0.71810  Biso   1.000  O
  O43      1.0000 0.71740  0.97040  0.71810  Biso   1.000  O
  O44      1.0000 0.21740  0.52960  0.28190  Biso   1.000  O
  N1       1.0000 0.75930  0.41460  0.43450  Biso   1.000  N
  N2       1.0000 0.25930  0.08540  0.56550  Biso   1.000  N
  N3       1.0000 0.74070  0.91460  0.56550  Biso   1.000  N
  N4       1.0000 0.24070  0.58540  0.43450  Biso   1.000  N
  N5       1.0000 0.72910  0.34700  0.57770  Biso   1.000  N
  N6       1.0000 0.22910  0.15300  0.42230  Biso   1.000  N
  N7       1.0000 0.77090  0.84700  0.42230  Biso   1.000  N
  N8       1.0000 0.27090  0.65300  0.57770  Biso   1.000  N
  N9       1.0000 0.73110  0.44590  0.62780  Biso   1.000  N
  N10      1.0000 0.23110  0.05410  0.37220  Biso   1.000  N
  N11      1.0000 0.76890  0.94590  0.37220  Biso   1.000  N
  N12      1.0000 0.26890  0.55410  0.62780  Biso   1.000  N
  N13      1.0000 0.76470  0.57290  0.47160  Biso   1.000  N
  N14      1.0000 0.26470  0.92710  0.52840  Biso   1.000  N
  N15      1.0000 0.73530  0.07290  0.52840  Biso   1.000  N
  N16      1.0000 0.23530  0.42710  0.47160  Biso   1.000  N
  N17      1.0000 0.73650  0.54990  0.64870  Biso   1.000  N
  N18      1.0000 0.23650  0.95010  0.35130  Biso   1.000  N
  N19      1.0000 0.76350  0.04990  0.35130  Biso   1.000  N
  N20      1.0000 0.26350  0.45010  0.64870  Biso   1.000  N
  C1       1.0000 0.70590  0.55140  0.76920  Biso   1.000  C
  C2       1.0000 0.20590  0.94860  0.23080  Biso   1.000  C
  C3       1.0000 0.79410  0.05140  0.23080  Biso   1.000  C
  C4       1.0000 0.29410  0.44860  0.76920  Biso   1.000  C
  C5       1.0000 0.76040  0.56660  0.86380  Biso   1.000  C
  C6       1.0000 0.26040  0.93340  0.13620  Biso   1.000  C
  C7       1.0000 0.73960  0.06660  0.13620  Biso   1.000  C
  C8       1.0000 0.23960  0.43340  0.86380  Biso   1.000  C
  C9       1.0000 0.75000  0.63450  0.86960  Biso   1.000  C
  C10      1.0000 0.25000  0.86550  0.13040  Biso   1.000  C
  C11      1.0000 0.75000  0.13450  0.13040  Biso   1.000  C
  C12      1.0000 0.25000  0.36550  0.86960  Biso   1.000  C
  C13      1.0000 0.67690  0.63990  0.85900  Biso   1.000  C
  C14      1.0000 0.17690  0.86010  0.14100  Biso   1.000  C
  C15      1.0000 0.82310  0.13990  0.14100  Biso   1.000  C
  C16      1.0000 0.32310  0.36010  0.85900  Biso   1.000  C
  C17      1.0000 0.65970  0.70190  0.80580  Biso   1.000  C
  C18      1.0000 0.15970  0.79810  0.19420  Biso   1.000  C
  C19      1.0000 0.84030  0.20190  0.19420  Biso   1.000  C
  C20      1.0000 0.34030  0.29810  0.80580  Biso   1.000  C
  C21      1.0000 0.74190  0.40000  0.54830  Biso   1.000  C
  C22      1.0000 0.24190  0.10000  0.45170  Biso   1.000  C
  C23      1.0000 0.75810  0.90000  0.45170  Biso   1.000  C
  C24      1.0000 0.25810  0.60000  0.54830  Biso   1.000  C
  C25      1.0000 0.73910  0.49680  0.58230  Biso   1.000  C
  C26      1.0000 0.23910  0.00320  0.41770  Biso   1.000  C
  C27      1.0000 0.76090  0.99680  0.41770  Biso   1.000  C
  C28      1.0000 0.26090  0.50320  0.58230  Biso   1.000  C
  C29      1.0000 0.75840  0.51210  0.47040  Biso   1.000  C
  C30      1.0000 0.25840  0.98790  0.52960  Biso   1.000  C
  C31      1.0000 0.74160  0.01210  0.52960  Biso   1.000  C
  C32      1.0000 0.24160  0.48790  0.47040  Biso   1.000  C
  C33      1.0000 0.76900  0.47050  0.38970  Biso   1.000  C
  C34      1.0000 0.26900  0.02950  0.61030  Biso   1.000  C
  C35      1.0000 0.73100  0.97050  0.61030  Biso   1.000  C
  C36      1.0000 0.23100  0.52950  0.38970  Biso   1.000  C
  C37      1.0000 0.74850  0.59600  0.58100  Biso   1.000  C
  C38      1.0000 0.24850  0.90400  0.41900  Biso   1.000  C
  C39      1.0000 0.75150  0.09600  0.41900  Biso   1.000  C
  C40      1.0000 0.25150  0.40400  0.58100  Biso   1.000  C
  Cu5      1.0000 0.08830  0.67410  0.35150  Biso   1.000  Cu
  Cu6      1.0000 0.58830  0.82590  0.64850  Biso   1.000  Cu
  Cu7      1.0000 0.41170  0.17410  0.64850  Biso   1.000  Cu
  Cu8      1.0000 0.91170  0.32590  0.35150  Biso   1.000  Cu
  P5       1.0000 0.09520  0.80240  0.71570  Biso   1.000  P
  P6       1.0000 0.59520  0.69760  0.28430  Biso   1.000  P
  P7       1.0000 0.40480  0.30240  0.28430  Biso   1.000  P
  P8       1.0000 0.90480  0.19760  0.71570  Biso   1.000  P
  O45      1.0000 0.10210  0.61050  0.23660  Biso   1.000  O
  O46      1.0000 0.60210  0.88950  0.76340  Biso   1.000  O
  O47      1.0000 0.39790  0.11050  0.76340  Biso   1.000  O
  O48      1.0000 0.89790  0.38950  0.23660  Biso   1.000  O
  O49      1.0000 0.07220  0.74780  0.43780  Biso   1.000  O
  O50      1.0000 0.57220  0.75220  0.56220  Biso   1.000  O
  O51      1.0000 0.42780  0.24780  0.56220  Biso   1.000  O
  O52      1.0000 0.92780  0.25220  0.43780  Biso   1.000  O
  O53      1.0000 0.02380  0.78950  0.68970  Biso   1.000  O
  O54      1.0000 0.52380  0.71050  0.31030  Biso   1.000  O
  O55      1.0000 0.47620  0.28950  0.31030  Biso   1.000  O
  O56      1.0000 0.97620  0.21050  0.68970  Biso   1.000  O
  O57      1.0000 0.13740  0.79510  0.60370  Biso   1.000  O
  O58      1.0000 0.63740  0.70490  0.39630  Biso   1.000  O
  O59      1.0000 0.36260  0.29510  0.39630  Biso   1.000  O
  O60      1.0000 0.86260  0.20490  0.60370  Biso   1.000  O
  O61      1.0000 0.10550  0.86410  0.77160  Biso   1.000  O
  O62      1.0000 0.60550  0.63590  0.22840  Biso   1.000  O
  O63      1.0000 0.39450  0.36410  0.22840  Biso   1.000  O
  O64      1.0000 0.89450  0.13590  0.77160  Biso   1.000  O
  O65      1.0000 0.07360  0.64100  0.88290  Biso   1.000  O
  O66      1.0000 0.57360  0.85900  0.11710  Biso   1.000  O
  O67      1.0000 0.42640  0.14100  0.11710  Biso   1.000  O
  O68      1.0000 0.92640  0.35900  0.88290  Biso   1.000  O
  O69      1.0000 0.23830  0.59770  0.85490  Biso   1.000  O
  O70      1.0000 0.73830  0.90230  0.14510  Biso   1.000  O
  O71      1.0000 0.26170  0.09770  0.14510  Biso   1.000  O
  O72      1.0000 0.76170  0.40230  0.85490  Biso   1.000  O
  O73      1.0000 0.19230  0.64140  0.06140  Biso   1.000  O
  O74      1.0000 0.69230  0.85860  0.93860  Biso   1.000  O
  O75      1.0000 0.30770  0.14140  0.93860  Biso   1.000  O
  O76      1.0000 0.80770  0.35860  0.06140  Biso   1.000  O
  O77      1.0000 0.12170  0.75470  0.79880  Biso   1.000  O
  O78      1.0000 0.62170  0.74530  0.20120  Biso   1.000  O
  O79      1.0000 0.37830  0.25470  0.20120  Biso   1.000  O
  O80      1.0000 0.87830  0.24530  0.79880  Biso   1.000  O
  O81      1.0000 0.07330  0.51430  0.34460  Biso   1.000  O
  O82      1.0000 0.57330  0.98570  0.65540  Biso   1.000  O
  O83      1.0000 0.42670  0.01430  0.65540  Biso   1.000  O
  O84      1.0000 0.92670  0.48570  0.34460  Biso   1.000  O
  N21      1.0000 0.07690  0.46070  0.51360  Biso   1.000  N
  N22      1.0000 0.57690  0.03930  0.48640  Biso   1.000  N
  N23      1.0000 0.42310  0.96070  0.48640  Biso   1.000  N
  N24      1.0000 0.92310  0.53930  0.51360  Biso   1.000  N
  N25      1.0000 0.08260  0.39300  0.67650  Biso   1.000  N
  N26      1.0000 0.58260  0.10700  0.32350  Biso   1.000  N
  N27      1.0000 0.41740  0.89300  0.32350  Biso   1.000  N
  N28      1.0000 0.91740  0.60700  0.67650  Biso   1.000  N
  N29      1.0000 0.09470  0.49220  0.70640  Biso   1.000  N
  N30      1.0000 0.59470  0.00780  0.29360  Biso   1.000  N
  N31      1.0000 0.40530  0.99220  0.29360  Biso   1.000  N
  N32      1.0000 0.90530  0.50780  0.70640  Biso   1.000  N
  N33      1.0000 0.08910  0.61590  0.51930  Biso   1.000  N
  N34      1.0000 0.58910  0.88410  0.48070  Biso   1.000  N
  N35      1.0000 0.41090  0.11590  0.48070  Biso   1.000  N
  N36      1.0000 0.91090  0.38410  0.51930  Biso   1.000  N
  N37      1.0000 0.10950  0.59530  0.70590  Biso   1.000  N
  N38      1.0000 0.60950  0.90470  0.29410  Biso   1.000  N
  N39      1.0000 0.39050  0.09530  0.29410  Biso   1.000  N
  N40      1.0000 0.89050  0.40470  0.70590  Biso   1.000  N
  C41      1.0000 0.12590  0.60520  0.84220  Biso   1.000  C
  C42      1.0000 0.62590  0.89480  0.15780  Biso   1.000  C
  C43      1.0000 0.37410  0.10520  0.15780  Biso   1.000  C
  C44      1.0000 0.87410  0.39480  0.84220  Biso   1.000  C
  C45      1.0000 0.19020  0.63610  0.84540  Biso   1.000  C
  C46      1.0000 0.69020  0.86390  0.15460  Biso   1.000  C
  C47      1.0000 0.30980  0.13610  0.15460  Biso   1.000  C
  C48      1.0000 0.80980  0.36390  0.84540  Biso   1.000  C
  C49      1.0000 0.17760  0.67290  0.94430  Biso   1.000  C
  C50      1.0000 0.67760  0.82710  0.05570  Biso   1.000  C
  C51      1.0000 0.32240  0.17290  0.05570  Biso   1.000  C
  C52      1.0000 0.82240  0.32710  0.94430  Biso   1.000  C
  C53      1.0000 0.10360  0.68820  0.94470  Biso   1.000  C
  C54      1.0000 0.60360  0.81180  0.05530  Biso   1.000  C
  C55      1.0000 0.39640  0.18820  0.05530  Biso   1.000  C
  C56      1.0000 0.89640  0.31180  0.94470  Biso   1.000  C
  C57      1.0000 0.08720  0.74740  0.90810  Biso   1.000  C
  C58      1.0000 0.58720  0.75260  0.09190  Biso   1.000  C
  C59      1.0000 0.41280  0.24740  0.09190  Biso   1.000  C
  C60      1.0000 0.91280  0.25260  0.90810  Biso   1.000  C
  C61      1.0000 0.08570  0.44910  0.63610  Biso   1.000  C
  C62      1.0000 0.58570  0.05090  0.36390  Biso   1.000  C
  C63      1.0000 0.41430  0.94910  0.36390  Biso   1.000  C
  C64      1.0000 0.91430  0.55090  0.63610  Biso   1.000  C
  C65      1.0000 0.09610  0.54310  0.65650  Biso   1.000  C
  C66      1.0000 0.59610  0.95690  0.34350  Biso   1.000  C
  C67      1.0000 0.40390  0.04310  0.34350  Biso   1.000  C
  C68      1.0000 0.90390  0.45690  0.65650  Biso   1.000  C
  C69      1.0000 0.08990  0.55420  0.53470  Biso   1.000  C
  C70      1.0000 0.58990  0.94580  0.46530  Biso   1.000  C
  C71      1.0000 0.41010  0.05420  0.46530  Biso   1.000  C
  C72      1.0000 0.91010  0.44580  0.53470  Biso   1.000  C
  C73      1.0000 0.07690  0.51250  0.45110  Biso   1.000  C
  C74      1.0000 0.57690  0.98750  0.54890  Biso   1.000  C
  C75      1.0000 0.42310  0.01250  0.54890  Biso   1.000  C
  C76      1.0000 0.92310  0.48750  0.45110  Biso   1.000  C
  C77      1.0000 0.10430  0.64100  0.62490  Biso   1.000  C
  C78      1.0000 0.60430  0.85900  0.37510  Biso   1.000  C
  C79      1.0000 0.39570  0.14100  0.37510  Biso   1.000  C
  C80      1.0000 0.89570  0.35900  0.62490  Biso   1.000  C
  Cu9      1.0000 0.94380  0.82560  0.74000  Biso   1.000  Cu
  Cu10     1.0000 0.44380  0.67440  0.26000  Biso   1.000  Cu
  Cu11     1.0000 0.55620  0.32560  0.26000  Biso   1.000  Cu
  Cu12     1.0000 0.05620  0.17440  0.74000  Biso   1.000  Cu
  P9       1.0000 0.93940  0.68770  0.38760  Biso   1.000  P
  P10      1.0000 0.43940  0.81230  0.61240  Biso   1.000  P
  P11      1.0000 0.56060  0.18770  0.61240  Biso   1.000  P
  P12      1.0000 0.06060  0.31230  0.38760  Biso   1.000  P
  O85      1.0000 0.86380  0.84460  0.82520  Biso   1.000  O
  O86      1.0000 0.36380  0.65540  0.17480  Biso   1.000  O
  O87      1.0000 0.63620  0.34460  0.17480  Biso   1.000  O
  O88      1.0000 0.13620  0.15540  0.82520  Biso   1.000  O
  O89      1.0000 0.98990  0.88470  0.85030  Biso   1.000  O
  O90      1.0000 0.48990  0.61530  0.14970  Biso   1.000  O
  O91      1.0000 0.51010  0.38470  0.14970  Biso   1.000  O
  O92      1.0000 0.01010  0.11530  0.85030  Biso   1.000  O
  O93      1.0000 0.89840  0.75660  0.67390  Biso   1.000  O
  O94      1.0000 0.39840  0.74340  0.32610  Biso   1.000  O
  O95      1.0000 0.60160  0.25660  0.32610  Biso   1.000  O
  O96      1.0000 0.10160  0.24340  0.67390  Biso   1.000  O
  O97      1.0000 0.88940  0.64580  0.38320  Biso   1.000  O
  O98      1.0000 0.38940  0.85420  0.61680  Biso   1.000  O
  O99      1.0000 0.61060  0.14580  0.61680  Biso   1.000  O
  O100     1.0000 0.11060  0.35420  0.38320  Biso   1.000  O
  O101     1.0000 0.95480  0.70060  0.51020  Biso   1.000  O
  O102     1.0000 0.45480  0.79940  0.48980  Biso   1.000  O
  O103     1.0000 0.54520  0.20060  0.48980  Biso   1.000  O
  O104     1.0000 0.04520  0.29940  0.51020  Biso   1.000  O
  O105     1.0000 0.99780  0.66630  0.31000  Biso   1.000  O
  O106     1.0000 0.49780  0.83370  0.69000  Biso   1.000  O
  O107     1.0000 0.50220  0.16630  0.69000  Biso   1.000  O
  O108     1.0000 0.00220  0.33370  0.31000  Biso   1.000  O
  O109     1.0000 0.87690  0.85520  0.25600  Biso   1.000  O
  O110     1.0000 0.37690  0.64480  0.74400  Biso   1.000  O
  O111     1.0000 0.62310  0.35520  0.74400  Biso   1.000  O
  O112     1.0000 0.12310  0.14480  0.25600  Biso   1.000  O
  O113     1.0000 0.97050  0.92770  0.10040  Biso   1.000  O
  O114     1.0000 0.47050  0.57230  0.89960  Biso   1.000  O
  O115     1.0000 0.52950  0.42770  0.89960  Biso   1.000  O
  O116     1.0000 0.02950  0.07230  0.10040  Biso   1.000  O
  O117     1.0000 0.01840  0.81820  0.08530  Biso   1.000  O
  O118     1.0000 0.51840  0.68180  0.91470  Biso   1.000  O
  O119     1.0000 0.48160  0.31820  0.91470  Biso   1.000  O
  O120     1.0000 0.98160  0.18180  0.08530  Biso   1.000  O
  O121     1.0000 0.91170  0.74880  0.33820  Biso   1.000  O
  O122     1.0000 0.41170  0.75120  0.66180  Biso   1.000  O
  O123     1.0000 0.58830  0.24880  0.66180  Biso   1.000  O
  O124     1.0000 0.08830  0.25120  0.33820  Biso   1.000  O
  O125     1.0000 0.92530  0.97990  0.77760  Biso   1.000  O
  O126     1.0000 0.42530  0.52010  0.22240  Biso   1.000  O
  O127     1.0000 0.57470  0.47990  0.22240  Biso   1.000  O
  O128     1.0000 0.07470  0.02010  0.77760  Biso   1.000  O
  N41      1.0000 0.91310  0.04410  0.61610  Biso   1.000  N
  N42      1.0000 0.41310  0.45590  0.38390  Biso   1.000  N
  N43      1.0000 0.58690  0.54410  0.38390  Biso   1.000  N
  N44      1.0000 0.08690  0.95590  0.61610  Biso   1.000  N
  N45      1.0000 0.89790  0.10860  0.46770  Biso   1.000  N
  N46      1.0000 0.39790  0.39140  0.53230  Biso   1.000  N
  N47      1.0000 0.60210  0.60860  0.53230  Biso   1.000  N
  N48      1.0000 0.10210  0.89140  0.46770  Biso   1.000  N
  N49      1.0000 0.91470  0.01000  0.42260  Biso   1.000  N
  N50      1.0000 0.41470  0.49000  0.57740  Biso   1.000  N
  N51      1.0000 0.58530  0.51000  0.57740  Biso   1.000  N
  N52      1.0000 0.08530  0.99000  0.42260  Biso   1.000  N
  N53      1.0000 0.93110  0.88470  0.59080  Biso   1.000  N
  N54      1.0000 0.43110  0.61530  0.40920  Biso   1.000  N
  N55      1.0000 0.56890  0.38470  0.40920  Biso   1.000  N
  N56      1.0000 0.06890  0.11530  0.59080  Biso   1.000  N
  N57      1.0000 0.92440  0.90790  0.40640  Biso   1.000  N
  N58      1.0000 0.42440  0.59210  0.59360  Biso   1.000  N
  N59      1.0000 0.57560  0.40790  0.59360  Biso   1.000  N
  N60      1.0000 0.07560  0.09210  0.40640  Biso   1.000  N
  C81      1.0000 0.91100  0.90250  0.27310  Biso   1.000  C
  C82      1.0000 0.41100  0.59750  0.72690  Biso   1.000  C
  C83      1.0000 0.58900  0.40250  0.72690  Biso   1.000  C
  C84      1.0000 0.08900  0.09750  0.27310  Biso   1.000  C
  C85      1.0000 0.97630  0.89730  0.21160  Biso   1.000  C
  C86      1.0000 0.47630  0.60270  0.78840  Biso   1.000  C
  C87      1.0000 0.52370  0.39730  0.78840  Biso   1.000  C
  C88      1.0000 0.02370  0.10270  0.21160  Biso   1.000  C
  C89      1.0000 0.98460  0.83020  0.19350  Biso   1.000  C
  C90      1.0000 0.48460  0.66980  0.80650  Biso   1.000  C
  C91      1.0000 0.51540  0.33020  0.80650  Biso   1.000  C
  C92      1.0000 0.01540  0.16980  0.19350  Biso   1.000  C
  C93      1.0000 0.90790  0.81750  0.18940  Biso   1.000  C
  C94      1.0000 0.40790  0.68250  0.81060  Biso   1.000  C
  C95      1.0000 0.59210  0.31750  0.81060  Biso   1.000  C
  C96      1.0000 0.09210  0.18250  0.18940  Biso   1.000  C
  C97      1.0000 0.89760  0.75510  0.21220  Biso   1.000  C
  C98      1.0000 0.39760  0.74490  0.78780  Biso   1.000  C
  C99      1.0000 0.60240  0.25510  0.78780  Biso   1.000  C
  C100     1.0000 0.10240  0.24490  0.21220  Biso   1.000  C
  C101     1.0000 0.90760  0.05010  0.49370  Biso   1.000  C
  C102     1.0000 0.40760  0.44990  0.50630  Biso   1.000  C
  C103     1.0000 0.59240  0.55010  0.50630  Biso   1.000  C
  C104     1.0000 0.09240  0.94990  0.49370  Biso   1.000  C
  C105     1.0000 0.91840  0.95880  0.46140  Biso   1.000  C
  C106     1.0000 0.41840  0.54120  0.53860  Biso   1.000  C
  C107     1.0000 0.58160  0.45880  0.53860  Biso   1.000  C
  C108     1.0000 0.08160  0.04120  0.46140  Biso   1.000  C
  C109     1.0000 0.92770  0.94200  0.58420  Biso   1.000  C
  C110     1.0000 0.42770  0.55800  0.41580  Biso   1.000  C
  C111     1.0000 0.57230  0.44200  0.41580  Biso   1.000  C
  C112     1.0000 0.07230  0.05800  0.58420  Biso   1.000  C
  C113     1.0000 0.92370  0.99150  0.66290  Biso   1.000  C
  C114     1.0000 0.42370  0.50850  0.33710  Biso   1.000  C
  C115     1.0000 0.57630  0.49150  0.33710  Biso   1.000  C
  C116     1.0000 0.07630  0.00850  0.66290  Biso   1.000  C
  C117     1.0000 0.93140  0.86080  0.48690  Biso   1.000  C
  C118     1.0000 0.43140  0.63920  0.51310  Biso   1.000  C
  C119     1.0000 0.56860  0.36080  0.51310  Biso   1.000  C
  C120     1.0000 0.06860  0.13920  0.48690  Biso   1.000  C
  O129     1.0000 0.67540  0.43010  0.03160  Biso   1.000  O
  O130     1.0000 0.17540  0.06990  0.96840  Biso   1.000  O
  O131     1.0000 0.82460  0.93010  0.96840  Biso   1.000  O
  O132     1.0000 0.32460  0.56990  0.03160  Biso   1.000  O
  O133     1.0000 0.03520  0.41130  0.14870  Biso   1.000  O
  O134     1.0000 0.53520  0.08870  0.85130  Biso   1.000  O
  O135     1.0000 0.46480  0.91130  0.85130  Biso   1.000  O
  O136     1.0000 0.96480  0.58870  0.14870  Biso   1.000  O
  O137     1.0000 0.41320  0.46770  0.00480  Biso   1.000  O
  O138     1.0000 0.91320  0.03230  0.99520  Biso   1.000  O
  O139     1.0000 0.08680  0.96770  0.99520  Biso   1.000  O
  O140     1.0000 0.58680  0.53230  0.00480  Biso   1.000  O
  O141     1.0000 0.55520  0.12510  0.08080  Biso   1.000  O
  O142     1.0000 0.05520  0.37490  0.91920  Biso   1.000  O
  O143     1.0000 0.94480  0.62510  0.91920  Biso   1.000  O
  O144     1.0000 0.44480  0.87490  0.08080  Biso   1.000  O
  O145     1.0000 0.63950  0.22710  0.04610  Biso   1.000  O
  O146     1.0000 0.13950  0.27290  0.95390  Biso   1.000  O
  O147     1.0000 0.86050  0.72710  0.95390  Biso   1.000  O
  O148     1.0000 0.36050  0.77290  0.04610  Biso   1.000  O
