data_image0
_cell_length_a       9.6555
_cell_length_b       8.7154
_cell_length_c       16.45
_cell_angle_alpha    90
_cell_angle_beta     99.868
_cell_angle_gamma    90

_symmetry_space_group_name_H-M    "P 1"
_symmetry_int_tables_number       1

loop_
  _symmetry_equiv_pos_as_xyz
  'x, y, z'

loop_
  _atom_site_label
  _atom_site_occupancy
  _atom_site_fract_x
  _atom_site_fract_y
  _atom_site_fract_z
  _atom_site_thermal_displace_type
  _atom_site_B_iso_or_equiv
  _atom_site_type_symbol
  Cu1      1.0000 0.53420  0.29068  0.14396  Biso   1.000  Cu
  Cu2      1.0000 0.46580  0.79068  0.35604  Biso   1.000  Cu
  Cu3      1.0000 0.46580  0.70932  0.85604  Biso   1.000  Cu
  Cu4      1.0000 0.53420  0.20932  0.64396  Biso   1.000  Cu
  N1       1.0000 0.56910  0.35260  0.26105  Biso   1.000  N
  N2       1.0000 0.43090  0.85260  0.23895  Biso   1.000  N
  N3       1.0000 0.43090  0.64740  0.73895  Biso   1.000  N
  N4       1.0000 0.56910  0.14740  0.76105  Biso   1.000  N
  N5       1.0000 0.59820  0.47390  0.29184  Biso   1.000  N
  N6       1.0000 0.40180  0.97390  0.20816  Biso   1.000  N
  N7       1.0000 0.40180  0.52610  0.70816  Biso   1.000  N
  N8       1.0000 0.59820  0.02610  0.79184  Biso   1.000  N
  N9       1.0000 0.62640  0.58870  0.32710  Biso   1.000  N
  N10      1.0000 0.37360  0.08870  0.17290  Biso   1.000  N
  N11      1.0000 0.37360  0.41130  0.67290  Biso   1.000  N
  N12      1.0000 0.62640  0.91130  0.82710  Biso   1.000  N
  C1       1.0000 0.32270  0.42730  0.02620  Biso   1.000  C
  C2       1.0000 0.67730  0.92730  0.47380  Biso   1.000  C
  C3       1.0000 0.67730  0.57270  0.97380  Biso   1.000  C
  C4       1.0000 0.32270  0.07270  0.52620  Biso   1.000  C
  N13      1.0000 0.37170  0.43120  0.10927  Biso   1.000  N
  N14      1.0000 0.62830  0.93120  0.39073  Biso   1.000  N
  N15      1.0000 0.62830  0.56880  0.89073  Biso   1.000  N
  N16      1.0000 0.37170  0.06880  0.60927  Biso   1.000  N
  C5       1.0000 0.30910  0.52290  0.15580  Biso   1.000  C
  C6       1.0000 0.69090  0.02290  0.34420  Biso   1.000  C
  C7       1.0000 0.69090  0.47710  0.84420  Biso   1.000  C
  C8       1.0000 0.30910  0.97710  0.65580  Biso   1.000  C
  C9       1.0000 0.19390  0.61530  0.12300  Biso   1.000  C
  C10      1.0000 0.80610  0.11530  0.37700  Biso   1.000  C
  C11      1.0000 0.80610  0.38470  0.87700  Biso   1.000  C
  C12      1.0000 0.19390  0.88470  0.62300  Biso   1.000  C
  C13      1.0000 0.14420  0.61360  0.04120  Biso   1.000  C
  C14      1.0000 0.85580  0.11360  0.45880  Biso   1.000  C
  C15      1.0000 0.85580  0.38640  0.95880  Biso   1.000  C
  C16      1.0000 0.14420  0.88640  0.54120  Biso   1.000  C
  C17      1.0000 0.20810  0.51870  0.98840  Biso   1.000  C
  C18      1.0000 0.79190  0.01870  0.51160  Biso   1.000  C
  C19      1.0000 0.79190  0.48130  0.01160  Biso   1.000  C
  C20      1.0000 0.20810  0.98130  0.48840  Biso   1.000  C
  C21      1.0000 0.16650  0.50760  0.90220  Biso   1.000  C
  C22      1.0000 0.83350  0.00760  0.59780  Biso   1.000  C
  C23      1.0000 0.83350  0.49240  0.09780  Biso   1.000  C
  C24      1.0000 0.16650  0.99240  0.40220  Biso   1.000  C
  C25      1.0000 0.23620  0.41450  0.85670  Biso   1.000  C
  C26      1.0000 0.76380  0.91450  0.64330  Biso   1.000  C
  C27      1.0000 0.76380  0.58550  0.14330  Biso   1.000  C
  C28      1.0000 0.23620  0.08550  0.35670  Biso   1.000  C
  C29      1.0000 0.35040  0.32440  0.89400  Biso   1.000  C
  C30      1.0000 0.64960  0.82440  0.60600  Biso   1.000  C
  C31      1.0000 0.64960  0.67560  0.10600  Biso   1.000  C
  C32      1.0000 0.35040  0.17560  0.39400  Biso   1.000  C
  C33      1.0000 0.39450  0.33020  0.97810  Biso   1.000  C
  C34      1.0000 0.60550  0.83020  0.52190  Biso   1.000  C
  C35      1.0000 0.60550  0.66980  0.02190  Biso   1.000  C
  C36      1.0000 0.39450  0.16980  0.47810  Biso   1.000  C
  N17      1.0000 0.50920  0.24940  0.02488  Biso   1.000  N
  N18      1.0000 0.49080  0.74940  0.47512  Biso   1.000  N
  N19      1.0000 0.49080  0.75060  0.97512  Biso   1.000  N
  N20      1.0000 0.50920  0.25060  0.52488  Biso   1.000  N
  C37      1.0000 0.58610  0.15690  0.98890  Biso   1.000  C
  C38      1.0000 0.41390  0.65690  0.51110  Biso   1.000  C
  C39      1.0000 0.41390  0.84310  0.01110  Biso   1.000  C
  C40      1.0000 0.58610  0.34310  0.48890  Biso   1.000  C
  C41      1.0000 0.70510  0.07880  0.02860  Biso   1.000  C
  C42      1.0000 0.29490  0.57880  0.47140  Biso   1.000  C
  C43      1.0000 0.29490  0.92120  0.97140  Biso   1.000  C
  C44      1.0000 0.70510  0.42120  0.52860  Biso   1.000  C
  C45      1.0000 0.75580  0.09080  0.11050  Biso   1.000  C
  C46      1.0000 0.24420  0.59080  0.38950  Biso   1.000  C
  C47      1.0000 0.24420  0.90920  0.88950  Biso   1.000  C
  C48      1.0000 0.75580  0.40920  0.61050  Biso   1.000  C
  C49      1.0000 0.89740  0.01820  0.14490  Biso   1.000  C
  C50      1.0000 0.10260  0.51820  0.35510  Biso   1.000  C
  C51      1.0000 0.10260  0.98180  0.85510  Biso   1.000  C
  C52      1.0000 0.89740  0.48180  0.64490  Biso   1.000  C
  F1       1.0000 0.94630  0.92600  0.09271  Biso   1.000  F
  F2       1.0000 0.05370  0.42600  0.40729  Biso   1.000  F
  F3       1.0000 0.05370  0.07400  0.90729  Biso   1.000  F
  F4       1.0000 0.94630  0.57400  0.59271  Biso   1.000  F
  F5       1.0000 0.89290  0.93450  0.21139  Biso   1.000  F
  F6       1.0000 0.10710  0.43450  0.28861  Biso   1.000  F
  F7       1.0000 0.10710  0.06550  0.78861  Biso   1.000  F
  F8       1.0000 0.89290  0.56550  0.71139  Biso   1.000  F
  F9       1.0000 0.99320  0.12440  0.16740  Biso   1.000  F
  F10      1.0000 0.00680  0.62440  0.33260  Biso   1.000  F
  F11      1.0000 0.00680  0.87560  0.83260  Biso   1.000  F
  F12      1.0000 0.99320  0.37560  0.66740  Biso   1.000  F
  O1       1.0000 0.70390  0.16470  0.16493  Biso   1.000  O
  O2       1.0000 0.29610  0.66470  0.33507  Biso   1.000  O
  O3       1.0000 0.29610  0.83530  0.83507  Biso   1.000  O
  O4       1.0000 0.70390  0.33530  0.66493  Biso   1.000  O
  H1       1.0000 0.34450  0.52600  0.21210  Biso   1.000  H
  H2       1.0000 0.65550  0.02600  0.28790  Biso   1.000  H
  H3       1.0000 0.65550  0.47400  0.78790  Biso   1.000  H
  H4       1.0000 0.34450  0.97400  0.71210  Biso   1.000  H
  H5       1.0000 0.15220  0.67720  0.15780  Biso   1.000  H
  H6       1.0000 0.84780  0.17720  0.34220  Biso   1.000  H
  H7       1.0000 0.84780  0.32280  0.84220  Biso   1.000  H
  H8       1.0000 0.15220  0.82280  0.65780  Biso   1.000  H
  H9       1.0000 0.06790  0.67300  0.01960  Biso   1.000  H
  H10      1.0000 0.93210  0.17300  0.48040  Biso   1.000  H
  H11      1.0000 0.93210  0.32700  0.98040  Biso   1.000  H
  H12      1.0000 0.06790  0.82700  0.51960  Biso   1.000  H
  H13      1.0000 0.09040  0.56600  0.87530  Biso   1.000  H
  H14      1.0000 0.90960  0.06600  0.62470  Biso   1.000  H
  H15      1.0000 0.90960  0.43400  0.12470  Biso   1.000  H
  H16      1.0000 0.09040  0.93400  0.37530  Biso   1.000  H
  H17      1.0000 0.20880  0.40960  0.80040  Biso   1.000  H
  H18      1.0000 0.79120  0.90960  0.69960  Biso   1.000  H
  H19      1.0000 0.79120  0.59040  0.19960  Biso   1.000  H
  H20      1.0000 0.20880  0.09040  0.30040  Biso   1.000  H
  H21      1.0000 0.39420  0.26130  0.86120  Biso   1.000  H
  H22      1.0000 0.60580  0.76130  0.63880  Biso   1.000  H
  H23      1.0000 0.60580  0.73870  0.13880  Biso   1.000  H
  H24      1.0000 0.39420  0.23870  0.36120  Biso   1.000  H
  H25      1.0000 0.56010  0.14280  0.93230  Biso   1.000  H
  H26      1.0000 0.43990  0.64280  0.56770  Biso   1.000  H
  H27      1.0000 0.43990  0.85720  0.06770  Biso   1.000  H
  H28      1.0000 0.56010  0.35720  0.43230  Biso   1.000  H
  H29      1.0000 0.75310  0.01680  0.99660  Biso   1.000  H
  H30      1.0000 0.24690  0.51680  0.50340  Biso   1.000  H
  H31      1.0000 0.24690  0.98320  0.00340  Biso   1.000  H
  H32      1.0000 0.75310  0.48320  0.49660  Biso   1.000  H
