data_image0
_cell_length_a       7.589
_cell_length_b       8.158
_cell_length_c       10.21
_cell_angle_alpha    90
_cell_angle_beta     90
_cell_angle_gamma    87.28

_symmetry_space_group_name_H-M    "P 1"
_symmetry_int_tables_number       1

loop_
  _symmetry_equiv_pos_as_xyz
  'x, y, z'

loop_
  _atom_site_label
  _atom_site_occupancy
  _atom_site_fract_x
  _atom_site_fract_y
  _atom_site_fract_z
  _atom_site_thermal_displace_type
  _atom_site_B_iso_or_equiv
  _atom_site_type_symbol
  Cu1      1.0000 0.23007  0.25890  0.00000  Biso   1.000  Cu
  Cu2      1.0000 0.76993  0.74110  0.50000  Biso   1.000  Cu
  O1       1.0000 0.37250  0.30980  0.14680  Biso   1.000  O
  O2       1.0000 0.62750  0.69020  0.64680  Biso   1.000  O
  O3       1.0000 0.36530  0.35700  0.36030  Biso   1.000  O
  O4       1.0000 0.63470  0.64300  0.86030  Biso   1.000  O
  O5       1.0000 0.69340  0.23340  0.34740  Biso   1.000  O
  O6       1.0000 0.30660  0.76660  0.84740  Biso   1.000  O
  O7       1.0000 0.76870  0.48440  0.39990  Biso   1.000  O
  O8       1.0000 0.23130  0.51560  0.89990  Biso   1.000  O
  O9       1.0000 0.03460  0.32060  0.11910  Biso   1.000  O
  O10      1.0000 0.96540  0.67940  0.61910  Biso   1.000  O
  C1       1.0000 0.28790  0.34550  0.25170  Biso   1.000  C
  C2       1.0000 0.71210  0.65450  0.75170  Biso   1.000  C
  C3       1.0000 0.08980  0.37520  0.24650  Biso   1.000  C
  C4       1.0000 0.91020  0.62480  0.74650  Biso   1.000  C
  C5       1.0000 0.99650  0.27980  0.35240  Biso   1.000  C
  C6       1.0000 0.00350  0.72020  0.85240  Biso   1.000  C
  C7       1.0000 0.80760  0.34760  0.37090  Biso   1.000  C
  C8       1.0000 0.19240  0.65240  0.87090  Biso   1.000  C
  O11      1.0000 0.09540  0.18040  0.85310  Biso   1.000  O
  O12      1.0000 0.90460  0.81960  0.35310  Biso   1.000  O
  O13      1.0000 0.12310  0.10860  0.64400  Biso   1.000  O
  O14      1.0000 0.87690  0.89140  0.14400  Biso   1.000  O
  O15      1.0000 0.79600  0.02770  0.62350  Biso   1.000  O
  O16      1.0000 0.20400  0.97230  0.12350  Biso   1.000  O
  O17      1.0000 0.72140  0.28440  0.68400  Biso   1.000  O
  O18      1.0000 0.27860  0.71560  0.18400  Biso   1.000  O
  O19      1.0000 0.42670  0.18370  0.89040  Biso   1.000  O
  O20      1.0000 0.57330  0.81630  0.39040  Biso   1.000  O
  C9       1.0000 0.18600  0.15600  0.74840  Biso   1.000  C
  C10      1.0000 0.81400  0.84400  0.24840  Biso   1.000  C
  C11      1.0000 0.38170  0.19780  0.75410  Biso   1.000  C
  C12      1.0000 0.61830  0.80220  0.25410  Biso   1.000  C
  C13      1.0000 0.49640  0.09030  0.66750  Biso   1.000  C
  C14      1.0000 0.50360  0.90970  0.16750  Biso   1.000  C
  C15      1.0000 0.68340  0.14580  0.66100  Biso   1.000  C
  C16      1.0000 0.31660  0.85420  0.16100  Biso   1.000  C
  H1       1.0000 0.06500  0.50300  0.25600  Biso   1.000  H
  H2       1.0000 0.93500  0.49700  0.75600  Biso   1.000  H
  H3       1.0000 0.03200  0.30700  0.42100  Biso   1.000  H
  H4       1.0000 0.96800  0.69300  0.92100  Biso   1.000  H
  H5       1.0000 0.99400  0.12700  0.33300  Biso   1.000  H
  H6       1.0000 0.00600  0.87300  0.83300  Biso   1.000  H
  H7       1.0000 0.97100  0.37600  0.10200  Biso   1.000  H
  H8       1.0000 0.02900  0.62400  0.60200  Biso   1.000  H
  H9       1.0000 0.37000  0.33800  0.73300  Biso   1.000  H
  H10      1.0000 0.63000  0.66200  0.23300  Biso   1.000  H
  H11      1.0000 0.53500  0.96600  0.68700  Biso   1.000  H
  H12      1.0000 0.46500  0.03400  0.18700  Biso   1.000  H
  H13      1.0000 0.49800  0.14500  0.90500  Biso   1.000  H
  H14      1.0000 0.50200  0.85500  0.40500  Biso   1.000  H
  O21      1.0000 0.72250  0.45580  0.07670  Biso   1.000  O
  O22      1.0000 0.27750  0.54420  0.57670  Biso   1.000  O
  H15      1.0000 0.69300  0.51900  0.02200  Biso   1.000  H
  H16      1.0000 0.30700  0.48100  0.52200  Biso   1.000  H
  H17      1.0000 0.68700  0.40700  0.09100  Biso   1.000  H
  H18      1.0000 0.31300  0.59300  0.59100  Biso   1.000  H
  O23      1.0000 0.24690  0.90020  0.44100  Biso   1.000  O
  O24      1.0000 0.75310  0.09980  0.94100  Biso   1.000  O
  H19      1.0000 0.21400  0.97800  0.49400  Biso   1.000  H
  H20      1.0000 0.78600  0.02200  0.99400  Biso   1.000  H
