data_image0
_cell_length_a       7.591
_cell_length_b       10.23
_cell_length_c       8.184
_cell_angle_alpha    90
_cell_angle_beta     92.799
_cell_angle_gamma    90

_symmetry_space_group_name_H-M    "P 1"
_symmetry_int_tables_number       1

loop_
  _symmetry_equiv_pos_as_xyz
  'x, y, z'

loop_
  _atom_site_label
  _atom_site_occupancy
  _atom_site_fract_x
  _atom_site_fract_y
  _atom_site_fract_z
  _atom_site_thermal_displace_type
  _atom_site_B_iso_or_equiv
  _atom_site_type_symbol
  Cu1      1.0000 0.26975  0.26825  0.25879  Biso   1.000  Cu
  Cu2      1.0000 0.73025  0.76825  0.74121  Biso   1.000  Cu
  O1       1.0000 0.12698  0.12132  0.31054  Biso   1.000  O
  O2       1.0000 0.87302  0.62132  0.68946  Biso   1.000  O
  O3       1.0000 0.13540  0.90864  0.35650  Biso   1.000  O
  O4       1.0000 0.86460  0.40864  0.64350  Biso   1.000  O
  O5       1.0000 0.46601  0.14955  0.32140  Biso   1.000  O
  O6       1.0000 0.53399  0.64955  0.67860  Biso   1.000  O
  H1       1.0000 0.56200  0.16700  0.36650  Biso   1.000  H
  H2       1.0000 0.43800  0.66700  0.63350  Biso   1.000  H
  O7       1.0000 0.73170  0.86934  0.48510  Biso   1.000  O
  O8       1.0000 0.26830  0.36934  0.51490  Biso   1.000  O
  O9       1.0000 0.80750  0.92170  0.23540  Biso   1.000  O
  O10      1.0000 0.19250  0.42170  0.76460  Biso   1.000  O
  H3       1.0000 0.90710  0.91000  0.27630  Biso   1.000  H
  H4       1.0000 0.09290  0.41000  0.72370  Biso   1.000  H
  O11      1.0000 0.40437  0.41507  0.18154  Biso   1.000  O
  O12      1.0000 0.59563  0.91507  0.81846  Biso   1.000  O
  O13      1.0000 0.37621  0.62420  0.11010  Biso   1.000  O
  O14      1.0000 0.62379  0.12420  0.88990  Biso   1.000  O
  O15      1.0000 0.07200  0.37803  0.18340  Biso   1.000  O
  O16      1.0000 0.92800  0.87803  0.81660  Biso   1.000  O
  H5       1.0000 0.96500  0.37180  0.16650  Biso   1.000  H
  H6       1.0000 0.03500  0.87180  0.83350  Biso   1.000  H
  O17      1.0000 0.77750  0.58450  0.28350  Biso   1.000  O
  O18      1.0000 0.22250  0.08450  0.71650  Biso   1.000  O
  O19      1.0000 0.70280  0.64511  0.02828  Biso   1.000  O
  O20      1.0000 0.29720  0.14511  0.97172  Biso   1.000  O
  H7       1.0000 0.61660  0.59680  0.02710  Biso   1.000  H
  H8       1.0000 0.38340  0.09680  0.97290  Biso   1.000  H
  C1       1.0000 0.20850  0.01540  0.34480  Biso   1.000  C
  C2       1.0000 0.79150  0.51540  0.65520  Biso   1.000  C
  C3       1.0000 0.40930  0.02244  0.37390  Biso   1.000  C
  C4       1.0000 0.59070  0.52244  0.62610  Biso   1.000  C
  H9       1.0000 0.43880  0.01280  0.49120  Biso   1.000  H
  H10      1.0000 0.56120  0.51280  0.50880  Biso   1.000  H
  C5       1.0000 0.50240  0.91500  0.28100  Biso   1.000  C
  C6       1.0000 0.49760  0.41500  0.71900  Biso   1.000  C
  H11      1.0000 0.43960  0.83310  0.29220  Biso   1.000  H
  H12      1.0000 0.56040  0.33310  0.70780  Biso   1.000  H
  H13      1.0000 0.50080  0.93700  0.16560  Biso   1.000  H
  H14      1.0000 0.49920  0.43700  0.83440  Biso   1.000  H
  C7       1.0000 0.69050  0.89878  0.34560  Biso   1.000  C
  C8       1.0000 0.30950  0.39878  0.65440  Biso   1.000  C
  C9       1.0000 0.31420  0.51890  0.15750  Biso   1.000  C
  C10      1.0000 0.68580  0.01890  0.84250  Biso   1.000  C
  C11      1.0000 0.11990  0.51375  0.19800  Biso   1.000  C
  C12      1.0000 0.88010  0.01375  0.80200  Biso   1.000  C
  H15      1.0000 0.10960  0.54070  0.31210  Biso   1.000  H
  H16      1.0000 0.89040  0.04070  0.68790  Biso   1.000  H
  C13      1.0000 0.00370  0.60110  0.09010  Biso   1.000  C
  C14      1.0000 0.99630  0.10110  0.90990  Biso   1.000  C
  H17      1.0000 0.05380  0.68830  0.08980  Biso   1.000  H
  H18      1.0000 0.94620  0.18830  0.91020  Biso   1.000  H
  H19      1.0000 0.00090  0.56810  0.97890  Biso   1.000  H
  H20      1.0000 0.99910  0.06810  0.02110  Biso   1.000  H
  C15      1.0000 0.81820  0.60810  0.14710  Biso   1.000  C
  C16      1.0000 0.18180  0.10810  0.85290  Biso   1.000  C
  O21      1.0000 0.22280  0.69178  0.54410  Biso   1.000  O
  O22      1.0000 0.77720  0.19178  0.45590  Biso   1.000  O
  H21      1.0000 0.14000  0.66300  0.58000  Biso   1.000  H
  H22      1.0000 0.86000  0.16300  0.42000  Biso   1.000  H
  H23      1.0000 0.21000  0.76200  0.50000  Biso   1.000  H
  H24      1.0000 0.79000  0.26200  0.50000  Biso   1.000  H
  O23      1.0000 0.74640  0.32810  0.09830  Biso   1.000  O
  O24      1.0000 0.25360  0.82810  0.90170  Biso   1.000  O
  H25      1.0000 0.73600  0.26200  0.04300  Biso   1.000  H
  H26      1.0000 0.26400  0.76200  0.95700  Biso   1.000  H
  H27      1.0000 0.64700  0.34800  0.13000  Biso   1.000  H
  H28      1.0000 0.35300  0.84800  0.87000  Biso   1.000  H
