data_image0
_cell_length_a       15.0179
_cell_length_b       16.2881
_cell_length_c       18.5719
_cell_angle_alpha    90
_cell_angle_beta     102.964
_cell_angle_gamma    90

_symmetry_space_group_name_H-M    "P 1"
_symmetry_int_tables_number       1

loop_
  _symmetry_equiv_pos_as_xyz
  'x, y, z'

loop_
  _atom_site_label
  _atom_site_occupancy
  _atom_site_fract_x
  _atom_site_fract_y
  _atom_site_fract_z
  _atom_site_thermal_displace_type
  _atom_site_B_iso_or_equiv
  _atom_site_type_symbol
  Cu1      1.0000 0.50000  0.50000  0.50000  Biso   1.000  Cu
  Cu2      1.0000 0.50000  0.00000  0.00000  Biso   1.000  Cu
  N1       1.0000 0.45400  0.45270  0.39830  Biso   1.000  N
  N2       1.0000 0.54600  0.95270  0.10170  Biso   1.000  N
  N3       1.0000 0.54600  0.54730  0.60170  Biso   1.000  N
  N4       1.0000 0.45400  0.04730  0.89830  Biso   1.000  N
  N5       1.0000 0.44810  0.10220  0.03690  Biso   1.000  N
  N6       1.0000 0.55190  0.60220  0.46310  Biso   1.000  N
  N7       1.0000 0.55190  0.89780  0.96310  Biso   1.000  N
  N8       1.0000 0.44810  0.39780  0.53690  Biso   1.000  N
  C1       1.0000 0.47010  0.17720  0.01530  Biso   1.000  C
  C2       1.0000 0.52990  0.67720  0.48470  Biso   1.000  C
  C3       1.0000 0.52990  0.82280  0.98470  Biso   1.000  C
  C4       1.0000 0.47010  0.32280  0.51530  Biso   1.000  C
  H1       1.0000 0.52200  0.18190  0.99420  Biso   1.000  H
  H2       1.0000 0.47800  0.68190  0.50580  Biso   1.000  H
  H3       1.0000 0.47800  0.81810  0.00580  Biso   1.000  H
  H4       1.0000 0.52200  0.31810  0.49420  Biso   1.000  H
  C5       1.0000 0.42170  0.24670  0.02210  Biso   1.000  C
  C6       1.0000 0.57830  0.74670  0.47790  Biso   1.000  C
  C7       1.0000 0.57830  0.75330  0.97790  Biso   1.000  C
  C8       1.0000 0.42170  0.25330  0.52210  Biso   1.000  C
  H5       1.0000 0.44000  0.29790  0.00570  Biso   1.000  H
  H6       1.0000 0.56000  0.79790  0.49430  Biso   1.000  H
  H7       1.0000 0.56000  0.70210  0.99430  Biso   1.000  H
  H8       1.0000 0.44000  0.20210  0.50570  Biso   1.000  H
  C9       1.0000 0.34590  0.24220  0.05300  Biso   1.000  C
  C10      1.0000 0.65410  0.74220  0.44700  Biso   1.000  C
  C11      1.0000 0.65410  0.75780  0.94700  Biso   1.000  C
  C12      1.0000 0.34590  0.25780  0.55300  Biso   1.000  C
  C13      1.0000 0.32440  0.16570  0.07820  Biso   1.000  C
  C14      1.0000 0.67560  0.66570  0.42180  Biso   1.000  C
  C15      1.0000 0.67560  0.83430  0.92180  Biso   1.000  C
  C16      1.0000 0.32440  0.33430  0.57820  Biso   1.000  C
  H9       1.0000 0.27450  0.16000  0.10150  Biso   1.000  H
  H10      1.0000 0.72550  0.66000  0.39850  Biso   1.000  H
  H11      1.0000 0.72550  0.84000  0.89850  Biso   1.000  H
  H12      1.0000 0.27450  0.34000  0.60150  Biso   1.000  H
  C17      1.0000 0.37660  0.09870  0.06890  Biso   1.000  C
  C18      1.0000 0.62340  0.59870  0.43110  Biso   1.000  C
  C19      1.0000 0.62340  0.90130  0.93110  Biso   1.000  C
  C20      1.0000 0.37660  0.40130  0.56890  Biso   1.000  C
  H13      1.0000 0.36100  0.04690  0.08620  Biso   1.000  H
  H14      1.0000 0.63900  0.54690  0.41380  Biso   1.000  H
  H15      1.0000 0.63900  0.95310  0.91380  Biso   1.000  H
  H16      1.0000 0.36100  0.45310  0.58620  Biso   1.000  H
  C21      1.0000 0.29120  0.31760  0.06250  Biso   1.000  C
  C22      1.0000 0.70880  0.81760  0.43750  Biso   1.000  C
  C23      1.0000 0.70880  0.68240  0.93750  Biso   1.000  C
  C24      1.0000 0.29120  0.18240  0.56250  Biso   1.000  C
  H17      1.0000 0.28720  0.35440  0.01940  Biso   1.000  H
  H18      1.0000 0.71280  0.85440  0.48060  Biso   1.000  H
  H19      1.0000 0.71280  0.64560  0.98060  Biso   1.000  H
  H20      1.0000 0.28720  0.14560  0.51940  Biso   1.000  H
  H21      1.0000 0.22840  0.30120  0.06470  Biso   1.000  H
  H22      1.0000 0.77160  0.80120  0.43530  Biso   1.000  H
  H23      1.0000 0.77160  0.69880  0.93530  Biso   1.000  H
  H24      1.0000 0.22840  0.19880  0.56470  Biso   1.000  H
  C25      1.0000 0.33580  0.36390  0.13350  Biso   1.000  C
  C26      1.0000 0.66420  0.86390  0.36650  Biso   1.000  C
  C27      1.0000 0.66420  0.63610  0.86650  Biso   1.000  C
  C28      1.0000 0.33580  0.13610  0.63350  Biso   1.000  C
  H25      1.0000 0.29910  0.41340  0.13800  Biso   1.000  H
  H26      1.0000 0.70090  0.91340  0.36200  Biso   1.000  H
  H27      1.0000 0.70090  0.58660  0.86200  Biso   1.000  H
  H28      1.0000 0.29910  0.08660  0.63800  Biso   1.000  H
  H29      1.0000 0.39760  0.38220  0.13010  Biso   1.000  H
  H30      1.0000 0.60240  0.88220  0.36990  Biso   1.000  H
  H31      1.0000 0.60240  0.61780  0.86990  Biso   1.000  H
  H32      1.0000 0.39760  0.11780  0.63010  Biso   1.000  H
  C29      1.0000 0.34330  0.31070  0.20250  Biso   1.000  C
  C30      1.0000 0.65670  0.81070  0.29750  Biso   1.000  C
  C31      1.0000 0.65670  0.68930  0.79750  Biso   1.000  C
  C32      1.0000 0.34330  0.18930  0.70250  Biso   1.000  C
  H33      1.0000 0.38300  0.26280  0.19970  Biso   1.000  H
  H34      1.0000 0.61700  0.76280  0.30030  Biso   1.000  H
  H35      1.0000 0.61700  0.73720  0.80030  Biso   1.000  H
  H36      1.0000 0.38300  0.23720  0.69970  Biso   1.000  H
  H37      1.0000 0.28210  0.29010  0.20490  Biso   1.000  H
  H38      1.0000 0.71790  0.79010  0.29510  Biso   1.000  H
  H39      1.0000 0.71790  0.70990  0.79510  Biso   1.000  H
  H40      1.0000 0.28210  0.20990  0.70490  Biso   1.000  H
  C33      1.0000 0.38240  0.35920  0.27040  Biso   1.000  C
  C34      1.0000 0.61760  0.85920  0.22960  Biso   1.000  C
  C35      1.0000 0.61760  0.64080  0.72960  Biso   1.000  C
  C36      1.0000 0.38240  0.14080  0.77040  Biso   1.000  C
  C37      1.0000 0.47510  0.37340  0.29470  Biso   1.000  C
  C38      1.0000 0.52490  0.87340  0.20530  Biso   1.000  C
  C39      1.0000 0.52490  0.62660  0.70530  Biso   1.000  C
  C40      1.0000 0.47510  0.12660  0.79470  Biso   1.000  C
  H41      1.0000 0.51660  0.35110  0.26800  Biso   1.000  H
  H42      1.0000 0.48340  0.85110  0.23200  Biso   1.000  H
  H43      1.0000 0.48340  0.64890  0.73200  Biso   1.000  H
  H44      1.0000 0.51660  0.14890  0.76800  Biso   1.000  H
  C41      1.0000 0.50800  0.41970  0.35740  Biso   1.000  C
  C42      1.0000 0.49200  0.91970  0.14260  Biso   1.000  C
  C43      1.0000 0.49200  0.58030  0.64260  Biso   1.000  C
  C44      1.0000 0.50800  0.08030  0.85740  Biso   1.000  C
  H45      1.0000 0.57200  0.42850  0.37230  Biso   1.000  H
  H46      1.0000 0.42800  0.92850  0.12770  Biso   1.000  H
  H47      1.0000 0.42800  0.57150  0.62770  Biso   1.000  H
  H48      1.0000 0.57200  0.07150  0.87230  Biso   1.000  H
  C45      1.0000 0.36340  0.43940  0.37450  Biso   1.000  C
  C46      1.0000 0.63660  0.93940  0.12550  Biso   1.000  C
  C47      1.0000 0.63660  0.56060  0.62550  Biso   1.000  C
  C48      1.0000 0.36340  0.06060  0.87450  Biso   1.000  C
  H49      1.0000 0.32350  0.46200  0.40250  Biso   1.000  H
  H50      1.0000 0.67650  0.96200  0.09750  Biso   1.000  H
  H51      1.0000 0.67650  0.53800  0.59750  Biso   1.000  H
  H52      1.0000 0.32350  0.03800  0.90250  Biso   1.000  H
  C49      1.0000 0.32600  0.39550  0.31280  Biso   1.000  C
  C50      1.0000 0.67400  0.89550  0.18720  Biso   1.000  C
  C51      1.0000 0.67400  0.60450  0.68720  Biso   1.000  C
  C52      1.0000 0.32600  0.10450  0.81280  Biso   1.000  C
  H53      1.0000 0.26160  0.38920  0.29820  Biso   1.000  H
  H54      1.0000 0.73840  0.88920  0.20180  Biso   1.000  H
  H55      1.0000 0.73840  0.61080  0.70180  Biso   1.000  H
  H56      1.0000 0.26160  0.11080  0.79820  Biso   1.000  H
  Cl1      1.0000 0.25978  0.59447  0.48949  Biso   1.000  Cl
  Cl2      1.0000 0.74022  0.09447  0.01051  Biso   1.000  Cl
  Cl3      1.0000 0.74022  0.40553  0.51051  Biso   1.000  Cl
  Cl4      1.0000 0.25978  0.90553  0.98949  Biso   1.000  Cl
  O1       1.0000 0.35380  0.58410  0.48385  Biso   1.000  O
  O2       1.0000 0.64620  0.08410  0.01615  Biso   1.000  O
  O3       1.0000 0.64620  0.41590  0.51615  Biso   1.000  O
  O4       1.0000 0.35380  0.91590  0.98385  Biso   1.000  O
  O5       1.0000 0.21960  0.66040  0.44300  Biso   1.000  O
  O6       1.0000 0.78040  0.16040  0.05700  Biso   1.000  O
  O7       1.0000 0.78040  0.33960  0.55700  Biso   1.000  O
  O8       1.0000 0.21960  0.83960  0.94300  Biso   1.000  O
  O9       1.0000 0.25880  0.61220  0.56544  Biso   1.000  O
  O10      1.0000 0.74120  0.11220  0.93456  Biso   1.000  O
  O11      1.0000 0.74120  0.38780  0.43456  Biso   1.000  O
  O12      1.0000 0.25880  0.88780  0.06544  Biso   1.000  O
  O13      1.0000 0.21090  0.51950  0.46686  Biso   1.000  O
  O14      1.0000 0.78910  0.01950  0.03314  Biso   1.000  O
  O15      1.0000 0.78910  0.48050  0.53314  Biso   1.000  O
  O16      1.0000 0.21090  0.98050  0.96686  Biso   1.000  O
  Cu3      1.0000 0.16100  0.95813  0.34533  Biso   1.000  Cu
  Cu4      1.0000 0.83900  0.45813  0.15467  Biso   1.000  Cu
  Cu5      1.0000 0.83900  0.04187  0.65467  Biso   1.000  Cu
  Cu6      1.0000 0.16100  0.54187  0.84533  Biso   1.000  Cu
  N9       1.0000 0.22180  0.92330  0.44870  Biso   1.000  N
  N10      1.0000 0.77820  0.42330  0.05130  Biso   1.000  N
  N11      1.0000 0.77820  0.07670  0.55130  Biso   1.000  N
  N12      1.0000 0.22180  0.57670  0.94870  Biso   1.000  N
  N13      1.0000 0.19740  0.65040  0.80870  Biso   1.000  N
  N14      1.0000 0.80260  0.15040  0.69130  Biso   1.000  N
  N15      1.0000 0.80260  0.34960  0.19130  Biso   1.000  N
  N16      1.0000 0.19740  0.84960  0.30870  Biso   1.000  N
  N17      1.0000 0.12960  0.06920  0.38280  Biso   1.000  N
  N18      1.0000 0.87040  0.56920  0.11720  Biso   1.000  N
  N19      1.0000 0.87040  0.93080  0.61720  Biso   1.000  N
  N20      1.0000 0.12960  0.43080  0.88280  Biso   1.000  N
  N21      1.0000 0.10420  0.50430  0.74131  Biso   1.000  N
  N22      1.0000 0.89580  0.00430  0.75869  Biso   1.000  N
  N23      1.0000 0.89580  0.49570  0.25869  Biso   1.000  N
  N24      1.0000 0.10420  0.99570  0.24131  Biso   1.000  N
  C53      1.0000 0.19830  0.85420  0.47980  Biso   1.000  C
  C54      1.0000 0.80170  0.35420  0.02020  Biso   1.000  C
  C55      1.0000 0.80170  0.14580  0.52020  Biso   1.000  C
  C56      1.0000 0.19830  0.64580  0.97980  Biso   1.000  C
  H57      1.0000 0.14650  0.82430  0.45420  Biso   1.000  H
  H58      1.0000 0.85350  0.32430  0.04580  Biso   1.000  H
  H59      1.0000 0.85350  0.17570  0.54580  Biso   1.000  H
  H60      1.0000 0.14650  0.67570  0.95420  Biso   1.000  H
  C57      1.0000 0.24620  0.82470  0.54730  Biso   1.000  C
  C58      1.0000 0.75380  0.32470  0.95270  Biso   1.000  C
  C59      1.0000 0.75380  0.17530  0.45270  Biso   1.000  C
  C60      1.0000 0.24620  0.67530  0.04730  Biso   1.000  C
  H61      1.0000 0.22640  0.77620  0.56750  Biso   1.000  H
  H62      1.0000 0.77360  0.27620  0.93250  Biso   1.000  H
  H63      1.0000 0.77360  0.22380  0.43250  Biso   1.000  H
  H64      1.0000 0.22640  0.72380  0.06750  Biso   1.000  H
  C61      1.0000 0.32310  0.86600  0.58540  Biso   1.000  C
  C62      1.0000 0.67690  0.36600  0.91460  Biso   1.000  C
  C63      1.0000 0.67690  0.13400  0.41460  Biso   1.000  C
  C64      1.0000 0.32310  0.63400  0.08540  Biso   1.000  C
  C65      1.0000 0.34770  0.93740  0.55290  Biso   1.000  C
  C66      1.0000 0.65230  0.43740  0.94710  Biso   1.000  C
  C67      1.0000 0.65230  0.06260  0.44710  Biso   1.000  C
  C68      1.0000 0.34770  0.56260  0.05290  Biso   1.000  C
  H65      1.0000 0.40000  0.96770  0.57690  Biso   1.000  H
  H66      1.0000 0.60000  0.46770  0.92310  Biso   1.000  H
  H67      1.0000 0.60000  0.03230  0.42310  Biso   1.000  H
  H68      1.0000 0.40000  0.53230  0.07690  Biso   1.000  H
  C69      1.0000 0.29590  0.96360  0.48630  Biso   1.000  C
  C70      1.0000 0.70410  0.46360  0.01370  Biso   1.000  C
  C71      1.0000 0.70410  0.03640  0.51370  Biso   1.000  C
  C72      1.0000 0.29590  0.53640  0.98630  Biso   1.000  C
  H69      1.0000 0.31340  0.01290  0.46580  Biso   1.000  H
  H70      1.0000 0.68660  0.51290  0.03420  Biso   1.000  H
  H71      1.0000 0.68660  0.98710  0.53420  Biso   1.000  H
  H72      1.0000 0.31340  0.48710  0.96580  Biso   1.000  H
  C73      1.0000 0.37920  0.83600  0.65810  Biso   1.000  C
  C74      1.0000 0.62080  0.33600  0.84190  Biso   1.000  C
  C75      1.0000 0.62080  0.16400  0.34190  Biso   1.000  C
  C76      1.0000 0.37920  0.66400  0.15810  Biso   1.000  C
  H73      1.0000 0.44410  0.83320  0.65520  Biso   1.000  H
  H74      1.0000 0.55590  0.33320  0.84480  Biso   1.000  H
  H75      1.0000 0.55590  0.16680  0.34480  Biso   1.000  H
  H76      1.0000 0.44410  0.66680  0.15520  Biso   1.000  H
  H77      1.0000 0.35930  0.77980  0.66740  Biso   1.000  H
  H78      1.0000 0.64070  0.27980  0.83260  Biso   1.000  H
  H79      1.0000 0.64070  0.22020  0.33260  Biso   1.000  H
  H80      1.0000 0.35930  0.72020  0.16740  Biso   1.000  H
  C77      1.0000 0.37070  0.89120  0.72260  Biso   1.000  C
  C78      1.0000 0.62930  0.39120  0.77740  Biso   1.000  C
  C79      1.0000 0.62930  0.10880  0.27740  Biso   1.000  C
  C80      1.0000 0.37070  0.60880  0.22260  Biso   1.000  C
  H81      1.0000 0.41770  0.87480  0.76670  Biso   1.000  H
  H82      1.0000 0.58230  0.37480  0.73330  Biso   1.000  H
  H83      1.0000 0.58230  0.12520  0.23330  Biso   1.000  H
  H84      1.0000 0.41770  0.62520  0.26670  Biso   1.000  H
  H85      1.0000 0.38370  0.94850  0.71050  Biso   1.000  H
  H86      1.0000 0.61630  0.44850  0.78950  Biso   1.000  H
  H87      1.0000 0.61630  0.05150  0.28950  Biso   1.000  H
  H88      1.0000 0.38370  0.55150  0.21050  Biso   1.000  H
  C81      1.0000 0.27730  0.88830  0.74170  Biso   1.000  C
  C82      1.0000 0.72270  0.38830  0.75830  Biso   1.000  C
  C83      1.0000 0.72270  0.11170  0.25830  Biso   1.000  C
  C84      1.0000 0.27730  0.61170  0.24170  Biso   1.000  C
  H89      1.0000 0.27710  0.92750  0.78250  Biso   1.000  H
  H90      1.0000 0.72290  0.42750  0.71750  Biso   1.000  H
  H91      1.0000 0.72290  0.07250  0.21750  Biso   1.000  H
  H92      1.0000 0.27710  0.57250  0.28250  Biso   1.000  H
  H93      1.0000 0.23070  0.90700  0.69830  Biso   1.000  H
  H94      1.0000 0.76930  0.40700  0.80170  Biso   1.000  H
  H95      1.0000 0.76930  0.09300  0.30170  Biso   1.000  H
  H96      1.0000 0.23070  0.59300  0.19830  Biso   1.000  H
  C85      1.0000 0.25020  0.80440  0.76460  Biso   1.000  C
  C86      1.0000 0.74980  0.30440  0.73540  Biso   1.000  C
  C87      1.0000 0.74980  0.19560  0.23540  Biso   1.000  C
  C88      1.0000 0.25020  0.69560  0.26460  Biso   1.000  C
  C89      1.0000 0.31240  0.75250  0.80850  Biso   1.000  C
  C90      1.0000 0.68760  0.25250  0.69150  Biso   1.000  C
  C91      1.0000 0.68760  0.24750  0.19150  Biso   1.000  C
  C92      1.0000 0.31240  0.74750  0.30850  Biso   1.000  C
  H97      1.0000 0.37460  0.76850  0.82430  Biso   1.000  H
  H98      1.0000 0.62540  0.26850  0.67570  Biso   1.000  H
  H99      1.0000 0.62540  0.23150  0.17570  Biso   1.000  H
  H100     1.0000 0.37460  0.73150  0.32430  Biso   1.000  H
  C93      1.0000 0.28400  0.67730  0.82940  Biso   1.000  C
  C94      1.0000 0.71600  0.17730  0.67060  Biso   1.000  C
  C95      1.0000 0.71600  0.32270  0.17060  Biso   1.000  C
  C96      1.0000 0.28400  0.82270  0.32940  Biso   1.000  C
  H101     1.0000 0.32780  0.64280  0.85990  Biso   1.000  H
  H102     1.0000 0.67220  0.14280  0.64010  Biso   1.000  H
  H103     1.0000 0.67220  0.35720  0.14010  Biso   1.000  H
  H104     1.0000 0.32780  0.85720  0.35990  Biso   1.000  H
  C97      1.0000 0.13690  0.70070  0.76630  Biso   1.000  C
  C98      1.0000 0.86310  0.20070  0.73370  Biso   1.000  C
  C99      1.0000 0.86310  0.29930  0.23370  Biso   1.000  C
  C100     1.0000 0.13690  0.79930  0.26630  Biso   1.000  C
  H105     1.0000 0.07500  0.68340  0.75150  Biso   1.000  H
  H106     1.0000 0.92500  0.18340  0.74850  Biso   1.000  H
  H107     1.0000 0.92500  0.31660  0.24850  Biso   1.000  H
  H108     1.0000 0.07500  0.81660  0.25150  Biso   1.000  H
  C101     1.0000 0.16040  0.77630  0.74300  Biso   1.000  C
  C102     1.0000 0.83960  0.27630  0.75700  Biso   1.000  C
  C103     1.0000 0.83960  0.22370  0.25700  Biso   1.000  C
  C104     1.0000 0.16040  0.72370  0.24300  Biso   1.000  C
  H109     1.0000 0.11540  0.80950  0.71220  Biso   1.000  H
  H110     1.0000 0.88460  0.30950  0.78780  Biso   1.000  H
  H111     1.0000 0.88460  0.19050  0.28780  Biso   1.000  H
  H112     1.0000 0.11540  0.69050  0.21220  Biso   1.000  H
  C105     1.0000 0.15150  0.13820  0.35240  Biso   1.000  C
  C106     1.0000 0.84850  0.63820  0.14760  Biso   1.000  C
  C107     1.0000 0.84850  0.86180  0.64760  Biso   1.000  C
  C108     1.0000 0.15150  0.36180  0.85240  Biso   1.000  C
  H113     1.0000 0.19190  0.13570  0.31980  Biso   1.000  H
  H114     1.0000 0.80810  0.63570  0.18020  Biso   1.000  H
  H115     1.0000 0.80810  0.86430  0.68020  Biso   1.000  H
  H116     1.0000 0.19190  0.36430  0.81980  Biso   1.000  H
  C109     1.0000 0.11640  0.21400  0.36710  Biso   1.000  C
  C110     1.0000 0.88360  0.71400  0.13290  Biso   1.000  C
  C111     1.0000 0.88360  0.78600  0.63290  Biso   1.000  C
  C112     1.0000 0.11640  0.28600  0.86710  Biso   1.000  C
  H117     1.0000 0.13440  0.26240  0.34560  Biso   1.000  H
  H118     1.0000 0.86560  0.76240  0.15440  Biso   1.000  H
  H119     1.0000 0.86560  0.73760  0.65440  Biso   1.000  H
  H120     1.0000 0.13440  0.23760  0.84560  Biso   1.000  H
  C113     1.0000 0.05570  0.21940  0.41300  Biso   1.000  C
  C114     1.0000 0.94430  0.71940  0.08700  Biso   1.000  C
  C115     1.0000 0.94430  0.78060  0.58700  Biso   1.000  C
  C116     1.0000 0.05570  0.28060  0.91300  Biso   1.000  C
  C117     1.0000 0.03710  0.14710  0.44660  Biso   1.000  C
  C118     1.0000 0.96290  0.64710  0.05340  Biso   1.000  C
  C119     1.0000 0.96290  0.85290  0.55340  Biso   1.000  C
  C120     1.0000 0.03710  0.35290  0.94660  Biso   1.000  C
  H121     1.0000 0.99860  0.14800  0.48070  Biso   1.000  H
  H122     1.0000 0.00140  0.64800  0.01930  Biso   1.000  H
  H123     1.0000 0.00140  0.85200  0.51930  Biso   1.000  H
  H124     1.0000 0.99860  0.35200  0.98070  Biso   1.000  H
  C121     1.0000 0.07450  0.07440  0.43050  Biso   1.000  C
  C122     1.0000 0.92550  0.57440  0.06950  Biso   1.000  C
  C123     1.0000 0.92550  0.92560  0.56950  Biso   1.000  C
  C124     1.0000 0.07450  0.42560  0.93050  Biso   1.000  C
  H125     1.0000 0.06090  0.02570  0.45400  Biso   1.000  H
  H126     1.0000 0.93910  0.52570  0.04600  Biso   1.000  H
  H127     1.0000 0.93910  0.97430  0.54600  Biso   1.000  H
  H128     1.0000 0.06090  0.47430  0.95400  Biso   1.000  H
  C125     1.0000 0.01270  0.29930  0.42730  Biso   1.000  C
  C126     1.0000 0.98730  0.79930  0.07270  Biso   1.000  C
  C127     1.0000 0.98730  0.70070  0.57270  Biso   1.000  C
  C128     1.0000 0.01270  0.20070  0.92730  Biso   1.000  C
  H129     1.0000 0.94640  0.29090  0.42260  Biso   1.000  H
  H130     1.0000 0.05360  0.79090  0.07740  Biso   1.000  H
  H131     1.0000 0.05360  0.70910  0.57740  Biso   1.000  H
  H132     1.0000 0.94640  0.20910  0.92260  Biso   1.000  H
  H133     1.0000 0.02060  0.33990  0.38960  Biso   1.000  H
  H134     1.0000 0.97940  0.83990  0.11040  Biso   1.000  H
  H135     1.0000 0.97940  0.66010  0.61040  Biso   1.000  H
  H136     1.0000 0.02060  0.16010  0.88960  Biso   1.000  H
  C129     1.0000 0.05470  0.33370  0.50440  Biso   1.000  C
  C130     1.0000 0.94530  0.83370  0.99560  Biso   1.000  C
  C131     1.0000 0.94530  0.66630  0.49560  Biso   1.000  C
  C132     1.0000 0.05470  0.16630  0.00440  Biso   1.000  C
  H137     1.0000 0.06550  0.28770  0.54020  Biso   1.000  H
  H138     1.0000 0.93450  0.78770  0.95980  Biso   1.000  H
  H139     1.0000 0.93450  0.71230  0.45980  Biso   1.000  H
  H140     1.0000 0.06550  0.21230  0.04020  Biso   1.000  H
  H141     1.0000 0.11470  0.35830  0.50370  Biso   1.000  H
  H142     1.0000 0.88530  0.85830  0.99630  Biso   1.000  H
  H143     1.0000 0.88530  0.64170  0.49630  Biso   1.000  H
  H144     1.0000 0.11470  0.14170  0.00370  Biso   1.000  H
  C133     1.0000 0.00150  0.39220  0.52910  Biso   1.000  C
  C134     1.0000 0.99850  0.89220  0.97090  Biso   1.000  C
  C135     1.0000 0.99850  0.60780  0.47090  Biso   1.000  C
  C136     1.0000 0.00150  0.10780  0.02910  Biso   1.000  C
  H145     1.0000 0.94200  0.36660  0.52980  Biso   1.000  H
  H146     1.0000 0.05800  0.86660  0.97020  Biso   1.000  H
  H147     1.0000 0.05800  0.63340  0.47020  Biso   1.000  H
  H148     1.0000 0.94200  0.13340  0.02980  Biso   1.000  H
  H149     1.0000 0.98950  0.43680  0.49210  Biso   1.000  H
  H150     1.0000 0.01050  0.93680  0.00790  Biso   1.000  H
  H151     1.0000 0.01050  0.56320  0.50790  Biso   1.000  H
  H152     1.0000 0.98950  0.06320  0.99210  Biso   1.000  H
  C137     1.0000 0.03770  0.43050  0.60330  Biso   1.000  C
  C138     1.0000 0.96230  0.93050  0.89670  Biso   1.000  C
  C139     1.0000 0.96230  0.56950  0.39670  Biso   1.000  C
  C140     1.0000 0.03770  0.06950  0.10330  Biso   1.000  C
  C141     1.0000 0.98930  0.42790  0.65870  Biso   1.000  C
  C142     1.0000 0.01070  0.92790  0.84130  Biso   1.000  C
  C143     1.0000 0.01070  0.57210  0.34130  Biso   1.000  C
  C144     1.0000 0.98930  0.07210  0.15870  Biso   1.000  C
  H153     1.0000 0.93200  0.40060  0.65010  Biso   1.000  H
  H154     1.0000 0.06800  0.90060  0.84990  Biso   1.000  H
  H155     1.0000 0.06800  0.59940  0.34990  Biso   1.000  H
  H156     1.0000 0.93200  0.09940  0.15010  Biso   1.000  H
  C145     1.0000 0.02350  0.46430  0.72550  Biso   1.000  C
  C146     1.0000 0.97650  0.96430  0.77450  Biso   1.000  C
  C147     1.0000 0.97650  0.53570  0.27450  Biso   1.000  C
  C148     1.0000 0.02350  0.03570  0.22550  Biso   1.000  C
  H157     1.0000 0.98890  0.46140  0.76240  Biso   1.000  H
  H158     1.0000 0.01110  0.96140  0.73760  Biso   1.000  H
  H159     1.0000 0.01110  0.53860  0.23760  Biso   1.000  H
  H160     1.0000 0.98890  0.03860  0.26240  Biso   1.000  H
  C149     1.0000 0.15120  0.50850  0.68790  Biso   1.000  C
  C150     1.0000 0.84880  0.00850  0.81210  Biso   1.000  C
  C151     1.0000 0.84880  0.49150  0.31210  Biso   1.000  C
  C152     1.0000 0.15120  0.99150  0.18790  Biso   1.000  C
  H161     1.0000 0.20740  0.53760  0.69730  Biso   1.000  H
  H162     1.0000 0.79260  0.03760  0.80270  Biso   1.000  H
  H163     1.0000 0.79260  0.46240  0.30270  Biso   1.000  H
  H164     1.0000 0.20740  0.96240  0.19730  Biso   1.000  H
  C153     1.0000 0.12090  0.47210  0.61980  Biso   1.000  C
  C154     1.0000 0.87910  0.97210  0.88020  Biso   1.000  C
  C155     1.0000 0.87910  0.52790  0.38020  Biso   1.000  C
  C156     1.0000 0.12090  0.02790  0.11980  Biso   1.000  C
  H165     1.0000 0.15690  0.47540  0.58390  Biso   1.000  H
  H166     1.0000 0.84310  0.97540  0.91610  Biso   1.000  H
  H167     1.0000 0.84310  0.52460  0.41610  Biso   1.000  H
  H168     1.0000 0.15690  0.02460  0.08390  Biso   1.000  H
  Cl5      1.0000 0.38975  0.04822  0.32392  Biso   1.000  Cl
  Cl6      1.0000 0.61025  0.54822  0.17608  Biso   1.000  Cl
  Cl7      1.0000 0.61025  0.95178  0.67608  Biso   1.000  Cl
  Cl8      1.0000 0.38975  0.45178  0.82392  Biso   1.000  Cl
  O17      1.0000 0.30170  0.01530  0.32220  Biso   1.000  O
  O18      1.0000 0.69830  0.51530  0.17780  Biso   1.000  O
  O19      1.0000 0.69830  0.98470  0.67780  Biso   1.000  O
  O20      1.0000 0.30170  0.48470  0.82220  Biso   1.000  O
  O21      1.0000 0.39410  0.08430  0.25830  Biso   1.000  O
  O22      1.0000 0.60590  0.58430  0.24170  Biso   1.000  O
  O23      1.0000 0.60590  0.91570  0.74170  Biso   1.000  O
  O24      1.0000 0.39410  0.41570  0.75830  Biso   1.000  O
  O25      1.0000 0.41000  0.10620  0.38430  Biso   1.000  O
  O26      1.0000 0.59000  0.60620  0.11570  Biso   1.000  O
  O27      1.0000 0.59000  0.89380  0.61570  Biso   1.000  O
  O28      1.0000 0.41000  0.39380  0.88430  Biso   1.000  O
  O29      1.0000 0.45540  0.98480  0.34240  Biso   1.000  O
  O30      1.0000 0.54460  0.48480  0.15760  Biso   1.000  O
  O31      1.0000 0.54460  0.01520  0.65760  Biso   1.000  O
  O32      1.0000 0.45540  0.51520  0.84240  Biso   1.000  O
  Cl9      1.0000 0.92526  0.88476  0.33164  Biso   1.000  Cl
  Cl10     1.0000 0.07474  0.38476  0.16836  Biso   1.000  Cl
  Cl11     1.0000 0.07474  0.11524  0.66836  Biso   1.000  Cl
  Cl12     1.0000 0.92526  0.61524  0.83164  Biso   1.000  Cl
  O33      1.0000 0.02120  0.89500  0.36641  Biso   1.000  O
  O34      1.0000 0.97880  0.39500  0.13359  Biso   1.000  O
  O35      1.0000 0.97880  0.10500  0.63359  Biso   1.000  O
  O36      1.0000 0.02120  0.60500  0.86641  Biso   1.000  O
  O37      1.0000 0.91590  0.87690  0.25390  Biso   1.000  O
  O38      1.0000 0.08410  0.37690  0.24610  Biso   1.000  O
  O39      1.0000 0.08410  0.12310  0.74610  Biso   1.000  O
  O40      1.0000 0.91590  0.62310  0.75390  Biso   1.000  O
  O41      1.0000 0.89220  0.81330  0.35990  Biso   1.000  O
  O42      1.0000 0.10780  0.31330  0.14010  Biso   1.000  O
  O43      1.0000 0.10780  0.18670  0.64010  Biso   1.000  O
  O44      1.0000 0.89220  0.68670  0.85990  Biso   1.000  O
  O45      1.0000 0.87670  0.95490  0.34640  Biso   1.000  O
  O46      1.0000 0.12330  0.45490  0.15360  Biso   1.000  O
  O47      1.0000 0.12330  0.04510  0.65360  Biso   1.000  O
  O48      1.0000 0.87670  0.54510  0.84640  Biso   1.000  O
