data_image0
_cell_length_a       45.665
_cell_length_b       8.156
_cell_length_c       6.828
_cell_angle_alpha    90
_cell_angle_beta     90
_cell_angle_gamma    99.6

_symmetry_space_group_name_H-M    "P 1"
_symmetry_int_tables_number       1

loop_
  _symmetry_equiv_pos_as_xyz
  'x, y, z'

loop_
  _atom_site_label
  _atom_site_occupancy
  _atom_site_fract_x
  _atom_site_fract_y
  _atom_site_fract_z
  _atom_site_thermal_displace_type
  _atom_site_B_iso_or_equiv
  _atom_site_type_symbol
  Cu1      1.0000 0.00000  0.00000  0.00000  Biso   1.000  Cu
  Cu2      1.0000 0.50000  0.00000  0.50000  Biso   1.000  Cu
  Cu3      1.0000 0.00000  0.50000  0.00000  Biso   1.000  Cu
  Cu4      1.0000 0.50000  0.50000  0.50000  Biso   1.000  Cu
  O1       1.0000 0.00000  0.75000  0.15400  Biso   1.000  O
  O2       1.0000 0.50000  0.75000  0.65400  Biso   1.000  O
  O3       1.0000 0.00000  0.25000  0.84600  Biso   1.000  O
  O4       1.0000 0.50000  0.25000  0.34600  Biso   1.000  O
  O5       1.0000 0.97130  0.05730  0.19640  Biso   1.000  O
  O6       1.0000 0.47130  0.05730  0.69640  Biso   1.000  O
  O7       1.0000 0.02870  0.44270  0.19640  Biso   1.000  O
  O8       1.0000 0.52870  0.44270  0.69640  Biso   1.000  O
  O9       1.0000 0.02870  0.94270  0.80360  Biso   1.000  O
  O10      1.0000 0.52870  0.94270  0.30360  Biso   1.000  O
  O11      1.0000 0.97130  0.55730  0.80360  Biso   1.000  O
  O12      1.0000 0.47130  0.55730  0.30360  Biso   1.000  O
  O13      1.0000 0.03110  0.10700  0.15940  Biso   1.000  O
  O14      1.0000 0.53110  0.10700  0.65940  Biso   1.000  O
  O15      1.0000 0.96890  0.39300  0.15940  Biso   1.000  O
  O16      1.0000 0.46890  0.39300  0.65940  Biso   1.000  O
  O17      1.0000 0.96890  0.89300  0.84060  Biso   1.000  O
  O18      1.0000 0.46890  0.89300  0.34060  Biso   1.000  O
  O19      1.0000 0.03110  0.60700  0.84060  Biso   1.000  O
  O20      1.0000 0.53110  0.60700  0.34060  Biso   1.000  O
  O21      1.0000 0.05380  0.90790  0.26680  Biso   1.000  O
  O22      1.0000 0.55380  0.90790  0.76680  Biso   1.000  O
  O23      1.0000 0.94620  0.59210  0.26680  Biso   1.000  O
  O24      1.0000 0.44620  0.59210  0.76680  Biso   1.000  O
  O25      1.0000 0.94620  0.09210  0.73320  Biso   1.000  O
  O26      1.0000 0.44620  0.09210  0.23320  Biso   1.000  O
  O27      1.0000 0.05380  0.40790  0.73320  Biso   1.000  O
  O28      1.0000 0.55380  0.40790  0.23320  Biso   1.000  O
  O29      1.0000 0.11970  0.06020  0.09560  Biso   1.000  O
  O30      1.0000 0.61970  0.06020  0.59560  Biso   1.000  O
  O31      1.0000 0.88030  0.43980  0.09560  Biso   1.000  O
  O32      1.0000 0.38030  0.43980  0.59560  Biso   1.000  O
  O33      1.0000 0.88030  0.93980  0.90440  Biso   1.000  O
  O34      1.0000 0.38030  0.93980  0.40440  Biso   1.000  O
  O35      1.0000 0.11970  0.56020  0.90440  Biso   1.000  O
  O36      1.0000 0.61970  0.56020  0.40440  Biso   1.000  O
  O37      1.0000 0.08540  0.63530  0.20400  Biso   1.000  O
  O38      1.0000 0.58540  0.63530  0.70400  Biso   1.000  O
  O39      1.0000 0.91460  0.86470  0.20400  Biso   1.000  O
  O40      1.0000 0.41460  0.86470  0.70400  Biso   1.000  O
  O41      1.0000 0.91460  0.36470  0.79600  Biso   1.000  O
  O42      1.0000 0.41460  0.36470  0.29600  Biso   1.000  O
  O43      1.0000 0.08540  0.13530  0.79600  Biso   1.000  O
  O44      1.0000 0.58540  0.13530  0.29600  Biso   1.000  O
  C1       1.0000 0.05320  0.05320  0.24070  Biso   1.000  C
  C2       1.0000 0.55320  0.05320  0.74070  Biso   1.000  C
  C3       1.0000 0.94680  0.44680  0.24070  Biso   1.000  C
  C4       1.0000 0.44680  0.44680  0.74070  Biso   1.000  C
  C5       1.0000 0.94680  0.94680  0.75930  Biso   1.000  C
  C6       1.0000 0.44680  0.94680  0.25930  Biso   1.000  C
  C7       1.0000 0.05320  0.55320  0.75930  Biso   1.000  C
  C8       1.0000 0.55320  0.55320  0.25930  Biso   1.000  C
  C9       1.0000 0.07910  0.17700  0.32170  Biso   1.000  C
  C10      1.0000 0.57910  0.17700  0.82170  Biso   1.000  C
  C11      1.0000 0.92090  0.32300  0.32170  Biso   1.000  C
  C12      1.0000 0.42090  0.32300  0.82170  Biso   1.000  C
  C13      1.0000 0.92090  0.82300  0.67830  Biso   1.000  C
  C14      1.0000 0.42090  0.82300  0.17830  Biso   1.000  C
  C15      1.0000 0.07910  0.67700  0.67830  Biso   1.000  C
  C16      1.0000 0.57910  0.67700  0.17830  Biso   1.000  C
  C17      1.0000 0.12260  0.05790  0.27900  Biso   1.000  C
  C18      1.0000 0.62260  0.05790  0.77900  Biso   1.000  C
  C19      1.0000 0.87740  0.44210  0.27900  Biso   1.000  C
  C20      1.0000 0.37740  0.44210  0.77900  Biso   1.000  C
  C21      1.0000 0.87740  0.94210  0.72100  Biso   1.000  C
  C22      1.0000 0.37740  0.94210  0.22100  Biso   1.000  C
  C23      1.0000 0.12260  0.55790  0.72100  Biso   1.000  C
  C24      1.0000 0.62260  0.55790  0.22100  Biso   1.000  C
  C25      1.0000 0.14780  0.98920  0.36440  Biso   1.000  C
  C26      1.0000 0.64780  0.98920  0.86440  Biso   1.000  C
  C27      1.0000 0.85220  0.51080  0.36440  Biso   1.000  C
  C28      1.0000 0.35220  0.51080  0.86440  Biso   1.000  C
  C29      1.0000 0.85220  0.01080  0.63560  Biso   1.000  C
  C30      1.0000 0.35220  0.01080  0.13560  Biso   1.000  C
  C31      1.0000 0.14780  0.48920  0.63560  Biso   1.000  C
  C32      1.0000 0.64780  0.48920  0.13560  Biso   1.000  C
  C33      1.0000 0.15260  0.96430  0.56370  Biso   1.000  C
  C34      1.0000 0.65260  0.96430  0.06370  Biso   1.000  C
  C35      1.0000 0.84740  0.53570  0.56370  Biso   1.000  C
  C36      1.0000 0.34740  0.53570  0.06370  Biso   1.000  C
  C37      1.0000 0.84740  0.03570  0.43630  Biso   1.000  C
  C38      1.0000 0.34740  0.03570  0.93630  Biso   1.000  C
  C39      1.0000 0.15260  0.46430  0.43630  Biso   1.000  C
  C40      1.0000 0.65260  0.46430  0.93630  Biso   1.000  C
  C41      1.0000 0.17710  0.91430  0.63390  Biso   1.000  C
  C42      1.0000 0.67710  0.91430  0.13390  Biso   1.000  C
  C43      1.0000 0.82290  0.58570  0.63390  Biso   1.000  C
  C44      1.0000 0.32290  0.58570  0.13390  Biso   1.000  C
  C45      1.0000 0.82290  0.08570  0.36610  Biso   1.000  C
  C46      1.0000 0.32290  0.08570  0.86610  Biso   1.000  C
  C47      1.0000 0.17710  0.41430  0.36610  Biso   1.000  C
  C48      1.0000 0.67710  0.41430  0.86610  Biso   1.000  C
  C49      1.0000 0.19730  0.87020  0.50250  Biso   1.000  C
  C50      1.0000 0.69730  0.87020  0.00250  Biso   1.000  C
  C51      1.0000 0.80270  0.62980  0.50250  Biso   1.000  C
  C52      1.0000 0.30270  0.62980  0.00250  Biso   1.000  C
  C53      1.0000 0.80270  0.12980  0.49750  Biso   1.000  C
  C54      1.0000 0.30270  0.12980  0.99750  Biso   1.000  C
  C55      1.0000 0.19730  0.37020  0.49750  Biso   1.000  C
  C56      1.0000 0.69730  0.37020  0.99750  Biso   1.000  C
  C57      1.0000 0.19280  0.88780  0.30730  Biso   1.000  C
  C58      1.0000 0.69280  0.88780  0.80730  Biso   1.000  C
  C59      1.0000 0.80720  0.61220  0.30730  Biso   1.000  C
  C60      1.0000 0.30720  0.61220  0.80730  Biso   1.000  C
  C61      1.0000 0.80720  0.11220  0.69270  Biso   1.000  C
  C62      1.0000 0.30720  0.11220  0.19270  Biso   1.000  C
  C63      1.0000 0.19280  0.38780  0.69270  Biso   1.000  C
  C64      1.0000 0.69280  0.38780  0.19270  Biso   1.000  C
  C65      1.0000 0.16910  0.93290  0.23470  Biso   1.000  C
  C66      1.0000 0.66910  0.93290  0.73470  Biso   1.000  C
  C67      1.0000 0.83090  0.56710  0.23470  Biso   1.000  C
  C68      1.0000 0.33090  0.56710  0.73470  Biso   1.000  C
  C69      1.0000 0.83090  0.06710  0.76530  Biso   1.000  C
  C70      1.0000 0.33090  0.06710  0.26530  Biso   1.000  C
  C71      1.0000 0.16910  0.43290  0.76530  Biso   1.000  C
  C72      1.0000 0.66910  0.43290  0.26530  Biso   1.000  C
  N1       1.0000 0.10250  0.10710  0.39300  Biso   1.000  N
  N2       1.0000 0.60250  0.10710  0.89300  Biso   1.000  N
  N3       1.0000 0.89750  0.39290  0.39300  Biso   1.000  N
  N4       1.0000 0.39750  0.39290  0.89300  Biso   1.000  N
  N5       1.0000 0.89750  0.89290  0.60700  Biso   1.000  N
  N6       1.0000 0.39750  0.89290  0.10700  Biso   1.000  N
  N7       1.0000 0.10250  0.60710  0.60700  Biso   1.000  N
  N8       1.0000 0.60250  0.60710  0.10700  Biso   1.000  N
  I1       1.0000 0.22330  0.79850  0.11200  Biso   1.000  I
  I2       1.0000 0.72330  0.79850  0.61200  Biso   1.000  I
  I3       1.0000 0.77670  0.70150  0.11200  Biso   1.000  I
  I4       1.0000 0.27670  0.70150  0.61200  Biso   1.000  I
  I5       1.0000 0.77670  0.20150  0.88800  Biso   1.000  I
  I6       1.0000 0.27670  0.20150  0.38800  Biso   1.000  I
  I7       1.0000 0.22330  0.29850  0.88800  Biso   1.000  I
  I8       1.0000 0.72330  0.29850  0.38800  Biso   1.000  I
