data_image0
_cell_length_a       21.1387
_cell_length_b       19.0798
_cell_length_c       9.2843
_cell_angle_alpha    90
_cell_angle_beta     90
_cell_angle_gamma    90

_symmetry_space_group_name_H-M    "P 1"
_symmetry_int_tables_number       1

loop_
  _symmetry_equiv_pos_as_xyz
  'x, y, z'

loop_
  _atom_site_label
  _atom_site_occupancy
  _atom_site_fract_x
  _atom_site_fract_y
  _atom_site_fract_z
  _atom_site_thermal_displace_type
  _atom_site_B_iso_or_equiv
  _atom_site_type_symbol
  Cu1      1.0000 0.00000  0.25000  0.75000  Biso   1.000  Cu
  Cu2      1.0000 0.50000  0.75000  0.75000  Biso   1.000  Cu
  Cu3      1.0000 0.00000  0.75000  0.25000  Biso   1.000  Cu
  Cu4      1.0000 0.50000  0.25000  0.25000  Biso   1.000  Cu
  Cu5      1.0000 0.85959  0.40383  0.20230  Biso   1.000  Cu
  Cu6      1.0000 0.14041  0.09617  0.20230  Biso   1.000  Cu
  Cu7      1.0000 0.35959  0.59617  0.29770  Biso   1.000  Cu
  Cu8      1.0000 0.64041  0.90383  0.29770  Biso   1.000  Cu
  Cu9      1.0000 0.35959  0.90383  0.20230  Biso   1.000  Cu
  Cu10     1.0000 0.64041  0.59617  0.20230  Biso   1.000  Cu
  Cu11     1.0000 0.85959  0.09617  0.29770  Biso   1.000  Cu
  Cu12     1.0000 0.14041  0.40383  0.29770  Biso   1.000  Cu
  Cu13     1.0000 0.14041  0.59617  0.79770  Biso   1.000  Cu
  Cu14     1.0000 0.85959  0.90383  0.79770  Biso   1.000  Cu
  Cu15     1.0000 0.64041  0.40383  0.70230  Biso   1.000  Cu
  Cu16     1.0000 0.35959  0.09617  0.70230  Biso   1.000  Cu
  Cu17     1.0000 0.64041  0.09617  0.79770  Biso   1.000  Cu
  Cu18     1.0000 0.35959  0.40383  0.79770  Biso   1.000  Cu
  Cu19     1.0000 0.14041  0.90383  0.70230  Biso   1.000  Cu
  Cu20     1.0000 0.85959  0.59617  0.70230  Biso   1.000  Cu
  C1       1.0000 0.93297  0.31087  0.00680  Biso   1.000  C
  C2       1.0000 0.06703  0.18913  0.00680  Biso   1.000  C
  C3       1.0000 0.43297  0.68913  0.49320  Biso   1.000  C
  C4       1.0000 0.56703  0.81087  0.49320  Biso   1.000  C
  C5       1.0000 0.43297  0.81087  0.00680  Biso   1.000  C
  C6       1.0000 0.56703  0.68913  0.00680  Biso   1.000  C
  C7       1.0000 0.93297  0.18913  0.49320  Biso   1.000  C
  C8       1.0000 0.06703  0.31087  0.49320  Biso   1.000  C
  C9       1.0000 0.06703  0.68913  0.99320  Biso   1.000  C
  C10      1.0000 0.93297  0.81087  0.99320  Biso   1.000  C
  C11      1.0000 0.56703  0.31087  0.50680  Biso   1.000  C
  C12      1.0000 0.43297  0.18913  0.50680  Biso   1.000  C
  C13      1.0000 0.56703  0.18913  0.99320  Biso   1.000  C
  C14      1.0000 0.43297  0.31087  0.99320  Biso   1.000  C
  C15      1.0000 0.06703  0.81087  0.50680  Biso   1.000  C
  C16      1.0000 0.93297  0.68913  0.50680  Biso   1.000  C
  N1       1.0000 0.97867  0.31912  0.90510  Biso   1.000  N
  N2       1.0000 0.02133  0.18088  0.90510  Biso   1.000  N
  N3       1.0000 0.47867  0.68088  0.59490  Biso   1.000  N
  N4       1.0000 0.52133  0.81912  0.59490  Biso   1.000  N
  N5       1.0000 0.47867  0.81912  0.90510  Biso   1.000  N
  N6       1.0000 0.52133  0.68088  0.90510  Biso   1.000  N
  N7       1.0000 0.97867  0.18088  0.59490  Biso   1.000  N
  N8       1.0000 0.02133  0.31912  0.59490  Biso   1.000  N
  N9       1.0000 0.02133  0.68088  0.09490  Biso   1.000  N
  N10      1.0000 0.97867  0.81912  0.09490  Biso   1.000  N
  N11      1.0000 0.52133  0.31912  0.40510  Biso   1.000  N
  N12      1.0000 0.47867  0.18088  0.40510  Biso   1.000  N
  N13      1.0000 0.52133  0.18088  0.09490  Biso   1.000  N
  N14      1.0000 0.47867  0.31912  0.09490  Biso   1.000  N
  N15      1.0000 0.02133  0.81912  0.40510  Biso   1.000  N
  N16      1.0000 0.97867  0.68088  0.40510  Biso   1.000  N
  N17      1.0000 0.93547  0.36703  0.09700  Biso   1.000  N
  N18      1.0000 0.06453  0.13297  0.09700  Biso   1.000  N
  N19      1.0000 0.43547  0.63297  0.40300  Biso   1.000  N
  N20      1.0000 0.56453  0.86703  0.40300  Biso   1.000  N
  N21      1.0000 0.43547  0.86703  0.09700  Biso   1.000  N
  N22      1.0000 0.56453  0.63297  0.09700  Biso   1.000  N
  N23      1.0000 0.93547  0.13297  0.40300  Biso   1.000  N
  N24      1.0000 0.06453  0.36703  0.40300  Biso   1.000  N
  N25      1.0000 0.06453  0.63297  0.90300  Biso   1.000  N
  N26      1.0000 0.93547  0.86703  0.90300  Biso   1.000  N
  N27      1.0000 0.56453  0.36703  0.59700  Biso   1.000  N
  N28      1.0000 0.43547  0.13297  0.59700  Biso   1.000  N
  N29      1.0000 0.56453  0.13297  0.90300  Biso   1.000  N
  N30      1.0000 0.43547  0.36703  0.90300  Biso   1.000  N
  N31      1.0000 0.06453  0.86703  0.59700  Biso   1.000  N
  N32      1.0000 0.93547  0.63297  0.59700  Biso   1.000  N
  C17      1.0000 0.00923  0.38047  0.93220  Biso   1.000  C
  C18      1.0000 0.99077  0.11953  0.93220  Biso   1.000  C
  C19      1.0000 0.50923  0.61953  0.56780  Biso   1.000  C
  C20      1.0000 0.49077  0.88047  0.56780  Biso   1.000  C
  C21      1.0000 0.50923  0.88047  0.93220  Biso   1.000  C
  C22      1.0000 0.49077  0.61953  0.93220  Biso   1.000  C
  C23      1.0000 0.00923  0.11953  0.56780  Biso   1.000  C
  C24      1.0000 0.99077  0.38047  0.56780  Biso   1.000  C
  C25      1.0000 0.99077  0.61953  0.06780  Biso   1.000  C
  C26      1.0000 0.00923  0.88047  0.06780  Biso   1.000  C
  C27      1.0000 0.49077  0.38047  0.43220  Biso   1.000  C
  C28      1.0000 0.50923  0.11953  0.43220  Biso   1.000  C
  C29      1.0000 0.49077  0.11953  0.06780  Biso   1.000  C
  C30      1.0000 0.50923  0.38047  0.06780  Biso   1.000  C
  C31      1.0000 0.99077  0.88047  0.43220  Biso   1.000  C
  C32      1.0000 0.00923  0.61953  0.43220  Biso   1.000  C
  C33      1.0000 0.98570  0.40722  0.05710  Biso   1.000  C
  C34      1.0000 0.01430  0.09278  0.05710  Biso   1.000  C
  C35      1.0000 0.48570  0.59278  0.44290  Biso   1.000  C
  C36      1.0000 0.51430  0.90722  0.44290  Biso   1.000  C
  C37      1.0000 0.48570  0.90722  0.05710  Biso   1.000  C
  C38      1.0000 0.51430  0.59278  0.05710  Biso   1.000  C
  C39      1.0000 0.98570  0.09278  0.44290  Biso   1.000  C
  C40      1.0000 0.01430  0.40722  0.44290  Biso   1.000  C
  C41      1.0000 0.01430  0.59278  0.94290  Biso   1.000  C
  C42      1.0000 0.98570  0.90722  0.94290  Biso   1.000  C
  C43      1.0000 0.51430  0.40722  0.55710  Biso   1.000  C
  C44      1.0000 0.48570  0.09278  0.55710  Biso   1.000  C
  C45      1.0000 0.51430  0.09278  0.94290  Biso   1.000  C
  C46      1.0000 0.48570  0.40722  0.94290  Biso   1.000  C
  C47      1.0000 0.01430  0.90722  0.55710  Biso   1.000  C
  C48      1.0000 0.98570  0.59278  0.55710  Biso   1.000  C
  C49      1.0000 0.85590  0.49448  0.94230  Biso   1.000  C
  C50      1.0000 0.14410  0.00552  0.94230  Biso   1.000  C
  C51      1.0000 0.35590  0.50552  0.55770  Biso   1.000  C
  C52      1.0000 0.64410  0.99448  0.55770  Biso   1.000  C
  C53      1.0000 0.35590  0.99448  0.94230  Biso   1.000  C
  C54      1.0000 0.64410  0.50552  0.94230  Biso   1.000  C
  C55      1.0000 0.85590  0.00552  0.55770  Biso   1.000  C
  C56      1.0000 0.14410  0.49448  0.55770  Biso   1.000  C
  C57      1.0000 0.14410  0.50552  0.05770  Biso   1.000  C
  C58      1.0000 0.85590  0.99448  0.05770  Biso   1.000  C
  C59      1.0000 0.64410  0.49448  0.44230  Biso   1.000  C
  C60      1.0000 0.35590  0.00552  0.44230  Biso   1.000  C
  C61      1.0000 0.64410  0.00552  0.05770  Biso   1.000  C
  C62      1.0000 0.35590  0.49448  0.05770  Biso   1.000  C
  C63      1.0000 0.14410  0.99448  0.44230  Biso   1.000  C
  C64      1.0000 0.85590  0.50552  0.44230  Biso   1.000  C
  N33      1.0000 0.84473  0.49025  0.08630  Biso   1.000  N
  N34      1.0000 0.15527  0.00975  0.08630  Biso   1.000  N
  N35      1.0000 0.34473  0.50975  0.41370  Biso   1.000  N
  N36      1.0000 0.65527  0.99025  0.41370  Biso   1.000  N
  N37      1.0000 0.34473  0.99025  0.08630  Biso   1.000  N
  N38      1.0000 0.65527  0.50975  0.08630  Biso   1.000  N
  N39      1.0000 0.84473  0.00975  0.41370  Biso   1.000  N
  N40      1.0000 0.15527  0.49025  0.41370  Biso   1.000  N
  N41      1.0000 0.15527  0.50975  0.91370  Biso   1.000  N
  N42      1.0000 0.84473  0.99025  0.91370  Biso   1.000  N
  N43      1.0000 0.65527  0.49025  0.58630  Biso   1.000  N
  N44      1.0000 0.34473  0.00975  0.58630  Biso   1.000  N
  N45      1.0000 0.65527  0.00975  0.91370  Biso   1.000  N
  N46      1.0000 0.34473  0.49025  0.91370  Biso   1.000  N
  N47      1.0000 0.15527  0.99025  0.58630  Biso   1.000  N
  N48      1.0000 0.84473  0.50975  0.58630  Biso   1.000  N
  N49      1.0000 0.83818  0.55942  0.89730  Biso   1.000  N
  N50      1.0000 0.16182  0.94058  0.89730  Biso   1.000  N
  N51      1.0000 0.33818  0.44058  0.60270  Biso   1.000  N
  N52      1.0000 0.66182  0.05942  0.60270  Biso   1.000  N
  N53      1.0000 0.33818  0.05942  0.89730  Biso   1.000  N
  N54      1.0000 0.66182  0.44058  0.89730  Biso   1.000  N
  N55      1.0000 0.83818  0.94058  0.60270  Biso   1.000  N
  N56      1.0000 0.16182  0.55942  0.60270  Biso   1.000  N
  N57      1.0000 0.16182  0.44058  0.10270  Biso   1.000  N
  N58      1.0000 0.83818  0.05942  0.10270  Biso   1.000  N
  N59      1.0000 0.66182  0.55942  0.39730  Biso   1.000  N
  N60      1.0000 0.33818  0.94058  0.39730  Biso   1.000  N
  N61      1.0000 0.66182  0.94058  0.10270  Biso   1.000  N
  N62      1.0000 0.33818  0.55942  0.10270  Biso   1.000  N
  N63      1.0000 0.16182  0.05942  0.39730  Biso   1.000  N
  N64      1.0000 0.83818  0.44058  0.39730  Biso   1.000  N
  C65      1.0000 0.81874  0.55202  0.12950  Biso   1.000  C
  C66      1.0000 0.18126  0.94798  0.12950  Biso   1.000  C
  C67      1.0000 0.31874  0.44798  0.37050  Biso   1.000  C
  C68      1.0000 0.68126  0.05202  0.37050  Biso   1.000  C
  C69      1.0000 0.31874  0.05202  0.12950  Biso   1.000  C
  C70      1.0000 0.68126  0.44798  0.12950  Biso   1.000  C
  C71      1.0000 0.81874  0.94798  0.37050  Biso   1.000  C
  C72      1.0000 0.18126  0.55202  0.37050  Biso   1.000  C
  C73      1.0000 0.18126  0.44798  0.87050  Biso   1.000  C
  C74      1.0000 0.81874  0.05202  0.87050  Biso   1.000  C
  C75      1.0000 0.68126  0.55202  0.62950  Biso   1.000  C
  C76      1.0000 0.31874  0.94798  0.62950  Biso   1.000  C
  C77      1.0000 0.68126  0.94798  0.87050  Biso   1.000  C
  C78      1.0000 0.31874  0.55202  0.87050  Biso   1.000  C
  C79      1.0000 0.18126  0.05202  0.62950  Biso   1.000  C
  C80      1.0000 0.81874  0.44798  0.62950  Biso   1.000  C
  C81      1.0000 0.81913  0.59643  0.01480  Biso   1.000  C
  C82      1.0000 0.18087  0.90357  0.01480  Biso   1.000  C
  C83      1.0000 0.31913  0.40357  0.48520  Biso   1.000  C
  C84      1.0000 0.68087  0.09643  0.48520  Biso   1.000  C
  C85      1.0000 0.31913  0.09643  0.01480  Biso   1.000  C
  C86      1.0000 0.68087  0.40357  0.01480  Biso   1.000  C
  C87      1.0000 0.81913  0.90357  0.48520  Biso   1.000  C
  C88      1.0000 0.18087  0.59643  0.48520  Biso   1.000  C
  C89      1.0000 0.18087  0.40357  0.98520  Biso   1.000  C
  C90      1.0000 0.81913  0.09643  0.98520  Biso   1.000  C
  C91      1.0000 0.68087  0.59643  0.51480  Biso   1.000  C
  C92      1.0000 0.31913  0.90357  0.51480  Biso   1.000  C
  C93      1.0000 0.68087  0.90357  0.98520  Biso   1.000  C
  C94      1.0000 0.31913  0.59643  0.98520  Biso   1.000  C
  C95      1.0000 0.18087  0.09643  0.51480  Biso   1.000  C
  C96      1.0000 0.81913  0.40357  0.51480  Biso   1.000  C
  N65      1.0000 0.82573  0.30737  0.23820  Biso   1.000  N
  N66      1.0000 0.17427  0.19263  0.23820  Biso   1.000  N
  N67      1.0000 0.32573  0.69263  0.26180  Biso   1.000  N
  N68      1.0000 0.67427  0.80737  0.26180  Biso   1.000  N
  N69      1.0000 0.32573  0.80737  0.23820  Biso   1.000  N
  N70      1.0000 0.67427  0.69263  0.23820  Biso   1.000  N
  N71      1.0000 0.82573  0.19263  0.26180  Biso   1.000  N
  N72      1.0000 0.17427  0.30737  0.26180  Biso   1.000  N
  N73      1.0000 0.17427  0.69263  0.76180  Biso   1.000  N
  N74      1.0000 0.82573  0.80737  0.76180  Biso   1.000  N
  N75      1.0000 0.67427  0.30737  0.73820  Biso   1.000  N
  N76      1.0000 0.32573  0.19263  0.73820  Biso   1.000  N
  N77      1.0000 0.67427  0.19263  0.76180  Biso   1.000  N
  N78      1.0000 0.32573  0.30737  0.76180  Biso   1.000  N
  N79      1.0000 0.17427  0.80737  0.73820  Biso   1.000  N
  N80      1.0000 0.82573  0.69263  0.73820  Biso   1.000  N
  C97      1.0000 0.86356  0.25000  0.25000  Biso   1.000  C
  C98      1.0000 0.13644  0.25000  0.25000  Biso   1.000  C
  C99      1.0000 0.36356  0.75000  0.25000  Biso   1.000  C
  C100     1.0000 0.63644  0.75000  0.25000  Biso   1.000  C
  C101     1.0000 0.13644  0.75000  0.75000  Biso   1.000  C
  C102     1.0000 0.86356  0.75000  0.75000  Biso   1.000  C
  C103     1.0000 0.63644  0.25000  0.75000  Biso   1.000  C
  C104     1.0000 0.36356  0.25000  0.75000  Biso   1.000  C
  C105     1.0000 0.76458  0.28522  0.23870  Biso   1.000  C
  C106     1.0000 0.23542  0.21478  0.23870  Biso   1.000  C
  C107     1.0000 0.26458  0.71478  0.26130  Biso   1.000  C
  C108     1.0000 0.73542  0.78522  0.26130  Biso   1.000  C
  C109     1.0000 0.26458  0.78522  0.23870  Biso   1.000  C
  C110     1.0000 0.73542  0.71478  0.23870  Biso   1.000  C
  C111     1.0000 0.76458  0.21478  0.26130  Biso   1.000  C
  C112     1.0000 0.23542  0.28522  0.26130  Biso   1.000  C
  C113     1.0000 0.23542  0.71478  0.76130  Biso   1.000  C
  C114     1.0000 0.76458  0.78522  0.76130  Biso   1.000  C
  C115     1.0000 0.73542  0.28522  0.73870  Biso   1.000  C
  C116     1.0000 0.26458  0.21478  0.73870  Biso   1.000  C
  C117     1.0000 0.73542  0.21478  0.76130  Biso   1.000  C
  C118     1.0000 0.26458  0.28522  0.76130  Biso   1.000  C
  C119     1.0000 0.23542  0.78522  0.73870  Biso   1.000  C
  C120     1.0000 0.76458  0.71478  0.73870  Biso   1.000  C
