data_image0
_cell_length_a       10.56
_cell_length_b       13.68
_cell_length_c       10.28
_cell_angle_alpha    90
_cell_angle_beta     90
_cell_angle_gamma    90

_symmetry_space_group_name_H-M    "P 1"
_symmetry_int_tables_number       1

loop_
  _symmetry_equiv_pos_as_xyz
  'x, y, z'

loop_
  _atom_site_label
  _atom_site_occupancy
  _atom_site_fract_x
  _atom_site_fract_y
  _atom_site_fract_z
  _atom_site_thermal_displace_type
  _atom_site_B_iso_or_equiv
  _atom_site_type_symbol
  Cu1      1.0000 0.29730  0.42940  0.25640  Biso   1.000  Cu
  Cu2      1.0000 0.20270  0.57060  0.75640  Biso   1.000  Cu
  Cu3      1.0000 0.79730  0.07060  0.74360  Biso   1.000  Cu
  Cu4      1.0000 0.70270  0.92940  0.24360  Biso   1.000  Cu
  Cu5      1.0000 0.70270  0.57060  0.74360  Biso   1.000  Cu
  Cu6      1.0000 0.79730  0.42940  0.24360  Biso   1.000  Cu
  Cu7      1.0000 0.20270  0.92940  0.25640  Biso   1.000  Cu
  Cu8      1.0000 0.29730  0.07060  0.75640  Biso   1.000  Cu
  C1       1.0000 0.24400  0.24500  0.14000  Biso   1.000  C
  C2       1.0000 0.25600  0.75500  0.64000  Biso   1.000  C
  C3       1.0000 0.74400  0.25500  0.86000  Biso   1.000  C
  C4       1.0000 0.75600  0.74500  0.36000  Biso   1.000  C
  C5       1.0000 0.75600  0.75500  0.86000  Biso   1.000  C
  C6       1.0000 0.74400  0.24500  0.36000  Biso   1.000  C
  C7       1.0000 0.25600  0.74500  0.14000  Biso   1.000  C
  C8       1.0000 0.24400  0.25500  0.64000  Biso   1.000  C
  C9       1.0000 0.14900  0.26300  0.24600  Biso   1.000  C
  C10      1.0000 0.35100  0.73700  0.74600  Biso   1.000  C
  C11      1.0000 0.64900  0.23700  0.75400  Biso   1.000  C
  C12      1.0000 0.85100  0.76300  0.25400  Biso   1.000  C
  C13      1.0000 0.85100  0.73700  0.75400  Biso   1.000  C
  C14      1.0000 0.64900  0.26300  0.25400  Biso   1.000  C
  C15      1.0000 0.35100  0.76300  0.24600  Biso   1.000  C
  C16      1.0000 0.14900  0.23700  0.74600  Biso   1.000  C
  C17      1.0000 0.37700  0.35500  0.00200  Biso   1.000  C
  C18      1.0000 0.12300  0.64500  0.50200  Biso   1.000  C
  C19      1.0000 0.87700  0.14500  0.99800  Biso   1.000  C
  C20      1.0000 0.62300  0.85500  0.49800  Biso   1.000  C
  C21      1.0000 0.62300  0.64500  0.99800  Biso   1.000  C
  C22      1.0000 0.87700  0.35500  0.49800  Biso   1.000  C
  C23      1.0000 0.12300  0.85500  0.00200  Biso   1.000  C
  C24      1.0000 0.37700  0.14500  0.50200  Biso   1.000  C
  C25      1.0000 0.28100  0.43100  0.96900  Biso   1.000  C
  C26      1.0000 0.21900  0.56900  0.46900  Biso   1.000  C
  C27      1.0000 0.78100  0.06900  0.03100  Biso   1.000  C
  C28      1.0000 0.71900  0.93100  0.53100  Biso   1.000  C
  C29      1.0000 0.71900  0.56900  0.03100  Biso   1.000  C
  C30      1.0000 0.78100  0.43100  0.53100  Biso   1.000  C
  C31      1.0000 0.21900  0.93100  0.96900  Biso   1.000  C
  C32      1.0000 0.28100  0.06900  0.46900  Biso   1.000  C
  N1       1.0000 0.35000  0.31600  0.13900  Biso   1.000  N
  N2       1.0000 0.15000  0.68400  0.63900  Biso   1.000  N
  N3       1.0000 0.85000  0.18400  0.86100  Biso   1.000  N
  N4       1.0000 0.65000  0.81600  0.36100  Biso   1.000  N
  N5       1.0000 0.65000  0.68400  0.86100  Biso   1.000  N
  N6       1.0000 0.85000  0.31600  0.36100  Biso   1.000  N
  N7       1.0000 0.15000  0.81600  0.13900  Biso   1.000  N
  N8       1.0000 0.35000  0.18400  0.63900  Biso   1.000  N
  O1       1.0000 0.43800  0.38200  0.44100  Biso   1.000  O
  O2       1.0000 0.06200  0.61800  0.94100  Biso   1.000  O
  O3       1.0000 0.93800  0.11800  0.55900  Biso   1.000  O
  O4       1.0000 0.56200  0.88200  0.05900  Biso   1.000  O
  O5       1.0000 0.56200  0.61800  0.55900  Biso   1.000  O
  O6       1.0000 0.93800  0.38200  0.05900  Biso   1.000  O
  O7       1.0000 0.06200  0.88200  0.44100  Biso   1.000  O
  O8       1.0000 0.43800  0.11800  0.94100  Biso   1.000  O
  O9       1.0000 0.44200  0.51700  0.20200  Biso   1.000  O
  O10      1.0000 0.05800  0.48300  0.70200  Biso   1.000  O
  O11      1.0000 0.94200  0.98300  0.79800  Biso   1.000  O
  O12      1.0000 0.55800  0.01700  0.29800  Biso   1.000  O
  O13      1.0000 0.55800  0.48300  0.79800  Biso   1.000  O
  O14      1.0000 0.94200  0.51700  0.29800  Biso   1.000  O
  O15      1.0000 0.05800  0.01700  0.20200  Biso   1.000  O
  O16      1.0000 0.44200  0.98300  0.70200  Biso   1.000  O
  O17      1.0000 0.15600  0.34400  0.31500  Biso   1.000  O
  O18      1.0000 0.34400  0.65600  0.81500  Biso   1.000  O
  O19      1.0000 0.65600  0.15600  0.68500  Biso   1.000  O
  O20      1.0000 0.84400  0.84400  0.18500  Biso   1.000  O
  O21      1.0000 0.84400  0.65600  0.68500  Biso   1.000  O
  O22      1.0000 0.65600  0.34400  0.18500  Biso   1.000  O
  O23      1.0000 0.34400  0.84400  0.31500  Biso   1.000  O
  O24      1.0000 0.15600  0.15600  0.81500  Biso   1.000  O
  O25      1.0000 0.21100  0.53600  0.34500  Biso   1.000  O
  O26      1.0000 0.28900  0.46400  0.84500  Biso   1.000  O
  O27      1.0000 0.71100  0.96400  0.65500  Biso   1.000  O
  O28      1.0000 0.78900  0.03600  0.15500  Biso   1.000  O
  O29      1.0000 0.78900  0.46400  0.65500  Biso   1.000  O
  O30      1.0000 0.71100  0.53600  0.15500  Biso   1.000  O
  O31      1.0000 0.28900  0.03600  0.34500  Biso   1.000  O
  O32      1.0000 0.21100  0.96400  0.84500  Biso   1.000  O
  O33      1.0000 0.18900  0.46300  0.04400  Biso   1.000  O
  O34      1.0000 0.31100  0.53700  0.54400  Biso   1.000  O
  O35      1.0000 0.68900  0.03700  0.95600  Biso   1.000  O
  O36      1.0000 0.81100  0.96300  0.45600  Biso   1.000  O
  O37      1.0000 0.81100  0.53700  0.95600  Biso   1.000  O
  O38      1.0000 0.68900  0.46300  0.45600  Biso   1.000  O
  O39      1.0000 0.31100  0.96300  0.04400  Biso   1.000  O
  O40      1.0000 0.18900  0.03700  0.54400  Biso   1.000  O
  O41      1.0000 0.06100  0.20300  0.27500  Biso   1.000  O
  O42      1.0000 0.43900  0.79700  0.77500  Biso   1.000  O
  O43      1.0000 0.56100  0.29700  0.72500  Biso   1.000  O
  O44      1.0000 0.93900  0.70300  0.22500  Biso   1.000  O
  O45      1.0000 0.93900  0.79700  0.72500  Biso   1.000  O
  O46      1.0000 0.56100  0.20300  0.22500  Biso   1.000  O
  O47      1.0000 0.43900  0.70300  0.27500  Biso   1.000  O
  O48      1.0000 0.06100  0.29700  0.77500  Biso   1.000  O
