data_image0
_cell_length_a       27.5589
_cell_length_b       27.5589
_cell_length_c       5.387
_cell_angle_alpha    90
_cell_angle_beta     90
_cell_angle_gamma    120

_symmetry_space_group_name_H-M    "P 1"
_symmetry_int_tables_number       1

loop_
  _symmetry_equiv_pos_as_xyz
  'x, y, z'

loop_
  _atom_site_label
  _atom_site_occupancy
  _atom_site_fract_x
  _atom_site_fract_y
  _atom_site_fract_z
  _atom_site_thermal_displace_type
  _atom_site_B_iso_or_equiv
  _atom_site_type_symbol
  Cu1      1.0000 0.21380  0.99986  0.39740  Biso   1.000  Cu
  Cu2      1.0000 0.00014  0.21394  0.39740  Biso   1.000  Cu
  Cu3      1.0000 0.78606  0.78620  0.39740  Biso   1.000  Cu
  Cu4      1.0000 0.54713  0.66653  0.06407  Biso   1.000  Cu
  Cu5      1.0000 0.33347  0.88061  0.06407  Biso   1.000  Cu
  Cu6      1.0000 0.11939  0.45287  0.06407  Biso   1.000  Cu
  Cu7      1.0000 0.88047  0.33319  0.73073  Biso   1.000  Cu
  Cu8      1.0000 0.66681  0.54727  0.73073  Biso   1.000  Cu
  Cu9      1.0000 0.45273  0.11953  0.73073  Biso   1.000  Cu
  Cu10     1.0000 0.78620  0.00014  0.60260  Biso   1.000  Cu
  Cu11     1.0000 0.99986  0.78606  0.60260  Biso   1.000  Cu
  Cu12     1.0000 0.21394  0.21380  0.60260  Biso   1.000  Cu
  Cu13     1.0000 0.11953  0.66681  0.26927  Biso   1.000  Cu
  Cu14     1.0000 0.33319  0.45273  0.26927  Biso   1.000  Cu
  Cu15     1.0000 0.54727  0.88047  0.26927  Biso   1.000  Cu
  Cu16     1.0000 0.45287  0.33347  0.93593  Biso   1.000  Cu
  Cu17     1.0000 0.66653  0.11939  0.93593  Biso   1.000  Cu
  Cu18     1.0000 0.88061  0.54713  0.93593  Biso   1.000  Cu
  C1       1.0000 0.23079  0.11293  0.47060  Biso   1.000  C
  C2       1.0000 0.88707  0.11786  0.47060  Biso   1.000  C
  C3       1.0000 0.88214  0.76921  0.47060  Biso   1.000  C
  C4       1.0000 0.56412  0.77960  0.13727  Biso   1.000  C
  C5       1.0000 0.22040  0.78453  0.13727  Biso   1.000  C
  C6       1.0000 0.21547  0.43588  0.13727  Biso   1.000  C
  C7       1.0000 0.89746  0.44626  0.80393  Biso   1.000  C
  C8       1.0000 0.55374  0.45119  0.80393  Biso   1.000  C
  C9       1.0000 0.54881  0.10254  0.80393  Biso   1.000  C
  C10      1.0000 0.76921  0.88707  0.52940  Biso   1.000  C
  C11      1.0000 0.11293  0.88214  0.52940  Biso   1.000  C
  C12      1.0000 0.11786  0.23079  0.52940  Biso   1.000  C
  C13      1.0000 0.10254  0.55374  0.19607  Biso   1.000  C
  C14      1.0000 0.44626  0.54881  0.19607  Biso   1.000  C
  C15      1.0000 0.45119  0.89746  0.19607  Biso   1.000  C
  C16      1.0000 0.43588  0.22040  0.86273  Biso   1.000  C
  C17      1.0000 0.77960  0.21547  0.86273  Biso   1.000  C
  C18      1.0000 0.78453  0.56412  0.86273  Biso   1.000  C
  N1       1.0000 0.20263  0.06500  0.33540  Biso   1.000  N
  N2       1.0000 0.93500  0.13763  0.33540  Biso   1.000  N
  N3       1.0000 0.86237  0.79737  0.33540  Biso   1.000  N
  N4       1.0000 0.53596  0.73167  0.00207  Biso   1.000  N
  N5       1.0000 0.26833  0.80430  0.00207  Biso   1.000  N
  N6       1.0000 0.19570  0.46404  0.00207  Biso   1.000  N
  N7       1.0000 0.86930  0.39833  0.66873  Biso   1.000  N
  N8       1.0000 0.60167  0.47096  0.66873  Biso   1.000  N
  N9       1.0000 0.52904  0.13070  0.66873  Biso   1.000  N
  N10      1.0000 0.79737  0.93500  0.66460  Biso   1.000  N
  N11      1.0000 0.06500  0.86237  0.66460  Biso   1.000  N
  N12      1.0000 0.13763  0.20263  0.66460  Biso   1.000  N
  N13      1.0000 0.13070  0.60167  0.33127  Biso   1.000  N
  N14      1.0000 0.39833  0.52904  0.33127  Biso   1.000  N
  N15      1.0000 0.47096  0.86930  0.33127  Biso   1.000  N
  N16      1.0000 0.46404  0.26833  0.99793  Biso   1.000  N
  N17      1.0000 0.73167  0.19570  0.99793  Biso   1.000  N
  N18      1.0000 0.80430  0.53596  0.99793  Biso   1.000  N
  N19      1.0000 0.19932  0.13840  0.47360  Biso   1.000  N
  N20      1.0000 0.86160  0.06092  0.47360  Biso   1.000  N
  N21      1.0000 0.93908  0.80068  0.47360  Biso   1.000  N
  N22      1.0000 0.53265  0.80507  0.14027  Biso   1.000  N
  N23      1.0000 0.19493  0.72759  0.14027  Biso   1.000  N
  N24      1.0000 0.27241  0.46735  0.14027  Biso   1.000  N
  N25      1.0000 0.86599  0.47173  0.80693  Biso   1.000  N
  N26      1.0000 0.52827  0.39425  0.80693  Biso   1.000  N
  N27      1.0000 0.60575  0.13401  0.80693  Biso   1.000  N
  N28      1.0000 0.80068  0.86160  0.52640  Biso   1.000  N
  N29      1.0000 0.13840  0.93908  0.52640  Biso   1.000  N
  N30      1.0000 0.06092  0.19932  0.52640  Biso   1.000  N
  N31      1.0000 0.13401  0.52827  0.19307  Biso   1.000  N
  N32      1.0000 0.47173  0.60575  0.19307  Biso   1.000  N
  N33      1.0000 0.39425  0.86599  0.19307  Biso   1.000  N
  N34      1.0000 0.46735  0.19493  0.85973  Biso   1.000  N
  N35      1.0000 0.80507  0.27241  0.85973  Biso   1.000  N
  N36      1.0000 0.72759  0.53265  0.85973  Biso   1.000  N
  C19      1.0000 0.15615  0.06328  0.23910  Biso   1.000  C
  C20      1.0000 0.93672  0.09287  0.23910  Biso   1.000  C
  C21      1.0000 0.90713  0.84385  0.23910  Biso   1.000  C
  C22      1.0000 0.48948  0.72995  0.90577  Biso   1.000  C
  C23      1.0000 0.27005  0.75954  0.90577  Biso   1.000  C
  C24      1.0000 0.24046  0.51052  0.90577  Biso   1.000  C
  C25      1.0000 0.82282  0.39661  0.57243  Biso   1.000  C
  C26      1.0000 0.60339  0.42620  0.57243  Biso   1.000  C
  C27      1.0000 0.57380  0.17718  0.57243  Biso   1.000  C
  C28      1.0000 0.84385  0.93672  0.76090  Biso   1.000  C
  C29      1.0000 0.06328  0.90713  0.76090  Biso   1.000  C
  C30      1.0000 0.09287  0.15615  0.76090  Biso   1.000  C
  C31      1.0000 0.17718  0.60339  0.42757  Biso   1.000  C
  C32      1.0000 0.39661  0.57380  0.42757  Biso   1.000  C
  C33      1.0000 0.42620  0.82282  0.42757  Biso   1.000  C
  C34      1.0000 0.51052  0.27005  0.09423  Biso   1.000  C
  C35      1.0000 0.72995  0.24046  0.09423  Biso   1.000  C
  C36      1.0000 0.75954  0.48948  0.09423  Biso   1.000  C
  C37      1.0000 0.15644  0.11084  0.30970  Biso   1.000  C
  C38      1.0000 0.88916  0.04560  0.30970  Biso   1.000  C
  C39      1.0000 0.95440  0.84356  0.30970  Biso   1.000  C
  C40      1.0000 0.48977  0.77751  0.97637  Biso   1.000  C
  C41      1.0000 0.22249  0.71227  0.97637  Biso   1.000  C
  C42      1.0000 0.28773  0.51023  0.97637  Biso   1.000  C
  C43      1.0000 0.82311  0.44417  0.64303  Biso   1.000  C
  C44      1.0000 0.55583  0.37893  0.64303  Biso   1.000  C
  C45      1.0000 0.62107  0.17689  0.64303  Biso   1.000  C
  C46      1.0000 0.84356  0.88916  0.69030  Biso   1.000  C
  C47      1.0000 0.11084  0.95440  0.69030  Biso   1.000  C
  C48      1.0000 0.04560  0.15644  0.69030  Biso   1.000  C
  C49      1.0000 0.17689  0.55583  0.35697  Biso   1.000  C
  C50      1.0000 0.44417  0.62107  0.35697  Biso   1.000  C
  C51      1.0000 0.37893  0.82311  0.35697  Biso   1.000  C
  C52      1.0000 0.51023  0.22249  0.02363  Biso   1.000  C
  C53      1.0000 0.77751  0.28773  0.02363  Biso   1.000  C
  C54      1.0000 0.71227  0.48977  0.02363  Biso   1.000  C
  C55      1.0000 0.33042  0.05973  0.60510  Biso   1.000  C
  C56      1.0000 0.94027  0.27069  0.60510  Biso   1.000  C
  C57      1.0000 0.72931  0.66958  0.60510  Biso   1.000  C
  C58      1.0000 0.66375  0.72640  0.27177  Biso   1.000  C
  C59      1.0000 0.27360  0.93736  0.27177  Biso   1.000  C
  C60      1.0000 0.06264  0.33625  0.27177  Biso   1.000  C
  C61      1.0000 0.99709  0.39306  0.93843  Biso   1.000  C
  C62      1.0000 0.60694  0.60402  0.93843  Biso   1.000  C
  C63      1.0000 0.39598  0.00291  0.93843  Biso   1.000  C
  C64      1.0000 0.66958  0.94027  0.39490  Biso   1.000  C
  C65      1.0000 0.05973  0.72931  0.39490  Biso   1.000  C
  C66      1.0000 0.27069  0.33042  0.39490  Biso   1.000  C
  C67      1.0000 0.00291  0.60694  0.06157  Biso   1.000  C
  C68      1.0000 0.39306  0.39598  0.06157  Biso   1.000  C
  C69      1.0000 0.60402  0.99709  0.06157  Biso   1.000  C
  C70      1.0000 0.33625  0.27360  0.72823  Biso   1.000  C
  C71      1.0000 0.72640  0.06264  0.72823  Biso   1.000  C
  C72      1.0000 0.93736  0.66375  0.72823  Biso   1.000  C
  N37      1.0000 0.29441  0.05790  0.42780  Biso   1.000  N
  N38      1.0000 0.94210  0.23651  0.42780  Biso   1.000  N
  N39      1.0000 0.76349  0.70559  0.42780  Biso   1.000  N
  N40      1.0000 0.62774  0.72457  0.09447  Biso   1.000  N
  N41      1.0000 0.27543  0.90318  0.09447  Biso   1.000  N
  N42      1.0000 0.09682  0.37226  0.09447  Biso   1.000  N
  N43      1.0000 0.96108  0.39123  0.76113  Biso   1.000  N
  N44      1.0000 0.60877  0.56984  0.76113  Biso   1.000  N
  N45      1.0000 0.43016  0.03892  0.76113  Biso   1.000  N
  N46      1.0000 0.70559  0.94210  0.57220  Biso   1.000  N
  N47      1.0000 0.05790  0.76349  0.57220  Biso   1.000  N
  N48      1.0000 0.23651  0.29441  0.57220  Biso   1.000  N
  N49      1.0000 0.03892  0.60877  0.23887  Biso   1.000  N
  N50      1.0000 0.39123  0.43016  0.23887  Biso   1.000  N
  N51      1.0000 0.56984  0.96108  0.23887  Biso   1.000  N
  N52      1.0000 0.37226  0.27543  0.90553  Biso   1.000  N
  N53      1.0000 0.72457  0.09682  0.90553  Biso   1.000  N
  N54      1.0000 0.90318  0.62774  0.90553  Biso   1.000  N
  N55      1.0000 0.38278  0.10130  0.54370  Biso   1.000  N
  N56      1.0000 0.89870  0.28148  0.54370  Biso   1.000  N
  N57      1.0000 0.71852  0.61722  0.54370  Biso   1.000  N
  N58      1.0000 0.71611  0.76797  0.21037  Biso   1.000  N
  N59      1.0000 0.23203  0.94815  0.21037  Biso   1.000  N
  N60      1.0000 0.05185  0.28389  0.21037  Biso   1.000  N
  N61      1.0000 0.04945  0.43463  0.87703  Biso   1.000  N
  N62      1.0000 0.56537  0.61481  0.87703  Biso   1.000  N
  N63      1.0000 0.38519  0.95055  0.87703  Biso   1.000  N
  N64      1.0000 0.61722  0.89870  0.45630  Biso   1.000  N
  N65      1.0000 0.10130  0.71852  0.45630  Biso   1.000  N
  N66      1.0000 0.28148  0.38278  0.45630  Biso   1.000  N
  N67      1.0000 0.95055  0.56537  0.12297  Biso   1.000  N
  N68      1.0000 0.43463  0.38519  0.12297  Biso   1.000  N
  N69      1.0000 0.61481  0.04945  0.12297  Biso   1.000  N
  N70      1.0000 0.28389  0.23203  0.78963  Biso   1.000  N
  N71      1.0000 0.76797  0.05185  0.78963  Biso   1.000  N
  N72      1.0000 0.94815  0.71611  0.78963  Biso   1.000  N
  C73      1.0000 0.32408  0.10008  0.26380  Biso   1.000  C
  C74      1.0000 0.89992  0.22400  0.26380  Biso   1.000  C
  C75      1.0000 0.77600  0.67592  0.26380  Biso   1.000  C
  C76      1.0000 0.65741  0.76675  0.93047  Biso   1.000  C
  C77      1.0000 0.23325  0.89067  0.93047  Biso   1.000  C
  C78      1.0000 0.10933  0.34259  0.93047  Biso   1.000  C
  C79      1.0000 0.99075  0.43341  0.59713  Biso   1.000  C
  C80      1.0000 0.56659  0.55733  0.59713  Biso   1.000  C
  C81      1.0000 0.44267  0.00925  0.59713  Biso   1.000  C
  C82      1.0000 0.67592  0.89992  0.73620  Biso   1.000  C
  C83      1.0000 0.10008  0.77600  0.73620  Biso   1.000  C
  C84      1.0000 0.22400  0.32408  0.73620  Biso   1.000  C
  C85      1.0000 0.00925  0.56659  0.40287  Biso   1.000  C
  C86      1.0000 0.43341  0.44267  0.40287  Biso   1.000  C
  C87      1.0000 0.55733  0.99075  0.40287  Biso   1.000  C
  C88      1.0000 0.34259  0.23325  0.06953  Biso   1.000  C
  C89      1.0000 0.76675  0.10933  0.06953  Biso   1.000  C
  C90      1.0000 0.89067  0.65741  0.06953  Biso   1.000  C
  C91      1.0000 0.37834  0.12817  0.34080  Biso   1.000  C
  C92      1.0000 0.87183  0.25017  0.34080  Biso   1.000  C
  C93      1.0000 0.74983  0.62166  0.34080  Biso   1.000  C
  C94      1.0000 0.71167  0.79484  0.00747  Biso   1.000  C
  C95      1.0000 0.20516  0.91684  0.00747  Biso   1.000  C
  C96      1.0000 0.08316  0.28833  0.00747  Biso   1.000  C
  C97      1.0000 0.04501  0.46150  0.67413  Biso   1.000  C
  C98      1.0000 0.53850  0.58350  0.67413  Biso   1.000  C
  C99      1.0000 0.41650  0.95499  0.67413  Biso   1.000  C
  C100     1.0000 0.62166  0.87183  0.65920  Biso   1.000  C
  C101     1.0000 0.12817  0.74983  0.65920  Biso   1.000  C
  C102     1.0000 0.25017  0.37834  0.65920  Biso   1.000  C
  C103     1.0000 0.95499  0.53850  0.32587  Biso   1.000  C
  C104     1.0000 0.46150  0.41650  0.32587  Biso   1.000  C
  C105     1.0000 0.58350  0.04501  0.32587  Biso   1.000  C
  C106     1.0000 0.28833  0.20516  0.99253  Biso   1.000  C
  C107     1.0000 0.79484  0.08316  0.99253  Biso   1.000  C
  C108     1.0000 0.91684  0.71167  0.99253  Biso   1.000  C
