data_image0
_cell_length_a       10.228
_cell_length_b       10.419
_cell_length_c       13.688
_cell_angle_alpha    90
_cell_angle_beta     90
_cell_angle_gamma    90

_symmetry_space_group_name_H-M    "P 1"
_symmetry_int_tables_number       1

loop_
  _symmetry_equiv_pos_as_xyz
  'x, y, z'

loop_
  _atom_site_label
  _atom_site_occupancy
  _atom_site_fract_x
  _atom_site_fract_y
  _atom_site_fract_z
  _atom_site_thermal_displace_type
  _atom_site_B_iso_or_equiv
  _atom_site_type_symbol
  Cu1      1.0000 0.24340  0.20230  0.42810  Biso   1.000  Cu
  Cu2      1.0000 0.25660  0.79770  0.92810  Biso   1.000  Cu
  Cu3      1.0000 0.74340  0.29770  0.57190  Biso   1.000  Cu
  Cu4      1.0000 0.75660  0.70230  0.07190  Biso   1.000  Cu
  Cu5      1.0000 0.75660  0.79770  0.57190  Biso   1.000  Cu
  Cu6      1.0000 0.74340  0.20230  0.07190  Biso   1.000  Cu
  Cu7      1.0000 0.25660  0.70230  0.42810  Biso   1.000  Cu
  Cu8      1.0000 0.24340  0.29770  0.92810  Biso   1.000  Cu
  N1       1.0000 0.36400  0.15270  0.31810  Biso   1.000  N
  N2       1.0000 0.13600  0.84730  0.81810  Biso   1.000  N
  N3       1.0000 0.86400  0.34730  0.68190  Biso   1.000  N
  N4       1.0000 0.63600  0.65270  0.18190  Biso   1.000  N
  N5       1.0000 0.63600  0.84730  0.68190  Biso   1.000  N
  N6       1.0000 0.86400  0.15270  0.18190  Biso   1.000  N
  N7       1.0000 0.13600  0.65270  0.31810  Biso   1.000  N
  N8       1.0000 0.36400  0.34730  0.81810  Biso   1.000  N
  O1       1.0000 0.19080  0.34420  0.34460  Biso   1.000  O
  O2       1.0000 0.30920  0.65580  0.84460  Biso   1.000  O
  O3       1.0000 0.69080  0.15580  0.65540  Biso   1.000  O
  O4       1.0000 0.80920  0.84420  0.15540  Biso   1.000  O
  O5       1.0000 0.80920  0.65580  0.65540  Biso   1.000  O
  O6       1.0000 0.69080  0.34420  0.15540  Biso   1.000  O
  O7       1.0000 0.30920  0.84420  0.34460  Biso   1.000  O
  O8       1.0000 0.19080  0.15580  0.84460  Biso   1.000  O
  O9       1.0000 0.22780  0.43620  0.20110  Biso   1.000  O
  O10      1.0000 0.27220  0.56380  0.70110  Biso   1.000  O
  O11      1.0000 0.72780  0.06380  0.79890  Biso   1.000  O
  O12      1.0000 0.77220  0.93620  0.29890  Biso   1.000  O
  O13      1.0000 0.77220  0.56380  0.79890  Biso   1.000  O
  O14      1.0000 0.72780  0.43620  0.29890  Biso   1.000  O
  O15      1.0000 0.27220  0.93620  0.20110  Biso   1.000  O
  O16      1.0000 0.22780  0.06380  0.70110  Biso   1.000  O
  O17      1.0000 0.15470  0.28940  0.53640  Biso   1.000  O
  O18      1.0000 0.34530  0.71060  0.03640  Biso   1.000  O
  O19      1.0000 0.65470  0.21060  0.46360  Biso   1.000  O
  O20      1.0000 0.84530  0.78940  0.96360  Biso   1.000  O
  O21      1.0000 0.84530  0.71060  0.46360  Biso   1.000  O
  O22      1.0000 0.65470  0.28940  0.96360  Biso   1.000  O
  O23      1.0000 0.34530  0.78940  0.53640  Biso   1.000  O
  O24      1.0000 0.15470  0.21060  0.03640  Biso   1.000  O
  O25      1.0000 0.45870  0.30500  0.46260  Biso   1.000  O
  O26      1.0000 0.04130  0.69500  0.96260  Biso   1.000  O
  O27      1.0000 0.95870  0.19500  0.53740  Biso   1.000  O
  O28      1.0000 0.54130  0.80500  0.03740  Biso   1.000  O
  O29      1.0000 0.54130  0.69500  0.53740  Biso   1.000  O
  O30      1.0000 0.95870  0.30500  0.03740  Biso   1.000  O
  O31      1.0000 0.04130  0.80500  0.46260  Biso   1.000  O
  O32      1.0000 0.45870  0.19500  0.96260  Biso   1.000  O
  O33      1.0000 0.30130  0.06180  0.51670  Biso   1.000  O
  O34      1.0000 0.19870  0.93820  0.01670  Biso   1.000  O
  O35      1.0000 0.80130  0.43820  0.48330  Biso   1.000  O
  O36      1.0000 0.69870  0.56180  0.98330  Biso   1.000  O
  O37      1.0000 0.69870  0.93820  0.48330  Biso   1.000  O
  O38      1.0000 0.80130  0.06180  0.98330  Biso   1.000  O
  O39      1.0000 0.19870  0.56180  0.51670  Biso   1.000  O
  O40      1.0000 0.30130  0.43820  0.01670  Biso   1.000  O
  O41      1.0000 0.06310  0.06810  0.37900  Biso   1.000  O
  O42      1.0000 0.43690  0.93190  0.87900  Biso   1.000  O
  O43      1.0000 0.56310  0.43190  0.62100  Biso   1.000  O
  O44      1.0000 0.93690  0.56810  0.12100  Biso   1.000  O
  O45      1.0000 0.93690  0.93190  0.62100  Biso   1.000  O
  O46      1.0000 0.56310  0.06810  0.12100  Biso   1.000  O
  O47      1.0000 0.43690  0.56810  0.37900  Biso   1.000  O
  O48      1.0000 0.06310  0.43190  0.87900  Biso   1.000  O
  C1       1.0000 0.35730  0.25360  0.24170  Biso   1.000  C
  C2       1.0000 0.14270  0.74640  0.74170  Biso   1.000  C
  C3       1.0000 0.85730  0.24640  0.75830  Biso   1.000  C
  C4       1.0000 0.64270  0.75360  0.25830  Biso   1.000  C
  C5       1.0000 0.64270  0.74640  0.75830  Biso   1.000  C
  C6       1.0000 0.85730  0.25360  0.25830  Biso   1.000  C
  C7       1.0000 0.14270  0.75360  0.24170  Biso   1.000  C
  C8       1.0000 0.35730  0.24640  0.74170  Biso   1.000  C
  C9       1.0000 0.25200  0.35080  0.26330  Biso   1.000  C
  C10      1.0000 0.24800  0.64920  0.76330  Biso   1.000  C
  C11      1.0000 0.75200  0.14920  0.73670  Biso   1.000  C
  C12      1.0000 0.74800  0.85080  0.23670  Biso   1.000  C
  C13      1.0000 0.74800  0.64920  0.73670  Biso   1.000  C
  C14      1.0000 0.75200  0.35080  0.23670  Biso   1.000  C
  C15      1.0000 0.24800  0.85080  0.26330  Biso   1.000  C
  C16      1.0000 0.25200  0.14920  0.76330  Biso   1.000  C
  C17      1.0000 0.49850  0.13000  0.35400  Biso   1.000  C
  C18      1.0000 0.00150  0.87000  0.85400  Biso   1.000  C
  C19      1.0000 0.99850  0.37000  0.64600  Biso   1.000  C
  C20      1.0000 0.50150  0.63000  0.14600  Biso   1.000  C
  C21      1.0000 0.50150  0.87000  0.64600  Biso   1.000  C
  C22      1.0000 0.99850  0.13000  0.14600  Biso   1.000  C
  C23      1.0000 0.00150  0.63000  0.35400  Biso   1.000  C
  C24      1.0000 0.49850  0.37000  0.85400  Biso   1.000  C
  C25      1.0000 0.03910  0.27600  0.56720  Biso   1.000  C
  C26      1.0000 0.46090  0.72400  0.06720  Biso   1.000  C
  C27      1.0000 0.53910  0.22400  0.43280  Biso   1.000  C
  C28      1.0000 0.96090  0.77600  0.93280  Biso   1.000  C
  C29      1.0000 0.96090  0.72400  0.43280  Biso   1.000  C
  C30      1.0000 0.53910  0.27600  0.93280  Biso   1.000  C
  C31      1.0000 0.46090  0.77600  0.56720  Biso   1.000  C
  C32      1.0000 0.03910  0.22400  0.06720  Biso   1.000  C
  H1       1.0000 0.44380  0.29770  0.23740  Biso   1.000  H
  H2       1.0000 0.05620  0.70230  0.73740  Biso   1.000  H
  H3       1.0000 0.94380  0.20230  0.76260  Biso   1.000  H
  H4       1.0000 0.55620  0.79770  0.26260  Biso   1.000  H
  H5       1.0000 0.55620  0.70230  0.76260  Biso   1.000  H
  H6       1.0000 0.94380  0.29770  0.26260  Biso   1.000  H
  H7       1.0000 0.05620  0.79770  0.23740  Biso   1.000  H
  H8       1.0000 0.44380  0.20230  0.73740  Biso   1.000  H
  H9       1.0000 0.33820  0.21180  0.17690  Biso   1.000  H
  H10      1.0000 0.16180  0.78820  0.67690  Biso   1.000  H
  H11      1.0000 0.83820  0.28820  0.82310  Biso   1.000  H
  H12      1.0000 0.66180  0.71180  0.32310  Biso   1.000  H
  H13      1.0000 0.66180  0.78820  0.82310  Biso   1.000  H
  H14      1.0000 0.83820  0.21180  0.32310  Biso   1.000  H
  H15      1.0000 0.16180  0.71180  0.17690  Biso   1.000  H
  H16      1.0000 0.33820  0.28820  0.67690  Biso   1.000  H
  H17      1.0000 0.50370  0.04040  0.38060  Biso   1.000  H
  H18      1.0000 0.99630  0.95960  0.88060  Biso   1.000  H
  H19      1.0000 0.00370  0.45960  0.61940  Biso   1.000  H
  H20      1.0000 0.49630  0.54040  0.11940  Biso   1.000  H
  H21      1.0000 0.49630  0.95960  0.61940  Biso   1.000  H
  H22      1.0000 0.00370  0.04040  0.11940  Biso   1.000  H
  H23      1.0000 0.99630  0.54040  0.38060  Biso   1.000  H
  H24      1.0000 0.50370  0.45960  0.88060  Biso   1.000  H
  H25      1.0000 0.56040  0.13700  0.29760  Biso   1.000  H
  H26      1.0000 0.93960  0.86300  0.79760  Biso   1.000  H
  H27      1.0000 0.06040  0.36300  0.70240  Biso   1.000  H
  H28      1.0000 0.43960  0.63700  0.20240  Biso   1.000  H
  H29      1.0000 0.43960  0.86300  0.70240  Biso   1.000  H
  H30      1.0000 0.06040  0.13700  0.20240  Biso   1.000  H
  H31      1.0000 0.93960  0.63700  0.29760  Biso   1.000  H
  H32      1.0000 0.56040  0.36300  0.79760  Biso   1.000  H
  H33      1.0000 0.32950  0.07000  0.29010  Biso   1.000  H
  H34      1.0000 0.17050  0.93000  0.79010  Biso   1.000  H
  H35      1.0000 0.82950  0.43000  0.70990  Biso   1.000  H
  H36      1.0000 0.67050  0.57000  0.20990  Biso   1.000  H
  H37      1.0000 0.67050  0.93000  0.70990  Biso   1.000  H
  H38      1.0000 0.82950  0.07000  0.20990  Biso   1.000  H
  H39      1.0000 0.17050  0.57000  0.29010  Biso   1.000  H
  H40      1.0000 0.32950  0.43000  0.79010  Biso   1.000  H
  H41      1.0000 0.28390  0.00490  0.56110  Biso   1.000  H
  H42      1.0000 0.21610  0.99510  0.06110  Biso   1.000  H
  H43      1.0000 0.78390  0.49510  0.43890  Biso   1.000  H
  H44      1.0000 0.71610  0.50490  0.93890  Biso   1.000  H
  H45      1.0000 0.71610  0.99510  0.43890  Biso   1.000  H
  H46      1.0000 0.78390  0.00490  0.93890  Biso   1.000  H
  H47      1.0000 0.21610  0.50490  0.56110  Biso   1.000  H
  H48      1.0000 0.28390  0.49510  0.06110  Biso   1.000  H
  H49      1.0000 0.39780  0.05440  0.50180  Biso   1.000  H
  H50      1.0000 0.10220  0.94560  0.00180  Biso   1.000  H
  H51      1.0000 0.89780  0.44560  0.49820  Biso   1.000  H
  H52      1.0000 0.60220  0.55440  0.99820  Biso   1.000  H
  H53      1.0000 0.60220  0.94560  0.49820  Biso   1.000  H
  H54      1.0000 0.89780  0.05440  0.99820  Biso   1.000  H
  H55      1.0000 0.10220  0.55440  0.50180  Biso   1.000  H
  H56      1.0000 0.39780  0.44560  0.00180  Biso   1.000  H
  H57      1.0000 0.03870  0.99850  0.34930  Biso   1.000  H
  H58      1.0000 0.46130  0.00150  0.84930  Biso   1.000  H
  H59      1.0000 0.53870  0.50150  0.65070  Biso   1.000  H
  H60      1.0000 0.96130  0.49850  0.15070  Biso   1.000  H
  H61      1.0000 0.96130  0.00150  0.65070  Biso   1.000  H
  H62      1.0000 0.53870  0.99850  0.15070  Biso   1.000  H
  H63      1.0000 0.46130  0.49850  0.34930  Biso   1.000  H
  H64      1.0000 0.03870  0.50150  0.84930  Biso   1.000  H
