data_image0
_cell_length_a       11.7556
_cell_length_b       23.4222
_cell_length_c       9.0727
_cell_angle_alpha    90
_cell_angle_beta     104.993
_cell_angle_gamma    90

_symmetry_space_group_name_H-M    "P 1"
_symmetry_int_tables_number       1

loop_
  _symmetry_equiv_pos_as_xyz
  'x, y, z'

loop_
  _atom_site_label
  _atom_site_occupancy
  _atom_site_fract_x
  _atom_site_fract_y
  _atom_site_fract_z
  _atom_site_thermal_displace_type
  _atom_site_B_iso_or_equiv
  _atom_site_type_symbol
  Cu1      1.0000 0.50000  0.20360  0.25000  Biso   1.000  Cu
  Cu2      1.0000 0.00000  0.70360  0.25000  Biso   1.000  Cu
  Cu3      1.0000 0.50000  0.79640  0.75000  Biso   1.000  Cu
  Cu4      1.0000 0.00000  0.29640  0.75000  Biso   1.000  Cu
  Cu5      1.0000 0.25290  0.41923  0.35750  Biso   1.000  Cu
  Cu6      1.0000 0.74710  0.41923  0.14250  Biso   1.000  Cu
  Cu7      1.0000 0.75290  0.91923  0.35750  Biso   1.000  Cu
  Cu8      1.0000 0.24710  0.91923  0.14250  Biso   1.000  Cu
  Cu9      1.0000 0.74710  0.58077  0.64250  Biso   1.000  Cu
  Cu10     1.0000 0.25290  0.58077  0.85750  Biso   1.000  Cu
  Cu11     1.0000 0.24710  0.08077  0.64250  Biso   1.000  Cu
  Cu12     1.0000 0.75290  0.08077  0.85750  Biso   1.000  Cu
  N1       1.0000 0.37760  0.26100  0.26210  Biso   1.000  N
  N2       1.0000 0.62240  0.26100  0.23790  Biso   1.000  N
  N3       1.0000 0.87760  0.76100  0.26210  Biso   1.000  N
  N4       1.0000 0.12240  0.76100  0.23790  Biso   1.000  N
  N5       1.0000 0.62240  0.73900  0.73790  Biso   1.000  N
  N6       1.0000 0.37760  0.73900  0.76210  Biso   1.000  N
  N7       1.0000 0.12240  0.23900  0.73790  Biso   1.000  N
  N8       1.0000 0.87760  0.23900  0.76210  Biso   1.000  N
  N9       1.0000 0.28790  0.33980  0.30180  Biso   1.000  N
  N10      1.0000 0.71210  0.33980  0.19820  Biso   1.000  N
  N11      1.0000 0.78790  0.83980  0.30180  Biso   1.000  N
  N12      1.0000 0.21210  0.83980  0.19820  Biso   1.000  N
  N13      1.0000 0.71210  0.66020  0.69820  Biso   1.000  N
  N14      1.0000 0.28790  0.66020  0.80180  Biso   1.000  N
  N15      1.0000 0.21210  0.16020  0.69820  Biso   1.000  N
  N16      1.0000 0.78790  0.16020  0.80180  Biso   1.000  N
  C1       1.0000 0.39480  0.31400  0.32540  Biso   1.000  C
  C2       1.0000 0.60520  0.31400  0.17460  Biso   1.000  C
  C3       1.0000 0.89480  0.81400  0.32540  Biso   1.000  C
  C4       1.0000 0.10520  0.81400  0.17460  Biso   1.000  C
  C5       1.0000 0.60520  0.68600  0.67460  Biso   1.000  C
  C6       1.0000 0.39480  0.68600  0.82540  Biso   1.000  C
  C7       1.0000 0.10520  0.18600  0.67460  Biso   1.000  C
  C8       1.0000 0.89480  0.18600  0.82540  Biso   1.000  C
  C9       1.0000 0.26110  0.25550  0.19130  Biso   1.000  C
  C10      1.0000 0.73890  0.25550  0.30870  Biso   1.000  C
  C11      1.0000 0.76110  0.75550  0.19130  Biso   1.000  C
  C12      1.0000 0.23890  0.75550  0.30870  Biso   1.000  C
  C13      1.0000 0.73890  0.74450  0.80870  Biso   1.000  C
  C14      1.0000 0.26110  0.74450  0.69130  Biso   1.000  C
  C15      1.0000 0.23890  0.24450  0.80870  Biso   1.000  C
  C16      1.0000 0.76110  0.24450  0.69130  Biso   1.000  C
  C17      1.0000 0.20550  0.30380  0.21730  Biso   1.000  C
  C18      1.0000 0.79450  0.30380  0.28270  Biso   1.000  C
  C19      1.0000 0.70550  0.80380  0.21730  Biso   1.000  C
  C20      1.0000 0.29450  0.80380  0.28270  Biso   1.000  C
  C21      1.0000 0.79450  0.69620  0.78270  Biso   1.000  C
  C22      1.0000 0.20550  0.69620  0.71730  Biso   1.000  C
  C23      1.0000 0.29450  0.19620  0.78270  Biso   1.000  C
  C24      1.0000 0.70550  0.19620  0.71730  Biso   1.000  C
  N17      1.0000 0.27500  0.49150  0.47760  Biso   1.000  N
  N18      1.0000 0.72500  0.49150  0.02240  Biso   1.000  N
  N19      1.0000 0.77500  0.99150  0.47760  Biso   1.000  N
  N20      1.0000 0.22500  0.99150  0.02240  Biso   1.000  N
  N21      1.0000 0.72500  0.50850  0.52240  Biso   1.000  N
  N22      1.0000 0.27500  0.50850  0.97760  Biso   1.000  N
  N23      1.0000 0.22500  0.00850  0.52240  Biso   1.000  N
  N24      1.0000 0.77500  0.00850  0.97760  Biso   1.000  N
  N25      1.0000 0.30060  0.54410  0.68450  Biso   1.000  N
  N26      1.0000 0.69940  0.54410  0.81550  Biso   1.000  N
  N27      1.0000 0.80060  0.04410  0.68450  Biso   1.000  N
  N28      1.0000 0.19940  0.04410  0.81550  Biso   1.000  N
  N29      1.0000 0.69940  0.45590  0.31550  Biso   1.000  N
  N30      1.0000 0.30060  0.45590  0.18450  Biso   1.000  N
  N31      1.0000 0.19940  0.95590  0.31550  Biso   1.000  N
  N32      1.0000 0.80060  0.95590  0.18450  Biso   1.000  N
  C25      1.0000 0.34240  0.53720  0.46230  Biso   1.000  C
  C26      1.0000 0.65760  0.53720  0.03770  Biso   1.000  C
  C27      1.0000 0.84240  0.03720  0.46230  Biso   1.000  C
  C28      1.0000 0.15760  0.03720  0.03770  Biso   1.000  C
  C29      1.0000 0.65760  0.46280  0.53770  Biso   1.000  C
  C30      1.0000 0.34240  0.46280  0.96230  Biso   1.000  C
  C31      1.0000 0.15760  0.96280  0.53770  Biso   1.000  C
  C32      1.0000 0.84240  0.96280  0.96230  Biso   1.000  C
  C33      1.0000 0.24550  0.49690  0.61230  Biso   1.000  C
  C34      1.0000 0.75450  0.49690  0.88770  Biso   1.000  C
  C35      1.0000 0.74550  0.99690  0.61230  Biso   1.000  C
  C36      1.0000 0.25450  0.99690  0.88770  Biso   1.000  C
  C37      1.0000 0.75450  0.50310  0.38770  Biso   1.000  C
  C38      1.0000 0.24550  0.50310  0.11230  Biso   1.000  C
  C39      1.0000 0.25450  0.00310  0.38770  Biso   1.000  C
  C40      1.0000 0.74550  0.00310  0.11230  Biso   1.000  C
  C41      1.0000 0.36050  0.56900  0.59180  Biso   1.000  C
  C42      1.0000 0.63950  0.56900  0.90820  Biso   1.000  C
  C43      1.0000 0.86050  0.06900  0.59180  Biso   1.000  C
  C44      1.0000 0.13950  0.06900  0.90820  Biso   1.000  C
  C45      1.0000 0.63950  0.43100  0.40820  Biso   1.000  C
  C46      1.0000 0.36050  0.43100  0.09180  Biso   1.000  C
  C47      1.0000 0.13950  0.93100  0.40820  Biso   1.000  C
  C48      1.0000 0.86050  0.93100  0.09180  Biso   1.000  C
  N33      1.0000 0.46340  0.14540  0.39240  Biso   1.000  N
  N34      1.0000 0.53660  0.14540  0.10760  Biso   1.000  N
  N35      1.0000 0.96340  0.64540  0.39240  Biso   1.000  N
  N36      1.0000 0.03660  0.64540  0.10760  Biso   1.000  N
  N37      1.0000 0.53660  0.85460  0.60760  Biso   1.000  N
  N38      1.0000 0.46340  0.85460  0.89240  Biso   1.000  N
  N39      1.0000 0.03660  0.35460  0.60760  Biso   1.000  N
  N40      1.0000 0.96340  0.35460  0.89240  Biso   1.000  N
  N41      1.0000 0.38120  0.10570  0.55930  Biso   1.000  N
  N42      1.0000 0.61880  0.10570  0.94070  Biso   1.000  N
  N43      1.0000 0.88120  0.60570  0.55930  Biso   1.000  N
  N44      1.0000 0.11880  0.60570  0.94070  Biso   1.000  N
  N45      1.0000 0.61880  0.89430  0.44070  Biso   1.000  N
  N46      1.0000 0.38120  0.89430  0.05930  Biso   1.000  N
  N47      1.0000 0.11880  0.39430  0.44070  Biso   1.000  N
  N48      1.0000 0.88120  0.39430  0.05930  Biso   1.000  N
  C49      1.0000 0.37210  0.14950  0.45820  Biso   1.000  C
  C50      1.0000 0.62790  0.14950  0.04180  Biso   1.000  C
  C51      1.0000 0.87210  0.64950  0.45820  Biso   1.000  C
  C52      1.0000 0.12790  0.64950  0.04180  Biso   1.000  C
  C53      1.0000 0.62790  0.85050  0.54180  Biso   1.000  C
  C54      1.0000 0.37210  0.85050  0.95820  Biso   1.000  C
  C55      1.0000 0.12790  0.35050  0.54180  Biso   1.000  C
  C56      1.0000 0.87210  0.35050  0.95820  Biso   1.000  C
  C57      1.0000 0.53140  0.10040  0.45700  Biso   1.000  C
  C58      1.0000 0.46860  0.10040  0.04300  Biso   1.000  C
  C59      1.0000 0.03140  0.60040  0.45700  Biso   1.000  C
  C60      1.0000 0.96860  0.60040  0.04300  Biso   1.000  C
  C61      1.0000 0.46860  0.89960  0.54300  Biso   1.000  C
  C62      1.0000 0.53140  0.89960  0.95700  Biso   1.000  C
  C63      1.0000 0.96860  0.39960  0.54300  Biso   1.000  C
  C64      1.0000 0.03140  0.39960  0.95700  Biso   1.000  C
  C65      1.0000 0.47640  0.07380  0.55280  Biso   1.000  C
  C66      1.0000 0.52360  0.07380  0.94720  Biso   1.000  C
  C67      1.0000 0.97640  0.57380  0.55280  Biso   1.000  C
  C68      1.0000 0.02360  0.57380  0.94720  Biso   1.000  C
  C69      1.0000 0.52360  0.92620  0.44720  Biso   1.000  C
  C70      1.0000 0.47640  0.92620  0.05280  Biso   1.000  C
  C71      1.0000 0.02360  0.42620  0.44720  Biso   1.000  C
  C72      1.0000 0.97640  0.42620  0.05280  Biso   1.000  C
