data_image0
_cell_length_a       27.198
_cell_length_b       9.001
_cell_length_c       11.908
_cell_angle_alpha    90
_cell_angle_beta     90
_cell_angle_gamma    90

_symmetry_space_group_name_H-M    "P 1"
_symmetry_int_tables_number       1

loop_
  _symmetry_equiv_pos_as_xyz
  'x, y, z'

loop_
  _atom_site_label
  _atom_site_occupancy
  _atom_site_fract_x
  _atom_site_fract_y
  _atom_site_fract_z
  _atom_site_thermal_displace_type
  _atom_site_B_iso_or_equiv
  _atom_site_type_symbol
  Cu1      1.0000 0.20760  0.13150  0.15610  Biso   1.000  Cu
  Cu2      1.0000 0.29240  0.86850  0.65610  Biso   1.000  Cu
  Cu3      1.0000 0.70760  0.36850  0.84390  Biso   1.000  Cu
  Cu4      1.0000 0.79240  0.63150  0.34390  Biso   1.000  Cu
  Cu5      1.0000 0.79240  0.86850  0.84390  Biso   1.000  Cu
  Cu6      1.0000 0.70760  0.13150  0.34390  Biso   1.000  Cu
  Cu7      1.0000 0.29240  0.63150  0.15610  Biso   1.000  Cu
  Cu8      1.0000 0.20760  0.36850  0.65610  Biso   1.000  Cu
  S1       1.0000 0.14570  0.09600  0.37170  Biso   1.000  S
  S2       1.0000 0.35430  0.90400  0.87170  Biso   1.000  S
  S3       1.0000 0.64570  0.40400  0.62830  Biso   1.000  S
  S4       1.0000 0.85430  0.59600  0.12830  Biso   1.000  S
  S5       1.0000 0.85430  0.90400  0.62830  Biso   1.000  S
  S6       1.0000 0.64570  0.09600  0.12830  Biso   1.000  S
  S7       1.0000 0.35430  0.59600  0.37170  Biso   1.000  S
  S8       1.0000 0.14570  0.40400  0.87170  Biso   1.000  S
  O1       1.0000 0.23850  0.32290  0.17720  Biso   1.000  O
  O2       1.0000 0.26150  0.67710  0.67720  Biso   1.000  O
  O3       1.0000 0.73850  0.17710  0.82280  Biso   1.000  O
  O4       1.0000 0.76150  0.82290  0.32280  Biso   1.000  O
  O5       1.0000 0.76150  0.67710  0.82280  Biso   1.000  O
  O6       1.0000 0.73850  0.32290  0.32280  Biso   1.000  O
  O7       1.0000 0.26150  0.82290  0.17720  Biso   1.000  O
  O8       1.0000 0.23850  0.17710  0.67720  Biso   1.000  O
  O9       1.0000 0.26670  0.03420  0.26900  Biso   1.000  O
  O10      1.0000 0.23330  0.96580  0.76900  Biso   1.000  O
  O11      1.0000 0.76670  0.46580  0.73100  Biso   1.000  O
  O12      1.0000 0.73330  0.53420  0.23100  Biso   1.000  O
  O13      1.0000 0.73330  0.96580  0.73100  Biso   1.000  O
  O14      1.0000 0.76670  0.03420  0.23100  Biso   1.000  O
  O15      1.0000 0.23330  0.53420  0.26900  Biso   1.000  O
  O16      1.0000 0.26670  0.46580  0.76900  Biso   1.000  O
  O17      1.0000 0.17360  0.11480  0.47410  Biso   1.000  O
  O18      1.0000 0.32640  0.88520  0.97410  Biso   1.000  O
  O19      1.0000 0.67360  0.38520  0.52590  Biso   1.000  O
  O20      1.0000 0.82640  0.61480  0.02590  Biso   1.000  O
  O21      1.0000 0.82640  0.88520  0.52590  Biso   1.000  O
  O22      1.0000 0.67360  0.11480  0.02590  Biso   1.000  O
  O23      1.0000 0.32640  0.61480  0.47410  Biso   1.000  O
  O24      1.0000 0.17360  0.38520  0.97410  Biso   1.000  O
  O25      1.0000 0.14360  0.94390  0.32820  Biso   1.000  O
  O26      1.0000 0.35640  0.05610  0.82820  Biso   1.000  O
  O27      1.0000 0.64360  0.55610  0.67180  Biso   1.000  O
  O28      1.0000 0.85640  0.44390  0.17180  Biso   1.000  O
  O29      1.0000 0.85640  0.05610  0.67180  Biso   1.000  O
  O30      1.0000 0.64360  0.94390  0.17180  Biso   1.000  O
  O31      1.0000 0.35640  0.44390  0.32820  Biso   1.000  O
  O32      1.0000 0.14360  0.55610  0.82820  Biso   1.000  O
  O33      1.0000 0.24680  0.09100  0.02200  Biso   1.000  O
  O34      1.0000 0.25320  0.90900  0.52200  Biso   1.000  O
  O35      1.0000 0.74680  0.40900  0.97800  Biso   1.000  O
  O36      1.0000 0.75320  0.59100  0.47800  Biso   1.000  O
  O37      1.0000 0.75320  0.90900  0.97800  Biso   1.000  O
  O38      1.0000 0.74680  0.09100  0.47800  Biso   1.000  O
  O39      1.0000 0.25320  0.59100  0.02200  Biso   1.000  O
  O40      1.0000 0.24680  0.40900  0.52200  Biso   1.000  O
  O41      1.0000 0.16250  0.97170  0.10520  Biso   1.000  O
  O42      1.0000 0.33750  0.02830  0.60520  Biso   1.000  O
  O43      1.0000 0.66250  0.52830  0.89480  Biso   1.000  O
  O44      1.0000 0.83750  0.47170  0.39480  Biso   1.000  O
  O45      1.0000 0.83750  0.02830  0.89480  Biso   1.000  O
  O46      1.0000 0.66250  0.97170  0.39480  Biso   1.000  O
  O47      1.0000 0.33750  0.47170  0.10520  Biso   1.000  O
  O48      1.0000 0.16250  0.52830  0.60520  Biso   1.000  O
  N1       1.0000 0.16190  0.19910  0.27220  Biso   1.000  N
  N2       1.0000 0.33810  0.80090  0.77220  Biso   1.000  N
  N3       1.0000 0.66190  0.30090  0.72780  Biso   1.000  N
  N4       1.0000 0.83810  0.69910  0.22780  Biso   1.000  N
  N5       1.0000 0.83810  0.80090  0.72780  Biso   1.000  N
  N6       1.0000 0.66190  0.19910  0.22780  Biso   1.000  N
  N7       1.0000 0.33810  0.69910  0.27220  Biso   1.000  N
  N8       1.0000 0.16190  0.30090  0.77220  Biso   1.000  N
  C1       1.0000 0.21720  0.40860  0.24530  Biso   1.000  C
  C2       1.0000 0.28280  0.59140  0.74530  Biso   1.000  C
  C3       1.0000 0.71720  0.09140  0.75470  Biso   1.000  C
  C4       1.0000 0.78280  0.90860  0.25470  Biso   1.000  C
  C5       1.0000 0.78280  0.59140  0.75470  Biso   1.000  C
  C6       1.0000 0.71720  0.40860  0.25470  Biso   1.000  C
  C7       1.0000 0.28280  0.90860  0.24530  Biso   1.000  C
  C8       1.0000 0.21720  0.09140  0.74530  Biso   1.000  C
  C9       1.0000 0.16890  0.35780  0.29910  Biso   1.000  C
  C10      1.0000 0.33110  0.64220  0.79910  Biso   1.000  C
  C11      1.0000 0.66890  0.14220  0.70090  Biso   1.000  C
  C12      1.0000 0.83110  0.85780  0.20090  Biso   1.000  C
  C13      1.0000 0.83110  0.64220  0.70090  Biso   1.000  C
  C14      1.0000 0.66890  0.35780  0.20090  Biso   1.000  C
  C15      1.0000 0.33110  0.85780  0.29910  Biso   1.000  C
  C16      1.0000 0.16890  0.14220  0.79910  Biso   1.000  C
  C17      1.0000 0.12680  0.45260  0.25440  Biso   1.000  C
  C18      1.0000 0.37320  0.54740  0.75440  Biso   1.000  C
  C19      1.0000 0.62680  0.04740  0.74560  Biso   1.000  C
  C20      1.0000 0.87320  0.95260  0.24560  Biso   1.000  C
  C21      1.0000 0.87320  0.54740  0.74560  Biso   1.000  C
  C22      1.0000 0.62680  0.45260  0.24560  Biso   1.000  C
  C23      1.0000 0.37320  0.95260  0.25440  Biso   1.000  C
  C24      1.0000 0.12680  0.04740  0.75440  Biso   1.000  C
  C25      1.0000 0.08460  0.14570  0.40620  Biso   1.000  C
  C26      1.0000 0.41540  0.85430  0.90620  Biso   1.000  C
  C27      1.0000 0.58460  0.35430  0.59380  Biso   1.000  C
  C28      1.0000 0.91540  0.64570  0.09380  Biso   1.000  C
  C29      1.0000 0.91540  0.85430  0.59380  Biso   1.000  C
  C30      1.0000 0.58460  0.14570  0.09380  Biso   1.000  C
  C31      1.0000 0.41540  0.64570  0.40620  Biso   1.000  C
  C32      1.0000 0.08460  0.35430  0.90620  Biso   1.000  C
  C33      1.0000 0.07520  0.23950  0.49400  Biso   1.000  C
  C34      1.0000 0.42480  0.76050  0.99400  Biso   1.000  C
  C35      1.0000 0.57520  0.26050  0.50600  Biso   1.000  C
  C36      1.0000 0.92480  0.73950  0.00600  Biso   1.000  C
  C37      1.0000 0.92480  0.76050  0.50600  Biso   1.000  C
  C38      1.0000 0.57520  0.23950  0.00600  Biso   1.000  C
  C39      1.0000 0.42480  0.73950  0.49400  Biso   1.000  C
  C40      1.0000 0.07520  0.26050  0.99400  Biso   1.000  C
  C41      1.0000 0.02670  0.27890  0.51690  Biso   1.000  C
  C42      1.0000 0.47330  0.72110  0.01690  Biso   1.000  C
  C43      1.0000 0.52670  0.22110  0.48310  Biso   1.000  C
  C44      1.0000 0.97330  0.77890  0.98310  Biso   1.000  C
  C45      1.0000 0.97330  0.72110  0.48310  Biso   1.000  C
  C46      1.0000 0.52670  0.27890  0.98310  Biso   1.000  C
  C47      1.0000 0.47330  0.77890  0.51690  Biso   1.000  C
  C48      1.0000 0.02670  0.22110  0.01690  Biso   1.000  C
  C49      1.0000 0.98870  0.22700  0.45480  Biso   1.000  C
  C50      1.0000 0.51130  0.77300  0.95480  Biso   1.000  C
  C51      1.0000 0.48870  0.27300  0.54520  Biso   1.000  C
  C52      1.0000 0.01130  0.72700  0.04520  Biso   1.000  C
  C53      1.0000 0.01130  0.77300  0.54520  Biso   1.000  C
  C54      1.0000 0.48870  0.22700  0.04520  Biso   1.000  C
  C55      1.0000 0.51130  0.72700  0.45480  Biso   1.000  C
  C56      1.0000 0.98870  0.27300  0.95480  Biso   1.000  C
  C57      1.0000 0.93500  0.26700  0.48020  Biso   1.000  C
  C58      1.0000 0.56500  0.73300  0.98020  Biso   1.000  C
  C59      1.0000 0.43500  0.23300  0.51980  Biso   1.000  C
  C60      1.0000 0.06500  0.76700  0.01980  Biso   1.000  C
  C61      1.0000 0.06500  0.73300  0.51980  Biso   1.000  C
  C62      1.0000 0.43500  0.26700  0.01980  Biso   1.000  C
  C63      1.0000 0.56500  0.76700  0.48020  Biso   1.000  C
  C64      1.0000 0.93500  0.23300  0.98020  Biso   1.000  C
  C65      1.0000 0.99880  0.13340  0.36720  Biso   1.000  C
  C66      1.0000 0.50120  0.86660  0.86720  Biso   1.000  C
  C67      1.0000 0.49880  0.36660  0.63280  Biso   1.000  C
  C68      1.0000 0.00120  0.63340  0.13280  Biso   1.000  C
  C69      1.0000 0.00120  0.86660  0.63280  Biso   1.000  C
  C70      1.0000 0.49880  0.13340  0.13280  Biso   1.000  C
  C71      1.0000 0.50120  0.63340  0.36720  Biso   1.000  C
  C72      1.0000 0.99880  0.36660  0.86720  Biso   1.000  C
  C73      1.0000 0.04660  0.09060  0.34270  Biso   1.000  C
  C74      1.0000 0.45340  0.90940  0.84270  Biso   1.000  C
  C75      1.0000 0.54660  0.40940  0.65730  Biso   1.000  C
  C76      1.0000 0.95340  0.59060  0.15730  Biso   1.000  C
  C77      1.0000 0.95340  0.90940  0.65730  Biso   1.000  C
  C78      1.0000 0.54660  0.09060  0.15730  Biso   1.000  C
  C79      1.0000 0.45340  0.59060  0.34270  Biso   1.000  C
  C80      1.0000 0.04660  0.40940  0.84270  Biso   1.000  C
  H1       1.0000 0.17500  0.37400  0.38000  Biso   1.000  H
  H2       1.0000 0.32500  0.62600  0.88000  Biso   1.000  H
  H3       1.0000 0.67500  0.12600  0.62000  Biso   1.000  H
  H4       1.0000 0.82500  0.87400  0.12000  Biso   1.000  H
  H5       1.0000 0.82500  0.62600  0.62000  Biso   1.000  H
  H6       1.0000 0.67500  0.37400  0.12000  Biso   1.000  H
  H7       1.0000 0.32500  0.87400  0.38000  Biso   1.000  H
  H8       1.0000 0.17500  0.12600  0.88000  Biso   1.000  H
  H9       1.0000 0.09300  0.41200  0.28400  Biso   1.000  H
  H10      1.0000 0.40700  0.58800  0.78400  Biso   1.000  H
  H11      1.0000 0.59300  0.08800  0.71600  Biso   1.000  H
  H12      1.0000 0.90700  0.91200  0.21600  Biso   1.000  H
  H13      1.0000 0.90700  0.58800  0.71600  Biso   1.000  H
  H14      1.0000 0.59300  0.41200  0.21600  Biso   1.000  H
  H15      1.0000 0.40700  0.91200  0.28400  Biso   1.000  H
  H16      1.0000 0.09300  0.08800  0.78400  Biso   1.000  H
  H17      1.0000 0.12500  0.44000  0.17100  Biso   1.000  H
  H18      1.0000 0.37500  0.56000  0.67100  Biso   1.000  H
  H19      1.0000 0.62500  0.06000  0.82900  Biso   1.000  H
  H20      1.0000 0.87500  0.94000  0.32900  Biso   1.000  H
  H21      1.0000 0.87500  0.56000  0.82900  Biso   1.000  H
  H22      1.0000 0.62500  0.44000  0.32900  Biso   1.000  H
  H23      1.0000 0.37500  0.94000  0.17100  Biso   1.000  H
  H24      1.0000 0.12500  0.06000  0.67100  Biso   1.000  H
  H25      1.0000 0.13300  0.54200  0.27300  Biso   1.000  H
  H26      1.0000 0.36700  0.45800  0.77300  Biso   1.000  H
  H27      1.0000 0.63300  0.95800  0.72700  Biso   1.000  H
  H28      1.0000 0.86700  0.04200  0.22700  Biso   1.000  H
  H29      1.0000 0.86700  0.45800  0.72700  Biso   1.000  H
  H30      1.0000 0.63300  0.54200  0.22700  Biso   1.000  H
  H31      1.0000 0.36700  0.04200  0.27300  Biso   1.000  H
  H32      1.0000 0.13300  0.95800  0.77300  Biso   1.000  H
  H33      1.0000 0.09900  0.27600  0.53300  Biso   1.000  H
  H34      1.0000 0.40100  0.72400  0.03300  Biso   1.000  H
  H35      1.0000 0.59900  0.22400  0.46700  Biso   1.000  H
  H36      1.0000 0.90100  0.77600  0.96700  Biso   1.000  H
  H37      1.0000 0.90100  0.72400  0.46700  Biso   1.000  H
  H38      1.0000 0.59900  0.27600  0.96700  Biso   1.000  H
  H39      1.0000 0.40100  0.77600  0.53300  Biso   1.000  H
  H40      1.0000 0.09900  0.22400  0.03300  Biso   1.000  H
  H41      1.0000 0.01900  0.35400  0.58500  Biso   1.000  H
  H42      1.0000 0.48100  0.64600  0.08500  Biso   1.000  H
  H43      1.0000 0.51900  0.14600  0.41500  Biso   1.000  H
  H44      1.0000 0.98100  0.85400  0.91500  Biso   1.000  H
  H45      1.0000 0.98100  0.64600  0.41500  Biso   1.000  H
  H46      1.0000 0.51900  0.35400  0.91500  Biso   1.000  H
  H47      1.0000 0.48100  0.85400  0.58500  Biso   1.000  H
  H48      1.0000 0.01900  0.14600  0.08500  Biso   1.000  H
  H49      1.0000 0.92700  0.24700  0.42200  Biso   1.000  H
  H50      1.0000 0.57300  0.75300  0.92200  Biso   1.000  H
  H51      1.0000 0.42700  0.25300  0.57800  Biso   1.000  H
  H52      1.0000 0.07300  0.74700  0.07800  Biso   1.000  H
  H53      1.0000 0.07300  0.75300  0.57800  Biso   1.000  H
  H54      1.0000 0.42700  0.24700  0.07800  Biso   1.000  H
  H55      1.0000 0.57300  0.74700  0.42200  Biso   1.000  H
  H56      1.0000 0.92700  0.25300  0.92200  Biso   1.000  H
  H57      1.0000 0.94200  0.28800  0.53000  Biso   1.000  H
  H58      1.0000 0.55800  0.71200  0.03000  Biso   1.000  H
  H59      1.0000 0.44200  0.21200  0.47000  Biso   1.000  H
  H60      1.0000 0.05800  0.78800  0.97000  Biso   1.000  H
  H61      1.0000 0.05800  0.71200  0.47000  Biso   1.000  H
  H62      1.0000 0.44200  0.28800  0.97000  Biso   1.000  H
  H63      1.0000 0.55800  0.78800  0.53000  Biso   1.000  H
  H64      1.0000 0.94200  0.21200  0.03000  Biso   1.000  H
  H65      1.0000 0.93100  0.38100  0.45500  Biso   1.000  H
  H66      1.0000 0.56900  0.61900  0.95500  Biso   1.000  H
  H67      1.0000 0.43100  0.11900  0.54500  Biso   1.000  H
  H68      1.0000 0.06900  0.88100  0.04500  Biso   1.000  H
  H69      1.0000 0.06900  0.61900  0.54500  Biso   1.000  H
  H70      1.0000 0.43100  0.38100  0.04500  Biso   1.000  H
  H71      1.0000 0.56900  0.88100  0.45500  Biso   1.000  H
  H72      1.0000 0.93100  0.11900  0.95500  Biso   1.000  H
  H73      1.0000 0.97500  0.09400  0.32500  Biso   1.000  H
  H74      1.0000 0.52500  0.90600  0.82500  Biso   1.000  H
  H75      1.0000 0.47500  0.40600  0.67500  Biso   1.000  H
  H76      1.0000 0.02500  0.59400  0.17500  Biso   1.000  H
  H77      1.0000 0.02500  0.90600  0.67500  Biso   1.000  H
  H78      1.0000 0.47500  0.09400  0.17500  Biso   1.000  H
  H79      1.0000 0.52500  0.59400  0.32500  Biso   1.000  H
  H80      1.0000 0.97500  0.40600  0.82500  Biso   1.000  H
  H81      1.0000 0.05600  0.02200  0.27400  Biso   1.000  H
  H82      1.0000 0.44400  0.97800  0.77400  Biso   1.000  H
  H83      1.0000 0.55600  0.47800  0.72600  Biso   1.000  H
  H84      1.0000 0.94400  0.52200  0.22600  Biso   1.000  H
  H85      1.0000 0.94400  0.97800  0.72600  Biso   1.000  H
  H86      1.0000 0.55600  0.02200  0.22600  Biso   1.000  H
  H87      1.0000 0.44400  0.52200  0.27400  Biso   1.000  H
  H88      1.0000 0.05600  0.47800  0.77400  Biso   1.000  H
  H89      1.0000 0.26700  0.04000  0.03500  Biso   1.000  H
  H90      1.0000 0.23300  0.96000  0.53500  Biso   1.000  H
  H91      1.0000 0.76700  0.46000  0.96500  Biso   1.000  H
  H92      1.0000 0.73300  0.54000  0.46500  Biso   1.000  H
  H93      1.0000 0.73300  0.96000  0.96500  Biso   1.000  H
  H94      1.0000 0.76700  0.04000  0.46500  Biso   1.000  H
  H95      1.0000 0.23300  0.54000  0.03500  Biso   1.000  H
  H96      1.0000 0.26700  0.46000  0.53500  Biso   1.000  H
  H97      1.0000 0.26300  0.16100  0.00100  Biso   1.000  H
  H98      1.0000 0.23700  0.83900  0.50100  Biso   1.000  H
  H99      1.0000 0.76300  0.33900  0.99900  Biso   1.000  H
  H100     1.0000 0.73700  0.66100  0.49900  Biso   1.000  H
  H101     1.0000 0.73700  0.83900  0.99900  Biso   1.000  H
  H102     1.0000 0.76300  0.16100  0.49900  Biso   1.000  H
  H103     1.0000 0.23700  0.66100  0.00100  Biso   1.000  H
  H104     1.0000 0.26300  0.33900  0.50100  Biso   1.000  H
  H105     1.0000 0.15800  0.92600  0.16000  Biso   1.000  H
  H106     1.0000 0.34200  0.07400  0.66000  Biso   1.000  H
  H107     1.0000 0.65800  0.57400  0.84000  Biso   1.000  H
  H108     1.0000 0.84200  0.42600  0.34000  Biso   1.000  H
  H109     1.0000 0.84200  0.07400  0.84000  Biso   1.000  H
  H110     1.0000 0.65800  0.92600  0.34000  Biso   1.000  H
  H111     1.0000 0.34200  0.42600  0.16000  Biso   1.000  H
  H112     1.0000 0.15800  0.57400  0.66000  Biso   1.000  H
  H113     1.0000 0.17600  0.92400  0.06800  Biso   1.000  H
  H114     1.0000 0.32400  0.07600  0.56800  Biso   1.000  H
  H115     1.0000 0.67600  0.57600  0.93200  Biso   1.000  H
  H116     1.0000 0.82400  0.42400  0.43200  Biso   1.000  H
  H117     1.0000 0.82400  0.07600  0.93200  Biso   1.000  H
  H118     1.0000 0.67600  0.92400  0.43200  Biso   1.000  H
  H119     1.0000 0.32400  0.42400  0.06800  Biso   1.000  H
  H120     1.0000 0.17600  0.57600  0.56800  Biso   1.000  H
  O49      1.0000 0.30570  0.20480  0.43110  Biso   1.000  O
  O50      1.0000 0.19430  0.79520  0.93110  Biso   1.000  O
  O51      1.0000 0.80570  0.29520  0.56890  Biso   1.000  O
  O52      1.0000 0.69430  0.70480  0.06890  Biso   1.000  O
  O53      1.0000 0.69430  0.79520  0.56890  Biso   1.000  O
  O54      1.0000 0.80570  0.20480  0.06890  Biso   1.000  O
  O55      1.0000 0.19430  0.70480  0.43110  Biso   1.000  O
  O56      1.0000 0.30570  0.29520  0.93110  Biso   1.000  O
  H121     1.0000 0.29600  0.13700  0.35300  Biso   1.000  H
  H122     1.0000 0.20400  0.86300  0.85300  Biso   1.000  H
  H123     1.0000 0.79600  0.36300  0.64700  Biso   1.000  H
  H124     1.0000 0.70400  0.63700  0.14700  Biso   1.000  H
  H125     1.0000 0.70400  0.86300  0.64700  Biso   1.000  H
  H126     1.0000 0.79600  0.13700  0.14700  Biso   1.000  H
  H127     1.0000 0.20400  0.63700  0.35300  Biso   1.000  H
  H128     1.0000 0.29600  0.36300  0.85300  Biso   1.000  H
  H129     1.0000 0.32600  0.24600  0.40000  Biso   1.000  H
  H130     1.0000 0.17400  0.75400  0.90000  Biso   1.000  H
  H131     1.0000 0.82600  0.25400  0.60000  Biso   1.000  H
  H132     1.0000 0.67400  0.74600  0.10000  Biso   1.000  H
  H133     1.0000 0.67400  0.75400  0.60000  Biso   1.000  H
  H134     1.0000 0.82600  0.24600  0.10000  Biso   1.000  H
  H135     1.0000 0.17400  0.74600  0.40000  Biso   1.000  H
  H136     1.0000 0.32600  0.25400  0.90000  Biso   1.000  H
