data_image0
_cell_length_a       19.627
_cell_length_b       8.288
_cell_length_c       6.52
_cell_angle_alpha    90
_cell_angle_beta     90
_cell_angle_gamma    90

_symmetry_space_group_name_H-M    "P 1"
_symmetry_int_tables_number       1

loop_
  _symmetry_equiv_pos_as_xyz
  'x, y, z'

loop_
  _atom_site_label
  _atom_site_occupancy
  _atom_site_fract_x
  _atom_site_fract_y
  _atom_site_fract_z
  _atom_site_thermal_displace_type
  _atom_site_B_iso_or_equiv
  _atom_site_type_symbol
  Cl1      1.0000 0.29092  0.94863  0.14268  Biso   1.000  Cl
  Cl2      1.0000 0.20908  0.05137  0.64268  Biso   1.000  Cl
  Cl3      1.0000 0.79092  0.55137  0.85732  Biso   1.000  Cl
  Cl4      1.0000 0.70908  0.44863  0.35732  Biso   1.000  Cl
  Cl5      1.0000 0.15563  0.74402  0.01726  Biso   1.000  Cl
  Cl6      1.0000 0.34437  0.25598  0.51726  Biso   1.000  Cl
  Cl7      1.0000 0.65563  0.75598  0.98274  Biso   1.000  Cl
  Cl8      1.0000 0.84437  0.24402  0.48274  Biso   1.000  Cl
  Cu1      1.0000 0.18015  0.00948  0.05746  Biso   1.000  Cu
  Cu2      1.0000 0.31985  0.99052  0.55746  Biso   1.000  Cu
  Cu3      1.0000 0.68015  0.49052  0.94254  Biso   1.000  Cu
  Cu4      1.0000 0.81985  0.50948  0.44254  Biso   1.000  Cu
  C1       1.0000 0.04540  0.15480  0.13840  Biso   1.000  C
  C2       1.0000 0.45460  0.84520  0.63840  Biso   1.000  C
  C3       1.0000 0.54540  0.34520  0.86160  Biso   1.000  C
  C4       1.0000 0.95460  0.65480  0.36160  Biso   1.000  C
  C5       1.0000 0.97700  0.18800  0.10100  Biso   1.000  C
  C6       1.0000 0.52300  0.81200  0.60100  Biso   1.000  C
  C7       1.0000 0.47700  0.31200  0.89900  Biso   1.000  C
  C8       1.0000 0.02300  0.68800  0.39900  Biso   1.000  C
  C9       1.0000 0.94700  0.13440  0.92720  Biso   1.000  C
  C10      1.0000 0.55300  0.86560  0.42720  Biso   1.000  C
  C11      1.0000 0.44700  0.36560  0.07280  Biso   1.000  C
  C12      1.0000 0.05300  0.63440  0.57280  Biso   1.000  C
  C13      1.0000 0.98350  0.04750  0.78710  Biso   1.000  C
  C14      1.0000 0.51650  0.95250  0.28710  Biso   1.000  C
  C15      1.0000 0.48350  0.45250  0.21290  Biso   1.000  C
  C16      1.0000 0.01650  0.54750  0.71290  Biso   1.000  C
  C17      1.0000 0.05100  0.01430  0.83140  Biso   1.000  C
  C18      1.0000 0.44900  0.98570  0.33140  Biso   1.000  C
  C19      1.0000 0.55100  0.48570  0.16860  Biso   1.000  C
  C20      1.0000 0.94900  0.51430  0.66860  Biso   1.000  C
  C21      1.0000 0.08240  0.21820  0.32170  Biso   1.000  C
  C22      1.0000 0.41760  0.78180  0.82170  Biso   1.000  C
  C23      1.0000 0.58240  0.28180  0.67830  Biso   1.000  C
  C24      1.0000 0.91760  0.71820  0.17830  Biso   1.000  C
  C25      1.0000 0.14140  0.32680  0.25920  Biso   1.000  C
  C26      1.0000 0.35860  0.67320  0.75920  Biso   1.000  C
  C27      1.0000 0.64140  0.17320  0.74080  Biso   1.000  C
  C28      1.0000 0.85860  0.82680  0.24080  Biso   1.000  C
  C29      1.0000 0.23930  0.33590  0.02770  Biso   1.000  C
  C30      1.0000 0.26070  0.66410  0.52770  Biso   1.000  C
  C31      1.0000 0.73930  0.16410  0.97230  Biso   1.000  C
  C32      1.0000 0.76070  0.83590  0.47230  Biso   1.000  C
  H1       1.0000 0.94800  0.25700  0.21100  Biso   1.000  H
  H2       1.0000 0.55200  0.74300  0.71100  Biso   1.000  H
  H3       1.0000 0.44800  0.24300  0.78900  Biso   1.000  H
  H4       1.0000 0.05200  0.75700  0.28900  Biso   1.000  H
  H5       1.0000 0.89400  0.16000  0.89900  Biso   1.000  H
  H6       1.0000 0.60600  0.84000  0.39900  Biso   1.000  H
  H7       1.0000 0.39400  0.34000  0.10100  Biso   1.000  H
  H8       1.0000 0.10600  0.66000  0.60100  Biso   1.000  H
  H9       1.0000 0.96000  0.00600  0.64600  Biso   1.000  H
  H10      1.0000 0.54000  0.99400  0.14600  Biso   1.000  H
  H11      1.0000 0.46000  0.49400  0.35400  Biso   1.000  H
  H12      1.0000 0.04000  0.50600  0.85400  Biso   1.000  H
  H13      1.0000 0.08000  0.94300  0.72400  Biso   1.000  H
  H14      1.0000 0.42000  0.05700  0.22400  Biso   1.000  H
  H15      1.0000 0.58000  0.55700  0.27600  Biso   1.000  H
  H16      1.0000 0.92000  0.44300  0.77600  Biso   1.000  H
  H17      1.0000 0.10200  0.11800  0.40900  Biso   1.000  H
  H18      1.0000 0.39800  0.88200  0.90900  Biso   1.000  H
  H19      1.0000 0.60200  0.38200  0.59100  Biso   1.000  H
  H20      1.0000 0.89800  0.61800  0.09100  Biso   1.000  H
  H21      1.0000 0.04700  0.28600  0.41500  Biso   1.000  H
  H22      1.0000 0.45300  0.71400  0.91500  Biso   1.000  H
  H23      1.0000 0.54700  0.21400  0.58500  Biso   1.000  H
  H24      1.0000 0.95300  0.78600  0.08500  Biso   1.000  H
  H25      1.0000 0.15900  0.39000  0.39300  Biso   1.000  H
  H26      1.0000 0.34100  0.61000  0.89300  Biso   1.000  H
  H27      1.0000 0.65900  0.11000  0.60700  Biso   1.000  H
  H28      1.0000 0.84100  0.89000  0.10700  Biso   1.000  H
  H29      1.0000 0.12300  0.41300  0.14700  Biso   1.000  H
  H30      1.0000 0.37700  0.58700  0.64700  Biso   1.000  H
  H31      1.0000 0.62300  0.08700  0.85300  Biso   1.000  H
  H32      1.0000 0.87700  0.91300  0.35300  Biso   1.000  H
  H33      1.0000 0.24100  0.45700  0.08400  Biso   1.000  H
  H34      1.0000 0.25900  0.54300  0.58400  Biso   1.000  H
  H35      1.0000 0.74100  0.04300  0.91600  Biso   1.000  H
  H36      1.0000 0.75900  0.95700  0.41600  Biso   1.000  H
  H37      1.0000 0.21600  0.33900  0.87700  Biso   1.000  H
  H38      1.0000 0.28400  0.66100  0.37700  Biso   1.000  H
  H39      1.0000 0.71600  0.16100  0.12300  Biso   1.000  H
  H40      1.0000 0.78400  0.83900  0.62300  Biso   1.000  H
  H41      1.0000 0.29100  0.29000  0.01300  Biso   1.000  H
  H42      1.0000 0.20900  0.71000  0.51300  Biso   1.000  H
  H43      1.0000 0.79100  0.21000  0.98700  Biso   1.000  H
  H44      1.0000 0.70900  0.79000  0.48700  Biso   1.000  H
  H45      1.0000 0.22500  0.22500  0.30500  Biso   1.000  H
  H46      1.0000 0.27500  0.77500  0.80500  Biso   1.000  H
  H47      1.0000 0.72500  0.27500  0.69500  Biso   1.000  H
  H48      1.0000 0.77500  0.72500  0.19500  Biso   1.000  H
  N1       1.0000 0.19900  0.23570  0.16920  Biso   1.000  N
  N2       1.0000 0.30100  0.76430  0.66920  Biso   1.000  N
  N3       1.0000 0.69900  0.26430  0.83080  Biso   1.000  N
  N4       1.0000 0.80100  0.73570  0.33080  Biso   1.000  N
  N5       1.0000 0.08190  0.06790  0.00300  Biso   1.000  N
  N6       1.0000 0.41810  0.93210  0.50300  Biso   1.000  N
  N7       1.0000 0.58190  0.43210  0.99700  Biso   1.000  N
  N8       1.0000 0.91810  0.56790  0.49700  Biso   1.000  N
