data_image0
_cell_length_a       6.5112
_cell_length_b       8.2566
_cell_length_c       19.598
_cell_angle_alpha    90
_cell_angle_beta     90
_cell_angle_gamma    90

_symmetry_space_group_name_H-M    "P 1"
_symmetry_int_tables_number       1

loop_
  _symmetry_equiv_pos_as_xyz
  'x, y, z'

loop_
  _atom_site_label
  _atom_site_occupancy
  _atom_site_fract_x
  _atom_site_fract_y
  _atom_site_fract_z
  _atom_site_thermal_displace_type
  _atom_site_B_iso_or_equiv
  _atom_site_type_symbol
  C1       1.0000 0.58160  0.76610  0.80081  Biso   1.000  C
  C2       1.0000 0.91840  0.23390  0.30081  Biso   1.000  C
  C3       1.0000 0.08160  0.73390  0.19919  Biso   1.000  C
  C4       1.0000 0.41840  0.26610  0.69919  Biso   1.000  C
  H1       1.0000 0.48780  0.70550  0.82590  Biso   1.000  H
  H2       1.0000 0.01220  0.29450  0.32590  Biso   1.000  H
  H3       1.0000 0.98780  0.79450  0.17410  Biso   1.000  H
  H4       1.0000 0.51220  0.20550  0.67410  Biso   1.000  H
  C5       1.0000 0.53970  0.79820  0.73394  Biso   1.000  C
  C6       1.0000 0.96030  0.20180  0.23394  Biso   1.000  C
  C7       1.0000 0.03970  0.70180  0.26606  Biso   1.000  C
  C8       1.0000 0.46030  0.29820  0.76606  Biso   1.000  C
  H5       1.0000 0.41870  0.76130  0.71410  Biso   1.000  H
  H6       1.0000 0.08130  0.23870  0.21410  Biso   1.000  H
  H7       1.0000 0.91870  0.73870  0.28590  Biso   1.000  H
  H8       1.0000 0.58130  0.26130  0.78590  Biso   1.000  H
  C9       1.0000 0.67780  0.88510  0.69673  Biso   1.000  C
  C10      1.0000 0.82220  0.11490  0.19673  Biso   1.000  C
  C11      1.0000 0.17780  0.61490  0.30327  Biso   1.000  C
  C12      1.0000 0.32220  0.38510  0.80327  Biso   1.000  C
  H9       1.0000 0.65270  0.90780  0.65100  Biso   1.000  H
  H10      1.0000 0.84730  0.09220  0.15100  Biso   1.000  H
  H11      1.0000 0.15270  0.59220  0.34900  Biso   1.000  H
  H12      1.0000 0.34730  0.40780  0.84900  Biso   1.000  H
  C13      1.0000 0.85260  0.93840  0.72722  Biso   1.000  C
  C14      1.0000 0.64740  0.06160  0.22722  Biso   1.000  C
  C15      1.0000 0.35260  0.56160  0.27278  Biso   1.000  C
  C16      1.0000 0.14740  0.43840  0.77278  Biso   1.000  C
  H13      1.0000 0.94840  0.99710  0.70220  Biso   1.000  H
  H14      1.0000 0.55160  0.00290  0.20220  Biso   1.000  H
  H15      1.0000 0.44840  0.50290  0.29780  Biso   1.000  H
  H16      1.0000 0.05160  0.49710  0.79780  Biso   1.000  H
  C17      1.0000 0.88840  0.90540  0.79553  Biso   1.000  C
  C18      1.0000 0.61160  0.09460  0.29553  Biso   1.000  C
  C19      1.0000 0.38840  0.59460  0.20447  Biso   1.000  C
  C20      1.0000 0.11160  0.40540  0.70447  Biso   1.000  C
  C21      1.0000 0.07090  0.96730  0.83311  Biso   1.000  C
  C22      1.0000 0.42910  0.03270  0.33311  Biso   1.000  C
  C23      1.0000 0.57090  0.53270  0.16689  Biso   1.000  C
  C24      1.0000 0.92910  0.46730  0.66689  Biso   1.000  C
  H17      1.0000 0.15800  0.02710  0.80180  Biso   1.000  H
  H18      1.0000 0.34200  0.97290  0.30180  Biso   1.000  H
  H19      1.0000 0.65800  0.47290  0.19820  Biso   1.000  H
  H20      1.0000 0.84200  0.52710  0.69820  Biso   1.000  H
  H21      1.0000 0.14950  0.87640  0.85050  Biso   1.000  H
  H22      1.0000 0.35050  0.12360  0.35050  Biso   1.000  H
  H23      1.0000 0.64950  0.62360  0.14950  Biso   1.000  H
  H24      1.0000 0.85050  0.37640  0.64950  Biso   1.000  H
  C25      1.0000 0.01090  0.07640  0.89187  Biso   1.000  C
  C26      1.0000 0.48910  0.92360  0.39187  Biso   1.000  C
  C27      1.0000 0.51090  0.42360  0.10813  Biso   1.000  C
  C28      1.0000 0.98910  0.57640  0.60813  Biso   1.000  C
  H25      1.0000 0.13160  0.13380  0.90790  Biso   1.000  H
  H26      1.0000 0.36840  0.86620  0.40790  Biso   1.000  H
  H27      1.0000 0.63160  0.36620  0.09210  Biso   1.000  H
  H28      1.0000 0.86840  0.63380  0.59210  Biso   1.000  H
  H29      1.0000 0.91280  0.15620  0.87590  Biso   1.000  H
  H30      1.0000 0.58720  0.84380  0.37590  Biso   1.000  H
  H31      1.0000 0.41280  0.34380  0.12410  Biso   1.000  H
  H32      1.0000 0.08720  0.65620  0.62410  Biso   1.000  H
  C29      1.0000 0.77970  0.08670  0.98899  Biso   1.000  C
  C30      1.0000 0.72030  0.91330  0.48899  Biso   1.000  C
  C31      1.0000 0.27970  0.41330  0.01101  Biso   1.000  C
  C32      1.0000 0.22030  0.58670  0.51101  Biso   1.000  C
  H33      1.0000 0.73200  0.02740  0.02800  Biso   1.000  H
  H34      1.0000 0.76800  0.97260  0.52800  Biso   1.000  H
  H35      1.0000 0.23200  0.47260  0.97200  Biso   1.000  H
  H36      1.0000 0.26800  0.52740  0.47200  Biso   1.000  H
  H37      1.0000 0.66460  0.11710  0.96120  Biso   1.000  H
  H38      1.0000 0.83540  0.88290  0.46120  Biso   1.000  H
  H39      1.0000 0.16460  0.38290  0.03880  Biso   1.000  H
  H40      1.0000 0.33540  0.61710  0.53880  Biso   1.000  H
  H41      1.0000 0.85070  0.18230  0.00380  Biso   1.000  H
  H42      1.0000 0.64930  0.81770  0.50380  Biso   1.000  H
  H43      1.0000 0.35070  0.31770  0.99620  Biso   1.000  H
  H44      1.0000 0.14930  0.68230  0.49620  Biso   1.000  H
  Cl1      1.0000 0.76745  0.49387  0.90551  Biso   1.000  Cl
  Cl2      1.0000 0.73255  0.50613  0.40551  Biso   1.000  Cl
  Cl3      1.0000 0.26745  0.00613  0.09449  Biso   1.000  Cl
  Cl4      1.0000 0.23255  0.99387  0.59449  Biso   1.000  Cl
  Cl5      1.0000 0.89362  0.69847  0.04077  Biso   1.000  Cl
  Cl6      1.0000 0.60638  0.30153  0.54077  Biso   1.000  Cl
  Cl7      1.0000 0.39362  0.80153  0.95923  Biso   1.000  Cl
  Cl8      1.0000 0.10638  0.19847  0.45923  Biso   1.000  Cl
  Cu1      1.0000 0.80720  0.75935  0.93021  Biso   1.000  Cu
  Cu2      1.0000 0.69280  0.24065  0.43021  Biso   1.000  Cu
  Cu3      1.0000 0.30720  0.74065  0.06979  Biso   1.000  Cu
  Cu4      1.0000 0.19280  0.25935  0.56979  Biso   1.000  Cu
  N1       1.0000 0.75270  0.81860  0.83173  Biso   1.000  N
  N2       1.0000 0.74730  0.18140  0.33173  Biso   1.000  N
  N3       1.0000 0.25270  0.68140  0.16827  Biso   1.000  N
  N4       1.0000 0.24730  0.31860  0.66827  Biso   1.000  N
  N5       1.0000 0.91960  0.98490  0.94920  Biso   1.000  N
  N6       1.0000 0.58040  0.01510  0.44920  Biso   1.000  N
  N7       1.0000 0.41960  0.51510  0.05080  Biso   1.000  N
  N8       1.0000 0.08040  0.48490  0.55080  Biso   1.000  N
  H45      1.0000 0.02800  0.96000  0.97920  Biso   1.000  H
  H46      1.0000 0.47200  0.04000  0.47920  Biso   1.000  H
  H47      1.0000 0.52800  0.54000  0.02080  Biso   1.000  H
  H48      1.0000 0.97200  0.46000  0.52080  Biso   1.000  H
