data_image0
_cell_length_a       4.8922
_cell_length_b       11.42
_cell_length_c       14.253
_cell_angle_alpha    90
_cell_angle_beta     90.02
_cell_angle_gamma    90

_symmetry_space_group_name_H-M    "P 1"
_symmetry_int_tables_number       1

loop_
  _symmetry_equiv_pos_as_xyz
  'x, y, z'

loop_
  _atom_site_label
  _atom_site_occupancy
  _atom_site_fract_x
  _atom_site_fract_y
  _atom_site_fract_z
  _atom_site_thermal_displace_type
  _atom_site_B_iso_or_equiv
  _atom_site_type_symbol
  Cu1      1.0000 0.44090  0.08008  0.58539  Biso   1.000  Cu
  Cu2      1.0000 0.05910  0.58008  0.91461  Biso   1.000  Cu
  Cu3      1.0000 0.55910  0.91992  0.41461  Biso   1.000  Cu
  Cu4      1.0000 0.94090  0.41992  0.08539  Biso   1.000  Cu
  N1       1.0000 0.50530  0.42870  0.65130  Biso   1.000  N
  N2       1.0000 0.99470  0.92870  0.84870  Biso   1.000  N
  N3       1.0000 0.49470  0.57130  0.34870  Biso   1.000  N
  N4       1.0000 0.00530  0.07130  0.15130  Biso   1.000  N
  N5       1.0000 0.45950  0.91020  0.55090  Biso   1.000  N
  N6       1.0000 0.04050  0.41020  0.94910  Biso   1.000  N
  N7       1.0000 0.54050  0.08980  0.44910  Biso   1.000  N
  N8       1.0000 0.95950  0.58980  0.05090  Biso   1.000  N
  N9       1.0000 0.41190  0.25250  0.60180  Biso   1.000  N
  N10      1.0000 0.08810  0.75250  0.89820  Biso   1.000  N
  N11      1.0000 0.58810  0.74750  0.39820  Biso   1.000  N
  N12      1.0000 0.91190  0.24750  0.10180  Biso   1.000  N
  C1       1.0000 0.56730  0.31520  0.65670  Biso   1.000  C
  C2       1.0000 0.93270  0.81520  0.84330  Biso   1.000  C
  C3       1.0000 0.43270  0.68480  0.34330  Biso   1.000  C
  C4       1.0000 0.06730  0.18480  0.15670  Biso   1.000  C
  H1       1.0000 0.70400  0.28450  0.69480  Biso   1.000  H
  H2       1.0000 0.79600  0.78450  0.80520  Biso   1.000  H
  H3       1.0000 0.29600  0.71550  0.30520  Biso   1.000  H
  H4       1.0000 0.20400  0.21550  0.19480  Biso   1.000  H
  C5       1.0000 0.23800  0.32910  0.55830  Biso   1.000  C
  C6       1.0000 0.26200  0.82910  0.94170  Biso   1.000  C
  C7       1.0000 0.76200  0.67090  0.44170  Biso   1.000  C
  C8       1.0000 0.73800  0.17090  0.05830  Biso   1.000  C
  H5       1.0000 0.10330  0.30920  0.51500  Biso   1.000  H
  H6       1.0000 0.39670  0.80920  0.98500  Biso   1.000  H
  H7       1.0000 0.89670  0.69080  0.48500  Biso   1.000  H
  H8       1.0000 0.60330  0.19080  0.01500  Biso   1.000  H
  C9       1.0000 0.63670  0.52090  0.70540  Biso   1.000  C
  C10      1.0000 0.86330  0.02090  0.79460  Biso   1.000  C
  C11      1.0000 0.36330  0.47910  0.29460  Biso   1.000  C
  C12      1.0000 0.13670  0.97910  0.20540  Biso   1.000  C
  H9       1.0000 0.65040  0.59060  0.66680  Biso   1.000  H
  H10      1.0000 0.84960  0.09060  0.83320  Biso   1.000  H
  H11      1.0000 0.34960  0.40940  0.33320  Biso   1.000  H
  H12      1.0000 0.15040  0.90940  0.16680  Biso   1.000  H
  H13      1.0000 0.82090  0.49630  0.72110  Biso   1.000  H
  H14      1.0000 0.67910  0.99630  0.77890  Biso   1.000  H
  H15      1.0000 0.17910  0.50370  0.27890  Biso   1.000  H
  H16      1.0000 0.32090  0.00370  0.22110  Biso   1.000  H
  C13      1.0000 0.29520  0.43860  0.58890  Biso   1.000  C
  C14      1.0000 0.20480  0.93860  0.91110  Biso   1.000  C
  C15      1.0000 0.70480  0.56140  0.41110  Biso   1.000  C
  C16      1.0000 0.79520  0.06140  0.08890  Biso   1.000  C
  H17      1.0000 0.20810  0.50730  0.57080  Biso   1.000  H
  H18      1.0000 0.29190  0.00730  0.92920  Biso   1.000  H
  H19      1.0000 0.79190  0.49270  0.42920  Biso   1.000  H
  H20      1.0000 0.70810  0.99270  0.07080  Biso   1.000  H
  N13      1.0000 0.34350  0.83120  0.58910  Biso   1.000  N
  N14      1.0000 0.15650  0.33120  0.91090  Biso   1.000  N
  N15      1.0000 0.65650  0.16880  0.41090  Biso   1.000  N
  N16      1.0000 0.84350  0.66880  0.08910  Biso   1.000  N
  N17      1.0000 0.23160  0.75660  0.62480  Biso   1.000  N
  N18      1.0000 0.26840  0.25660  0.87520  Biso   1.000  N
  N19      1.0000 0.76840  0.24340  0.37520  Biso   1.000  N
  N20      1.0000 0.73160  0.74340  0.12480  Biso   1.000  N
  C17      1.0000 0.48510  0.55160  0.79570  Biso   1.000  C
  C18      1.0000 0.01490  0.05160  0.70430  Biso   1.000  C
  C19      1.0000 0.51490  0.44840  0.20430  Biso   1.000  C
  C20      1.0000 0.98510  0.94840  0.29570  Biso   1.000  C
  O1       1.0000 0.61710  0.58970  0.86240  Biso   1.000  O
  O2       1.0000 0.88290  0.08970  0.63760  Biso   1.000  O
  O3       1.0000 0.38290  0.41030  0.13760  Biso   1.000  O
  O4       1.0000 0.11710  0.91030  0.36240  Biso   1.000  O
  O5       1.0000 0.22870  0.53960  0.79402  Biso   1.000  O
  O6       1.0000 0.27130  0.03960  0.70598  Biso   1.000  O
  O7       1.0000 0.77130  0.46040  0.20598  Biso   1.000  O
  O8       1.0000 0.72870  0.96040  0.29402  Biso   1.000  O
