data_image0
_cell_length_a       10.189
_cell_length_b       19.76
_cell_length_c       7.455
_cell_angle_alpha    90
_cell_angle_beta     100.36
_cell_angle_gamma    90

_symmetry_space_group_name_H-M    "P 1"
_symmetry_int_tables_number       1

loop_
  _symmetry_equiv_pos_as_xyz
  'x, y, z'

loop_
  _atom_site_label
  _atom_site_occupancy
  _atom_site_fract_x
  _atom_site_fract_y
  _atom_site_fract_z
  _atom_site_thermal_displace_type
  _atom_site_B_iso_or_equiv
  _atom_site_type_symbol
  Cu1      1.0000 0.09466  0.72906  0.11636  Biso   1.000  Cu
  Cu2      1.0000 0.09466  0.27094  0.61636  Biso   1.000  Cu
  Cu3      1.0000 0.59466  0.22906  0.11636  Biso   1.000  Cu
  Cu4      1.0000 0.59466  0.77094  0.61636  Biso   1.000  Cu
  O1       1.0000 0.09330  0.72320  0.37710  Biso   1.000  O
  O2       1.0000 0.09330  0.27680  0.87710  Biso   1.000  O
  O3       1.0000 0.59330  0.22320  0.37710  Biso   1.000  O
  O4       1.0000 0.59330  0.77680  0.87710  Biso   1.000  O
  H1       1.0000 0.99600  0.70090  0.40870  Biso   1.000  H
  H2       1.0000 0.99600  0.29910  0.90870  Biso   1.000  H
  H3       1.0000 0.49600  0.20090  0.40870  Biso   1.000  H
  H4       1.0000 0.49600  0.79910  0.90870  Biso   1.000  H
  H5       1.0000 0.15390  0.72930  0.48330  Biso   1.000  H
  H6       1.0000 0.15390  0.27070  0.98330  Biso   1.000  H
  H7       1.0000 0.65390  0.22930  0.48330  Biso   1.000  H
  H8       1.0000 0.65390  0.77070  0.98330  Biso   1.000  H
  O5       1.0000 0.12560  0.71880  0.86320  Biso   1.000  O
  O6       1.0000 0.12560  0.28120  0.36320  Biso   1.000  O
  O7       1.0000 0.62560  0.21880  0.86320  Biso   1.000  O
  O8       1.0000 0.62560  0.78120  0.36320  Biso   1.000  O
  H9       1.0000 0.21170  0.70360  0.85240  Biso   1.000  H
  H10      1.0000 0.21170  0.29640  0.35240  Biso   1.000  H
  H11      1.0000 0.71170  0.20360  0.85240  Biso   1.000  H
  H12      1.0000 0.71170  0.79640  0.35240  Biso   1.000  H
  H13      1.0000 0.10660  0.75210  0.76560  Biso   1.000  H
  H14      1.0000 0.10660  0.24790  0.26560  Biso   1.000  H
  H15      1.0000 0.60660  0.25210  0.76560  Biso   1.000  H
  H16      1.0000 0.60660  0.74790  0.26560  Biso   1.000  H
  O9       1.0000 0.90020  0.77920  0.03460  Biso   1.000  O
  O10      1.0000 0.90020  0.22080  0.53460  Biso   1.000  O
  O11      1.0000 0.40020  0.27920  0.03460  Biso   1.000  O
  O12      1.0000 0.40020  0.72080  0.53460  Biso   1.000  O
  H17      1.0000 0.83950  0.81130  0.12550  Biso   1.000  H
  H18      1.0000 0.83950  0.18870  0.62550  Biso   1.000  H
  H19      1.0000 0.33950  0.31130  0.12550  Biso   1.000  H
  H20      1.0000 0.33950  0.68870  0.62550  Biso   1.000  H
  H21      1.0000 0.82950  0.78850  0.91250  Biso   1.000  H
  H22      1.0000 0.82950  0.21150  0.41250  Biso   1.000  H
  H23      1.0000 0.32950  0.28850  0.91250  Biso   1.000  H
  H24      1.0000 0.32950  0.71150  0.41250  Biso   1.000  H
  N1       1.0000 0.50160  0.13840  0.09830  Biso   1.000  N
  N2       1.0000 0.50160  0.86160  0.59830  Biso   1.000  N
  N3       1.0000 0.00160  0.63840  0.09830  Biso   1.000  N
  N4       1.0000 0.00160  0.36160  0.59830  Biso   1.000  N
  N5       1.0000 0.18740  0.82110  0.13520  Biso   1.000  N
  N6       1.0000 0.18740  0.17890  0.63520  Biso   1.000  N
  N7       1.0000 0.68740  0.32110  0.13520  Biso   1.000  N
  N8       1.0000 0.68740  0.67890  0.63520  Biso   1.000  N
  C1       1.0000 0.56050  0.08150  0.07200  Biso   1.000  C
  C2       1.0000 0.56050  0.91850  0.57200  Biso   1.000  C
  C3       1.0000 0.06050  0.58150  0.07200  Biso   1.000  C
  C4       1.0000 0.06050  0.41850  0.57200  Biso   1.000  C
  H25      1.0000 0.64980  0.08380  0.04800  Biso   1.000  H
  H26      1.0000 0.64980  0.91620  0.54800  Biso   1.000  H
  H27      1.0000 0.14980  0.58380  0.04800  Biso   1.000  H
  H28      1.0000 0.14980  0.41620  0.54800  Biso   1.000  H
  C5       1.0000 0.50280  0.01850  0.07390  Biso   1.000  C
  C6       1.0000 0.50280  0.98150  0.57390  Biso   1.000  C
  C7       1.0000 0.00280  0.51850  0.07390  Biso   1.000  C
  C8       1.0000 0.00280  0.48150  0.57390  Biso   1.000  C
  H29      1.0000 0.55110  0.97860  0.05180  Biso   1.000  H
  H30      1.0000 0.55110  0.02140  0.55180  Biso   1.000  H
  H31      1.0000 0.05110  0.47860  0.05180  Biso   1.000  H
  H32      1.0000 0.05110  0.52140  0.55180  Biso   1.000  H
  C9       1.0000 0.37400  0.01340  0.10840  Biso   1.000  C
  C10      1.0000 0.37400  0.98660  0.60840  Biso   1.000  C
  C11      1.0000 0.87400  0.51340  0.10840  Biso   1.000  C
  C12      1.0000 0.87400  0.48660  0.60840  Biso   1.000  C
  C13      1.0000 0.30940  0.07350  0.13410  Biso   1.000  C
  C14      1.0000 0.30940  0.92650  0.63410  Biso   1.000  C
  C15      1.0000 0.80940  0.57350  0.13410  Biso   1.000  C
  C16      1.0000 0.80940  0.42650  0.63410  Biso   1.000  C
  H33      1.0000 0.21970  0.07280  0.15730  Biso   1.000  H
  H34      1.0000 0.21970  0.92720  0.65730  Biso   1.000  H
  H35      1.0000 0.71970  0.57280  0.15730  Biso   1.000  H
  H36      1.0000 0.71970  0.42720  0.65730  Biso   1.000  H
  C17      1.0000 0.37620  0.13510  0.12980  Biso   1.000  C
  C18      1.0000 0.37620  0.86490  0.62980  Biso   1.000  C
  C19      1.0000 0.87620  0.63510  0.12980  Biso   1.000  C
  C20      1.0000 0.87620  0.36490  0.62980  Biso   1.000  C
  H37      1.0000 0.33070  0.17640  0.14720  Biso   1.000  H
  H38      1.0000 0.33070  0.82360  0.64720  Biso   1.000  H
  H39      1.0000 0.83070  0.67640  0.14720  Biso   1.000  H
  H40      1.0000 0.83070  0.32360  0.64720  Biso   1.000  H
  C21      1.0000 0.30930  0.94720  0.11960  Biso   1.000  C
  C22      1.0000 0.30930  0.05280  0.61960  Biso   1.000  C
  C23      1.0000 0.80930  0.44720  0.11960  Biso   1.000  C
  C24      1.0000 0.80930  0.55280  0.61960  Biso   1.000  C
  C25      1.0000 0.18070  0.94130  0.14740  Biso   1.000  C
  C26      1.0000 0.18070  0.05870  0.64740  Biso   1.000  C
  C27      1.0000 0.68070  0.44130  0.14740  Biso   1.000  C
  C28      1.0000 0.68070  0.55870  0.64740  Biso   1.000  C
  H41      1.0000 0.13010  0.98140  0.16000  Biso   1.000  H
  H42      1.0000 0.13010  0.01860  0.66000  Biso   1.000  H
  H43      1.0000 0.63010  0.48140  0.16000  Biso   1.000  H
  H44      1.0000 0.63010  0.51860  0.66000  Biso   1.000  H
  C29      1.0000 0.12330  0.87900  0.15250  Biso   1.000  C
  C30      1.0000 0.12330  0.12100  0.65250  Biso   1.000  C
  C31      1.0000 0.62330  0.37900  0.15250  Biso   1.000  C
  C32      1.0000 0.62330  0.62100  0.65250  Biso   1.000  C
  H45      1.0000 0.03300  0.87670  0.17300  Biso   1.000  H
  H46      1.0000 0.03300  0.12330  0.67300  Biso   1.000  H
  H47      1.0000 0.53300  0.37670  0.17300  Biso   1.000  H
  H48      1.0000 0.53300  0.62330  0.67300  Biso   1.000  H
  C33      1.0000 0.31250  0.82710  0.11880  Biso   1.000  C
  C34      1.0000 0.31250  0.17290  0.61880  Biso   1.000  C
  C35      1.0000 0.81250  0.32710  0.11880  Biso   1.000  C
  C36      1.0000 0.81250  0.67290  0.61880  Biso   1.000  C
  H49      1.0000 0.36230  0.78640  0.11020  Biso   1.000  H
  H50      1.0000 0.36230  0.21360  0.61020  Biso   1.000  H
  H51      1.0000 0.86230  0.28640  0.11020  Biso   1.000  H
  H52      1.0000 0.86230  0.71360  0.61020  Biso   1.000  H
  C37      1.0000 0.37710  0.88810  0.11100  Biso   1.000  C
  C38      1.0000 0.37710  0.11190  0.61100  Biso   1.000  C
  C39      1.0000 0.87710  0.38810  0.11100  Biso   1.000  C
  C40      1.0000 0.87710  0.61190  0.61100  Biso   1.000  C
  H53      1.0000 0.46970  0.88890  0.10100  Biso   1.000  H
  H54      1.0000 0.46970  0.11110  0.60100  Biso   1.000  H
  H55      1.0000 0.96970  0.38890  0.10100  Biso   1.000  H
  H56      1.0000 0.96970  0.61110  0.60100  Biso   1.000  H
  S1       1.0000 0.92597  0.14678  0.07458  Biso   1.000  S
  S2       1.0000 0.92597  0.85322  0.57458  Biso   1.000  S
  S3       1.0000 0.42597  0.64678  0.07458  Biso   1.000  S
  S4       1.0000 0.42597  0.35322  0.57458  Biso   1.000  S
  O13      1.0000 0.86470  0.15960  0.88340  Biso   1.000  O
  O14      1.0000 0.86470  0.84040  0.38340  Biso   1.000  O
  O15      1.0000 0.36470  0.65960  0.88340  Biso   1.000  O
  O16      1.0000 0.36470  0.34040  0.38340  Biso   1.000  O
  O17      1.0000 0.83270  0.16960  0.19140  Biso   1.000  O
  O18      1.0000 0.83270  0.83040  0.69140  Biso   1.000  O
  O19      1.0000 0.33270  0.66960  0.19140  Biso   1.000  O
  O20      1.0000 0.33270  0.33040  0.69140  Biso   1.000  O
  O21      1.0000 0.05170  0.18490  0.11740  Biso   1.000  O
  O22      1.0000 0.05170  0.81510  0.61740  Biso   1.000  O
  O23      1.0000 0.55170  0.68490  0.11740  Biso   1.000  O
  O24      1.0000 0.55170  0.31510  0.61740  Biso   1.000  O
  O25      1.0000 0.95430  0.07480  0.09900  Biso   1.000  O
  O26      1.0000 0.95430  0.92520  0.59900  Biso   1.000  O
  O27      1.0000 0.45430  0.57480  0.09900  Biso   1.000  O
  O28      1.0000 0.45430  0.42520  0.59900  Biso   1.000  O
  O29      1.0000 0.70900  0.10800  0.54260  Biso   1.000  O
  O30      1.0000 0.70900  0.89200  0.04260  Biso   1.000  O
  O31      1.0000 0.20900  0.60800  0.54260  Biso   1.000  O
  O32      1.0000 0.20900  0.39200  0.04260  Biso   1.000  O
  H57      1.0000 0.74530  0.10710  0.65440  Biso   1.000  H
  H58      1.0000 0.74530  0.89290  0.15440  Biso   1.000  H
  H59      1.0000 0.24530  0.60710  0.65440  Biso   1.000  H
  H60      1.0000 0.24530  0.39290  0.15440  Biso   1.000  H
  H61      1.0000 0.75600  0.08880  0.46530  Biso   1.000  H
  H62      1.0000 0.75600  0.91120  0.96530  Biso   1.000  H
  H63      1.0000 0.25600  0.58880  0.46530  Biso   1.000  H
  H64      1.0000 0.25600  0.41120  0.96530  Biso   1.000  H
  O33      1.0000 0.81450  0.01100  0.34070  Biso   1.000  O
  O34      1.0000 0.81450  0.98900  0.84070  Biso   1.000  O
  O35      1.0000 0.31450  0.51100  0.34070  Biso   1.000  O
  O36      1.0000 0.31450  0.48900  0.84070  Biso   1.000  O
  H65      1.0000 0.82650  0.96180  0.37140  Biso   1.000  H
  H66      1.0000 0.82650  0.03820  0.87140  Biso   1.000  H
  H67      1.0000 0.32650  0.46180  0.37140  Biso   1.000  H
  H68      1.0000 0.32650  0.53820  0.87140  Biso   1.000  H
  H69      1.0000 0.89530  0.03990  0.28200  Biso   1.000  H
  H70      1.0000 0.89530  0.96010  0.78200  Biso   1.000  H
  H71      1.0000 0.39530  0.53990  0.28200  Biso   1.000  H
  H72      1.0000 0.39530  0.46010  0.78200  Biso   1.000  H
