data_image0
_cell_length_a       11.46
_cell_length_b       11.74
_cell_length_c       12.13
_cell_angle_alpha    90
_cell_angle_beta     90
_cell_angle_gamma    90

_symmetry_space_group_name_H-M    "P 1"
_symmetry_int_tables_number       1

loop_
  _symmetry_equiv_pos_as_xyz
  'x, y, z'

loop_
  _atom_site_label
  _atom_site_occupancy
  _atom_site_fract_x
  _atom_site_fract_y
  _atom_site_fract_z
  _atom_site_thermal_displace_type
  _atom_site_B_iso_or_equiv
  _atom_site_type_symbol
  Cu1      1.0000 0.00000  0.00000  0.50000  Biso   1.000  Cu
  Cu2      1.0000 0.50000  0.00000  0.00000  Biso   1.000  Cu
  Cu3      1.0000 0.50000  0.50000  0.50000  Biso   1.000  Cu
  Cu4      1.0000 0.00000  0.50000  0.00000  Biso   1.000  Cu
  Cu5      1.0000 0.00000  0.50000  0.50000  Biso   1.000  Cu
  Cu6      1.0000 0.50000  0.50000  0.00000  Biso   1.000  Cu
  Cu7      1.0000 0.50000  0.00000  0.50000  Biso   1.000  Cu
  Cu8      1.0000 0.00000  0.00000  0.00000  Biso   1.000  Cu
  C1       1.0000 0.11530  0.17370  0.60210  Biso   1.000  C
  C2       1.0000 0.38470  0.82630  0.10210  Biso   1.000  C
  C3       1.0000 0.61530  0.32630  0.39790  Biso   1.000  C
  C4       1.0000 0.88470  0.67370  0.89790  Biso   1.000  C
  C5       1.0000 0.88470  0.82630  0.39790  Biso   1.000  C
  C6       1.0000 0.61530  0.17370  0.89790  Biso   1.000  C
  C7       1.0000 0.38470  0.67370  0.60210  Biso   1.000  C
  C8       1.0000 0.11530  0.32630  0.10210  Biso   1.000  C
  C9       1.0000 0.15480  0.18740  0.48260  Biso   1.000  C
  C10      1.0000 0.34520  0.81260  0.98260  Biso   1.000  C
  C11      1.0000 0.65480  0.31260  0.51740  Biso   1.000  C
  C12      1.0000 0.84520  0.68740  0.01740  Biso   1.000  C
  C13      1.0000 0.84520  0.81260  0.51740  Biso   1.000  C
  C14      1.0000 0.65480  0.18740  0.01740  Biso   1.000  C
  C15      1.0000 0.34520  0.68740  0.48260  Biso   1.000  C
  C16      1.0000 0.15480  0.31260  0.98260  Biso   1.000  C
  C17      1.0000 0.13660  0.30810  0.44080  Biso   1.000  C
  C18      1.0000 0.36340  0.69190  0.94080  Biso   1.000  C
  C19      1.0000 0.63660  0.19190  0.55920  Biso   1.000  C
  C20      1.0000 0.86340  0.80810  0.05920  Biso   1.000  C
  C21      1.0000 0.86340  0.69190  0.55920  Biso   1.000  C
  C22      1.0000 0.63660  0.30810  0.05920  Biso   1.000  C
  C23      1.0000 0.36340  0.80810  0.44080  Biso   1.000  C
  C24      1.0000 0.13660  0.19190  0.94080  Biso   1.000  C
  C25      1.0000 0.21420  0.39470  0.50090  Biso   1.000  C
  C26      1.0000 0.28580  0.60530  0.00090  Biso   1.000  C
  C27      1.0000 0.71420  0.10530  0.49910  Biso   1.000  C
  C28      1.0000 0.78580  0.89470  0.99910  Biso   1.000  C
  C29      1.0000 0.78580  0.60530  0.49910  Biso   1.000  C
  C30      1.0000 0.71420  0.39470  0.99910  Biso   1.000  C
  C31      1.0000 0.28580  0.89470  0.50090  Biso   1.000  C
  C32      1.0000 0.21420  0.10530  0.00090  Biso   1.000  C
  H1       1.0000 0.23300  0.16930  0.47560  Biso   1.000  H
  H2       1.0000 0.26700  0.83070  0.97560  Biso   1.000  H
  H3       1.0000 0.73300  0.33070  0.52440  Biso   1.000  H
  H4       1.0000 0.76700  0.66930  0.02440  Biso   1.000  H
  H5       1.0000 0.76700  0.83070  0.52440  Biso   1.000  H
  H6       1.0000 0.73300  0.16930  0.02440  Biso   1.000  H
  H7       1.0000 0.26700  0.66930  0.47560  Biso   1.000  H
  H8       1.0000 0.23300  0.33070  0.97560  Biso   1.000  H
  H9       1.0000 0.13660  0.07190  0.36020  Biso   1.000  H
  H10      1.0000 0.36340  0.92810  0.86020  Biso   1.000  H
  H11      1.0000 0.63660  0.42810  0.63980  Biso   1.000  H
  H12      1.0000 0.86340  0.57190  0.13980  Biso   1.000  H
  H13      1.0000 0.86340  0.92810  0.63980  Biso   1.000  H
  H14      1.0000 0.63660  0.07190  0.13980  Biso   1.000  H
  H15      1.0000 0.36340  0.57190  0.36020  Biso   1.000  H
  H16      1.0000 0.13660  0.42810  0.86020  Biso   1.000  H
  H17      1.0000 0.16210  0.31140  0.36260  Biso   1.000  H
  H18      1.0000 0.33790  0.68860  0.86260  Biso   1.000  H
  H19      1.0000 0.66210  0.18860  0.63740  Biso   1.000  H
  H20      1.0000 0.83790  0.81140  0.13740  Biso   1.000  H
  H21      1.0000 0.83790  0.68860  0.63740  Biso   1.000  H
  H22      1.0000 0.66210  0.31140  0.13740  Biso   1.000  H
  H23      1.0000 0.33790  0.81140  0.36260  Biso   1.000  H
  H24      1.0000 0.16210  0.18860  0.86260  Biso   1.000  H
  H25      1.0000 0.97980  0.31400  0.39030  Biso   1.000  H
  H26      1.0000 0.52020  0.68600  0.89030  Biso   1.000  H
  H27      1.0000 0.47980  0.18600  0.60970  Biso   1.000  H
  H28      1.0000 0.02020  0.81400  0.10970  Biso   1.000  H
  H29      1.0000 0.02020  0.68600  0.60970  Biso   1.000  H
  H30      1.0000 0.47980  0.31400  0.10970  Biso   1.000  H
  H31      1.0000 0.52020  0.81400  0.39030  Biso   1.000  H
  H32      1.0000 0.97980  0.18600  0.89030  Biso   1.000  H
  O1       1.0000 0.04340  0.09300  0.62340  Biso   1.000  O
  O2       1.0000 0.45660  0.90700  0.12340  Biso   1.000  O
  O3       1.0000 0.54340  0.40700  0.37660  Biso   1.000  O
  O4       1.0000 0.95660  0.59300  0.87660  Biso   1.000  O
  O5       1.0000 0.95660  0.90700  0.37660  Biso   1.000  O
  O6       1.0000 0.54340  0.09300  0.87660  Biso   1.000  O
  O7       1.0000 0.45660  0.59300  0.62340  Biso   1.000  O
  O8       1.0000 0.04340  0.40700  0.12340  Biso   1.000  O
  O9       1.0000 0.15460  0.23900  0.67170  Biso   1.000  O
  O10      1.0000 0.34540  0.76100  0.17170  Biso   1.000  O
  O11      1.0000 0.65460  0.26100  0.32830  Biso   1.000  O
  O12      1.0000 0.84540  0.73900  0.82830  Biso   1.000  O
  O13      1.0000 0.84540  0.76100  0.32830  Biso   1.000  O
  O14      1.0000 0.65460  0.23900  0.82830  Biso   1.000  O
  O15      1.0000 0.34540  0.73900  0.67170  Biso   1.000  O
  O16      1.0000 0.15460  0.26100  0.17170  Biso   1.000  O
  O17      1.0000 0.08910  0.11100  0.41420  Biso   1.000  O
  O18      1.0000 0.41090  0.88900  0.91420  Biso   1.000  O
  O19      1.0000 0.58910  0.38900  0.58580  Biso   1.000  O
  O20      1.0000 0.91090  0.61100  0.08580  Biso   1.000  O
  O21      1.0000 0.91090  0.88900  0.58580  Biso   1.000  O
  O22      1.0000 0.58910  0.11100  0.08580  Biso   1.000  O
  O23      1.0000 0.41090  0.61100  0.41420  Biso   1.000  O
  O24      1.0000 0.08910  0.38900  0.91420  Biso   1.000  O
  O25      1.0000 0.01630  0.33940  0.45410  Biso   1.000  O
  O26      1.0000 0.48370  0.66060  0.95410  Biso   1.000  O
  O27      1.0000 0.51630  0.16060  0.54590  Biso   1.000  O
  O28      1.0000 0.98370  0.83940  0.04590  Biso   1.000  O
  O29      1.0000 0.98370  0.66060  0.54590  Biso   1.000  O
  O30      1.0000 0.51630  0.33940  0.04590  Biso   1.000  O
  O31      1.0000 0.48370  0.83940  0.45410  Biso   1.000  O
  O32      1.0000 0.01630  0.16060  0.95410  Biso   1.000  O
  O33      1.0000 0.31880  0.37630  0.50780  Biso   1.000  O
  O34      1.0000 0.18120  0.62370  0.00780  Biso   1.000  O
  O35      1.0000 0.81880  0.12370  0.49220  Biso   1.000  O
  O36      1.0000 0.68120  0.87630  0.99220  Biso   1.000  O
  O37      1.0000 0.68120  0.62370  0.49220  Biso   1.000  O
  O38      1.0000 0.81880  0.37630  0.99220  Biso   1.000  O
  O39      1.0000 0.18120  0.87630  0.50780  Biso   1.000  O
  O40      1.0000 0.31880  0.12370  0.00780  Biso   1.000  O
  O41      1.0000 0.16200  0.48460  0.53760  Biso   1.000  O
  O42      1.0000 0.33800  0.51540  0.03760  Biso   1.000  O
  O43      1.0000 0.66200  0.01540  0.46240  Biso   1.000  O
  O44      1.0000 0.83800  0.98460  0.96240  Biso   1.000  O
  O45      1.0000 0.83800  0.51540  0.46240  Biso   1.000  O
  O46      1.0000 0.66200  0.48460  0.96240  Biso   1.000  O
  O47      1.0000 0.33800  0.98460  0.53760  Biso   1.000  O
  O48      1.0000 0.16200  0.01540  0.03760  Biso   1.000  O
  H33      1.0000 0.95620  0.00730  0.23810  Biso   1.000  H
  H34      1.0000 0.54380  0.99270  0.73810  Biso   1.000  H
  H35      1.0000 0.45620  0.49270  0.76190  Biso   1.000  H
  H36      1.0000 0.04380  0.50730  0.26190  Biso   1.000  H
  H37      1.0000 0.04380  0.99270  0.76190  Biso   1.000  H
  H38      1.0000 0.45620  0.00730  0.26190  Biso   1.000  H
  H39      1.0000 0.54380  0.50730  0.23810  Biso   1.000  H
  H40      1.0000 0.95620  0.49270  0.73810  Biso   1.000  H
  H41      1.0000 0.93650  0.11950  0.21820  Biso   1.000  H
  H42      1.0000 0.56350  0.88050  0.71820  Biso   1.000  H
  H43      1.0000 0.43650  0.38050  0.78180  Biso   1.000  H
  H44      1.0000 0.06350  0.61950  0.28180  Biso   1.000  H
  H45      1.0000 0.06350  0.88050  0.78180  Biso   1.000  H
  H46      1.0000 0.43650  0.11950  0.28180  Biso   1.000  H
  H47      1.0000 0.56350  0.61950  0.21820  Biso   1.000  H
  H48      1.0000 0.93650  0.38050  0.71820  Biso   1.000  H
  O49      1.0000 0.94250  0.05020  0.19090  Biso   1.000  O
  O50      1.0000 0.55750  0.94980  0.69090  Biso   1.000  O
  O51      1.0000 0.44250  0.44980  0.80910  Biso   1.000  O
  O52      1.0000 0.05750  0.55020  0.30910  Biso   1.000  O
  O53      1.0000 0.05750  0.94980  0.80910  Biso   1.000  O
  O54      1.0000 0.44250  0.05020  0.30910  Biso   1.000  O
  O55      1.0000 0.55750  0.55020  0.19090  Biso   1.000  O
  O56      1.0000 0.94250  0.44980  0.69090  Biso   1.000  O
  H49      1.0000 0.19380  0.03370  0.20220  Biso   1.000  H
  H50      1.0000 0.30620  0.96630  0.70220  Biso   1.000  H
  H51      1.0000 0.69380  0.46630  0.79780  Biso   1.000  H
  H52      1.0000 0.80620  0.53370  0.29780  Biso   1.000  H
  H53      1.0000 0.80620  0.96630  0.79780  Biso   1.000  H
  H54      1.0000 0.69380  0.03370  0.29780  Biso   1.000  H
  H55      1.0000 0.30620  0.53370  0.20220  Biso   1.000  H
  H56      1.0000 0.19380  0.46630  0.70220  Biso   1.000  H
  H57      1.0000 0.29050  0.01350  0.29220  Biso   1.000  H
  H58      1.0000 0.20950  0.98650  0.79220  Biso   1.000  H
  H59      1.0000 0.79050  0.48650  0.70780  Biso   1.000  H
  H60      1.0000 0.70950  0.51350  0.20780  Biso   1.000  H
  H61      1.0000 0.70950  0.98650  0.70780  Biso   1.000  H
  H62      1.0000 0.79050  0.01350  0.20780  Biso   1.000  H
  H63      1.0000 0.20950  0.51350  0.29220  Biso   1.000  H
  H64      1.0000 0.29050  0.48650  0.79220  Biso   1.000  H
  O57      1.0000 0.20930  0.00700  0.26860  Biso   1.000  O
  O58      1.0000 0.29070  0.99300  0.76860  Biso   1.000  O
  O59      1.0000 0.70930  0.49300  0.73140  Biso   1.000  O
  O60      1.0000 0.79070  0.50700  0.23140  Biso   1.000  O
  O61      1.0000 0.79070  0.99300  0.73140  Biso   1.000  O
  O62      1.0000 0.70930  0.00700  0.23140  Biso   1.000  O
  O63      1.0000 0.29070  0.50700  0.26860  Biso   1.000  O
  O64      1.0000 0.20930  0.49300  0.76860  Biso   1.000  O
  H65      1.0000 0.32400  0.27310  0.20570  Biso   1.000  H
  H66      1.0000 0.17600  0.72690  0.70570  Biso   1.000  H
  H67      1.0000 0.82400  0.22690  0.79430  Biso   1.000  H
  H68      1.0000 0.67600  0.77310  0.29430  Biso   1.000  H
  H69      1.0000 0.67600  0.72690  0.79430  Biso   1.000  H
  H70      1.0000 0.82400  0.27310  0.29430  Biso   1.000  H
  H71      1.0000 0.17600  0.77310  0.20570  Biso   1.000  H
  H72      1.0000 0.32400  0.22690  0.70570  Biso   1.000  H
  H73      1.0000 0.39880  0.32860  0.25130  Biso   1.000  H
  H74      1.0000 0.10120  0.67140  0.75130  Biso   1.000  H
  H75      1.0000 0.89880  0.17140  0.74870  Biso   1.000  H
  H76      1.0000 0.60120  0.82860  0.24870  Biso   1.000  H
  H77      1.0000 0.60120  0.67140  0.74870  Biso   1.000  H
  H78      1.0000 0.89880  0.32860  0.24870  Biso   1.000  H
  H79      1.0000 0.10120  0.82860  0.25130  Biso   1.000  H
  H80      1.0000 0.39880  0.17140  0.75130  Biso   1.000  H
  O65      1.0000 0.39390  0.26950  0.21980  Biso   1.000  O
  O66      1.0000 0.10610  0.73050  0.71980  Biso   1.000  O
  O67      1.0000 0.89390  0.23050  0.78020  Biso   1.000  O
  O68      1.0000 0.60610  0.76950  0.28020  Biso   1.000  O
  O69      1.0000 0.60610  0.73050  0.78020  Biso   1.000  O
  O70      1.0000 0.89390  0.26950  0.28020  Biso   1.000  O
  O71      1.0000 0.10610  0.76950  0.21980  Biso   1.000  O
  O72      1.0000 0.39390  0.23050  0.71980  Biso   1.000  O
