data_image0
_cell_length_a       19.7429
_cell_length_b       19.7429
_cell_length_c       13.9883
_cell_angle_alpha    90
_cell_angle_beta     90
_cell_angle_gamma    90

_symmetry_space_group_name_H-M    "P 1"
_symmetry_int_tables_number       1

loop_
  _symmetry_equiv_pos_as_xyz
  'x, y, z'

loop_
  _atom_site_label
  _atom_site_occupancy
  _atom_site_fract_x
  _atom_site_fract_y
  _atom_site_fract_z
  _atom_site_thermal_displace_type
  _atom_site_B_iso_or_equiv
  _atom_site_type_symbol
  Mo1      1.0000 0.50000  0.75000  0.12500  Biso   1.000  Mo
  Mo2      1.0000 0.00000  0.75000  0.37500  Biso   1.000  Mo
  Mo3      1.0000 0.00000  0.25000  0.62500  Biso   1.000  Mo
  Mo4      1.0000 0.50000  0.25000  0.87500  Biso   1.000  Mo
  Cu1      1.0000 0.50000  0.50000  0.00000  Biso   1.000  Cu
  Cu2      1.0000 0.25000  0.75000  0.25000  Biso   1.000  Cu
  Cu3      1.0000 0.00000  0.50000  0.50000  Biso   1.000  Cu
  Cu4      1.0000 0.25000  0.25000  0.75000  Biso   1.000  Cu
  Cu5      1.0000 0.00000  0.00000  0.50000  Biso   1.000  Cu
  Cu6      1.0000 0.75000  0.25000  0.75000  Biso   1.000  Cu
  Cu7      1.0000 0.50000  0.00000  0.00000  Biso   1.000  Cu
  Cu8      1.0000 0.75000  0.75000  0.25000  Biso   1.000  Cu
  N1       1.0000 0.60563  0.51041  0.98250  Biso   1.000  N
  N2       1.0000 0.23959  0.85563  0.23250  Biso   1.000  N
  N3       1.0000 0.89437  0.48959  0.48250  Biso   1.000  N
  N4       1.0000 0.26041  0.14437  0.73250  Biso   1.000  N
  N5       1.0000 0.10563  0.01041  0.48250  Biso   1.000  N
  N6       1.0000 0.73959  0.35563  0.73250  Biso   1.000  N
  N7       1.0000 0.39437  0.98959  0.98250  Biso   1.000  N
  N8       1.0000 0.76041  0.64437  0.23250  Biso   1.000  N
  N9       1.0000 0.39437  0.48959  0.01750  Biso   1.000  N
  N10      1.0000 0.26041  0.64437  0.26750  Biso   1.000  N
  N11      1.0000 0.10563  0.51041  0.51750  Biso   1.000  N
  N12      1.0000 0.23959  0.35563  0.76750  Biso   1.000  N
  N13      1.0000 0.89437  0.98959  0.51750  Biso   1.000  N
  N14      1.0000 0.76041  0.14437  0.76750  Biso   1.000  N
  N15      1.0000 0.60563  0.01041  0.01750  Biso   1.000  N
  N16      1.0000 0.73959  0.85563  0.26750  Biso   1.000  N
  N17      1.0000 0.98055  0.54604  0.65890  Biso   1.000  N
  N18      1.0000 0.20396  0.23055  0.90890  Biso   1.000  N
  N19      1.0000 0.51945  0.45396  0.15890  Biso   1.000  N
  N20      1.0000 0.29604  0.76945  0.40890  Biso   1.000  N
  N21      1.0000 0.48055  0.04604  0.15890  Biso   1.000  N
  N22      1.0000 0.70396  0.73055  0.40890  Biso   1.000  N
  N23      1.0000 0.01945  0.95396  0.65890  Biso   1.000  N
  N24      1.0000 0.79604  0.26945  0.90890  Biso   1.000  N
  N25      1.0000 0.01945  0.45396  0.34110  Biso   1.000  N
  N26      1.0000 0.29604  0.26945  0.59110  Biso   1.000  N
  N27      1.0000 0.48055  0.54604  0.84110  Biso   1.000  N
  N28      1.0000 0.20396  0.73055  0.09110  Biso   1.000  N
  N29      1.0000 0.51945  0.95396  0.84110  Biso   1.000  N
  N30      1.0000 0.79604  0.76945  0.09110  Biso   1.000  N
  N31      1.0000 0.98055  0.04604  0.34110  Biso   1.000  N
  N32      1.0000 0.70396  0.23055  0.59110  Biso   1.000  N
  N33      1.0000 0.49476  0.59159  0.05360  Biso   1.000  N
  N34      1.0000 0.15841  0.74476  0.30360  Biso   1.000  N
  N35      1.0000 0.00524  0.40841  0.55360  Biso   1.000  N
  N36      1.0000 0.34159  0.25524  0.80360  Biso   1.000  N
  N37      1.0000 0.99476  0.09159  0.55360  Biso   1.000  N
  N38      1.0000 0.65841  0.24476  0.80360  Biso   1.000  N
  N39      1.0000 0.50524  0.90841  0.05360  Biso   1.000  N
  N40      1.0000 0.84159  0.75524  0.30360  Biso   1.000  N
  N41      1.0000 0.50524  0.40841  0.94640  Biso   1.000  N
  N42      1.0000 0.34159  0.75524  0.19640  Biso   1.000  N
  N43      1.0000 0.99476  0.59159  0.44640  Biso   1.000  N
  N44      1.0000 0.15841  0.24476  0.69640  Biso   1.000  N
  N45      1.0000 0.00524  0.90841  0.44640  Biso   1.000  N
  N46      1.0000 0.84159  0.25524  0.69640  Biso   1.000  N
  N47      1.0000 0.49476  0.09159  0.94640  Biso   1.000  N
  N48      1.0000 0.65841  0.74476  0.19640  Biso   1.000  N
  N49      1.0000 0.40096  0.75606  0.93260  Biso   1.000  N
  N50      1.0000 0.99394  0.65096  0.18260  Biso   1.000  N
  N51      1.0000 0.09904  0.24394  0.43260  Biso   1.000  N
  N52      1.0000 0.50606  0.34904  0.68260  Biso   1.000  N
  N53      1.0000 0.90096  0.25606  0.43260  Biso   1.000  N
  N54      1.0000 0.49394  0.15096  0.68260  Biso   1.000  N
  N55      1.0000 0.59904  0.74394  0.93260  Biso   1.000  N
  N56      1.0000 0.00606  0.84904  0.18260  Biso   1.000  N
  N57      1.0000 0.59904  0.24394  0.06740  Biso   1.000  N
  N58      1.0000 0.50606  0.84904  0.31740  Biso   1.000  N
  N59      1.0000 0.90096  0.75606  0.56740  Biso   1.000  N
  N60      1.0000 0.99394  0.15096  0.81740  Biso   1.000  N
  N61      1.0000 0.09904  0.74394  0.56740  Biso   1.000  N
  N62      1.0000 0.00606  0.34904  0.81740  Biso   1.000  N
  N63      1.0000 0.40096  0.25606  0.06740  Biso   1.000  N
  N64      1.0000 0.49394  0.65096  0.31740  Biso   1.000  N
  C1       1.0000 0.64810  0.45730  0.98240  Biso   1.000  C
  C2       1.0000 0.29270  0.89810  0.23240  Biso   1.000  C
  C3       1.0000 0.85190  0.54270  0.48240  Biso   1.000  C
  C4       1.0000 0.20730  0.10190  0.73240  Biso   1.000  C
  C5       1.0000 0.14810  0.95730  0.48240  Biso   1.000  C
  C6       1.0000 0.79270  0.39810  0.73240  Biso   1.000  C
  C7       1.0000 0.35190  0.04270  0.98240  Biso   1.000  C
  C8       1.0000 0.70730  0.60190  0.23240  Biso   1.000  C
  C9       1.0000 0.35190  0.54270  0.01760  Biso   1.000  C
  C10      1.0000 0.20730  0.60190  0.26760  Biso   1.000  C
  C11      1.0000 0.14810  0.45730  0.51760  Biso   1.000  C
  C12      1.0000 0.29270  0.39810  0.76760  Biso   1.000  C
  C13      1.0000 0.85190  0.04270  0.51760  Biso   1.000  C
  C14      1.0000 0.70730  0.10190  0.76760  Biso   1.000  C
  C15      1.0000 0.64810  0.95730  0.01760  Biso   1.000  C
  C16      1.0000 0.79270  0.89810  0.26760  Biso   1.000  C
  H1       1.0000 0.63000  0.41410  0.98890  Biso   1.000  H
  H2       1.0000 0.33590  0.88000  0.23890  Biso   1.000  H
  H3       1.0000 0.87000  0.58590  0.48890  Biso   1.000  H
  H4       1.0000 0.16410  0.12000  0.73890  Biso   1.000  H
  H5       1.0000 0.13000  0.91410  0.48890  Biso   1.000  H
  H6       1.0000 0.83590  0.38000  0.73890  Biso   1.000  H
  H7       1.0000 0.37000  0.08590  0.98890  Biso   1.000  H
  H8       1.0000 0.66410  0.62000  0.23890  Biso   1.000  H
  H9       1.0000 0.37000  0.58590  0.01110  Biso   1.000  H
  H10      1.0000 0.16410  0.62000  0.26110  Biso   1.000  H
  H11      1.0000 0.13000  0.41410  0.51110  Biso   1.000  H
  H12      1.0000 0.33590  0.38000  0.76110  Biso   1.000  H
  H13      1.0000 0.87000  0.08590  0.51110  Biso   1.000  H
  H14      1.0000 0.66410  0.12000  0.76110  Biso   1.000  H
  H15      1.0000 0.63000  0.91410  0.01110  Biso   1.000  H
  H16      1.0000 0.83590  0.88000  0.26110  Biso   1.000  H
  C17      1.0000 0.71730  0.46390  0.97310  Biso   1.000  C
  C18      1.0000 0.28610  0.96730  0.22310  Biso   1.000  C
  C19      1.0000 0.78270  0.53610  0.47310  Biso   1.000  C
  C20      1.0000 0.21390  0.03270  0.72310  Biso   1.000  C
  C21      1.0000 0.21730  0.96390  0.47310  Biso   1.000  C
  C22      1.0000 0.78610  0.46730  0.72310  Biso   1.000  C
  C23      1.0000 0.28270  0.03610  0.97310  Biso   1.000  C
  C24      1.0000 0.71390  0.53270  0.22310  Biso   1.000  C
  C25      1.0000 0.28270  0.53610  0.02690  Biso   1.000  C
  C26      1.0000 0.21390  0.53270  0.27690  Biso   1.000  C
  C27      1.0000 0.21730  0.46390  0.52690  Biso   1.000  C
  C28      1.0000 0.28610  0.46730  0.77690  Biso   1.000  C
  C29      1.0000 0.78270  0.03610  0.52690  Biso   1.000  C
  C30      1.0000 0.71390  0.03270  0.77690  Biso   1.000  C
  C31      1.0000 0.71730  0.96390  0.02690  Biso   1.000  C
  C32      1.0000 0.78610  0.96730  0.27690  Biso   1.000  C
  H17      1.0000 0.74450  0.42540  0.97160  Biso   1.000  H
  H18      1.0000 0.32460  0.99450  0.22160  Biso   1.000  H
  H19      1.0000 0.75550  0.57460  0.47160  Biso   1.000  H
  H20      1.0000 0.17540  0.00550  0.72160  Biso   1.000  H
  H21      1.0000 0.24450  0.92540  0.47160  Biso   1.000  H
  H22      1.0000 0.82460  0.49450  0.72160  Biso   1.000  H
  H23      1.0000 0.25550  0.07460  0.97160  Biso   1.000  H
  H24      1.0000 0.67540  0.50550  0.22160  Biso   1.000  H
  H25      1.0000 0.25550  0.57460  0.02840  Biso   1.000  H
  H26      1.0000 0.17540  0.50550  0.27840  Biso   1.000  H
  H27      1.0000 0.24450  0.42540  0.52840  Biso   1.000  H
  H28      1.0000 0.32460  0.49450  0.77840  Biso   1.000  H
  H29      1.0000 0.75550  0.07460  0.52840  Biso   1.000  H
  H30      1.0000 0.67540  0.00550  0.77840  Biso   1.000  H
  H31      1.0000 0.74450  0.92540  0.02840  Biso   1.000  H
  H32      1.0000 0.82460  0.99450  0.27840  Biso   1.000  H
  C33      1.0000 0.74670  0.52790  0.96610  Biso   1.000  C
  C34      1.0000 0.22210  0.99670  0.21610  Biso   1.000  C
  C35      1.0000 0.75330  0.47210  0.46610  Biso   1.000  C
  C36      1.0000 0.27790  0.00330  0.71610  Biso   1.000  C
  C37      1.0000 0.24670  0.02790  0.46610  Biso   1.000  C
  C38      1.0000 0.72210  0.49670  0.71610  Biso   1.000  C
  C39      1.0000 0.25330  0.97210  0.96610  Biso   1.000  C
  C40      1.0000 0.77790  0.50330  0.21610  Biso   1.000  C
  C41      1.0000 0.25330  0.47210  0.03390  Biso   1.000  C
  C42      1.0000 0.27790  0.50330  0.28390  Biso   1.000  C
  C43      1.0000 0.24670  0.52790  0.53390  Biso   1.000  C
  C44      1.0000 0.22210  0.49670  0.78390  Biso   1.000  C
  C45      1.0000 0.75330  0.97210  0.53390  Biso   1.000  C
  C46      1.0000 0.77790  0.00330  0.78390  Biso   1.000  C
  C47      1.0000 0.74670  0.02790  0.03390  Biso   1.000  C
  C48      1.0000 0.72210  0.99670  0.28390  Biso   1.000  C
  C49      1.0000 0.70290  0.58200  0.96670  Biso   1.000  C
  C50      1.0000 0.16800  0.95290  0.21670  Biso   1.000  C
  C51      1.0000 0.79710  0.41800  0.46670  Biso   1.000  C
  C52      1.0000 0.33200  0.04710  0.71670  Biso   1.000  C
  C53      1.0000 0.20290  0.08200  0.46670  Biso   1.000  C
  C54      1.0000 0.66800  0.45290  0.71670  Biso   1.000  C
  C55      1.0000 0.29710  0.91800  0.96670  Biso   1.000  C
  C56      1.0000 0.83200  0.54710  0.21670  Biso   1.000  C
  C57      1.0000 0.29710  0.41800  0.03330  Biso   1.000  C
  C58      1.0000 0.33200  0.54710  0.28330  Biso   1.000  C
  C59      1.0000 0.20290  0.58200  0.53330  Biso   1.000  C
  C60      1.0000 0.16800  0.45290  0.78330  Biso   1.000  C
  C61      1.0000 0.79710  0.91800  0.53330  Biso   1.000  C
  C62      1.0000 0.83200  0.04710  0.78330  Biso   1.000  C
  C63      1.0000 0.70290  0.08200  0.03330  Biso   1.000  C
  C64      1.0000 0.66800  0.95290  0.28330  Biso   1.000  C
  H33      1.0000 0.71990  0.62580  0.96240  Biso   1.000  H
  H34      1.0000 0.12420  0.96990  0.21240  Biso   1.000  H
  H35      1.0000 0.78010  0.37420  0.46240  Biso   1.000  H
  H36      1.0000 0.37580  0.03010  0.71240  Biso   1.000  H
  H37      1.0000 0.21990  0.12580  0.46240  Biso   1.000  H
  H38      1.0000 0.62420  0.46990  0.71240  Biso   1.000  H
  H39      1.0000 0.28010  0.87420  0.96240  Biso   1.000  H
  H40      1.0000 0.87580  0.53010  0.21240  Biso   1.000  H
  H41      1.0000 0.28010  0.37420  0.03760  Biso   1.000  H
  H42      1.0000 0.37580  0.53010  0.28760  Biso   1.000  H
  H43      1.0000 0.21990  0.62580  0.53760  Biso   1.000  H
  H44      1.0000 0.12420  0.46990  0.78760  Biso   1.000  H
  H45      1.0000 0.78010  0.87420  0.53760  Biso   1.000  H
  H46      1.0000 0.87580  0.03010  0.78760  Biso   1.000  H
  H47      1.0000 0.71990  0.12580  0.03760  Biso   1.000  H
  H48      1.0000 0.62420  0.96990  0.28760  Biso   1.000  H
  C65      1.0000 0.63390  0.57177  0.97380  Biso   1.000  C
  C66      1.0000 0.17823  0.88390  0.22380  Biso   1.000  C
  C67      1.0000 0.86610  0.42823  0.47380  Biso   1.000  C
  C68      1.0000 0.32177  0.11610  0.72380  Biso   1.000  C
  C69      1.0000 0.13390  0.07177  0.47380  Biso   1.000  C
  C70      1.0000 0.67823  0.38390  0.72380  Biso   1.000  C
  C71      1.0000 0.36610  0.92823  0.97380  Biso   1.000  C
  C72      1.0000 0.82177  0.61610  0.22380  Biso   1.000  C
  C73      1.0000 0.36610  0.42823  0.02620  Biso   1.000  C
  C74      1.0000 0.32177  0.61610  0.27620  Biso   1.000  C
  C75      1.0000 0.13390  0.57177  0.52620  Biso   1.000  C
  C76      1.0000 0.17823  0.38390  0.77620  Biso   1.000  C
  C77      1.0000 0.86610  0.92823  0.52620  Biso   1.000  C
  C78      1.0000 0.82177  0.11610  0.77620  Biso   1.000  C
  C79      1.0000 0.63390  0.07177  0.02620  Biso   1.000  C
  C80      1.0000 0.67823  0.88390  0.27620  Biso   1.000  C
  H49      1.0000 0.60560  0.60940  0.97240  Biso   1.000  H
  H50      1.0000 0.14060  0.85560  0.22240  Biso   1.000  H
  H51      1.0000 0.89440  0.39060  0.47240  Biso   1.000  H
  H52      1.0000 0.35940  0.14440  0.72240  Biso   1.000  H
  H53      1.0000 0.10560  0.10940  0.47240  Biso   1.000  H
  H54      1.0000 0.64060  0.35560  0.72240  Biso   1.000  H
  H55      1.0000 0.39440  0.89060  0.97240  Biso   1.000  H
  H56      1.0000 0.85940  0.64440  0.22240  Biso   1.000  H
  H57      1.0000 0.39440  0.39060  0.02760  Biso   1.000  H
  H58      1.0000 0.35940  0.64440  0.27760  Biso   1.000  H
  H59      1.0000 0.10560  0.60940  0.52760  Biso   1.000  H
  H60      1.0000 0.14060  0.35560  0.77760  Biso   1.000  H
  H61      1.0000 0.89440  0.89060  0.52760  Biso   1.000  H
  H62      1.0000 0.85940  0.14440  0.77760  Biso   1.000  H
  H63      1.0000 0.60560  0.10940  0.02760  Biso   1.000  H
  H64      1.0000 0.64060  0.85560  0.27760  Biso   1.000  H
  C81      1.0000 0.82280  0.53450  0.95850  Biso   1.000  C
  C82      1.0000 0.21550  0.07280  0.20850  Biso   1.000  C
  C83      1.0000 0.67720  0.46550  0.45850  Biso   1.000  C
  C84      1.0000 0.28450  0.92720  0.70850  Biso   1.000  C
  C85      1.0000 0.32280  0.03450  0.45850  Biso   1.000  C
  C86      1.0000 0.71550  0.57280  0.70850  Biso   1.000  C
  C87      1.0000 0.17720  0.96550  0.95850  Biso   1.000  C
  C88      1.0000 0.78450  0.42720  0.20850  Biso   1.000  C
  C89      1.0000 0.17720  0.46550  0.04150  Biso   1.000  C
  C90      1.0000 0.28450  0.42720  0.29150  Biso   1.000  C
  C91      1.0000 0.32280  0.53450  0.54150  Biso   1.000  C
  C92      1.0000 0.21550  0.57280  0.79150  Biso   1.000  C
  C93      1.0000 0.67720  0.96550  0.54150  Biso   1.000  C
  C94      1.0000 0.78450  0.92720  0.79150  Biso   1.000  C
  C95      1.0000 0.82280  0.03450  0.04150  Biso   1.000  C
  C96      1.0000 0.71550  0.07280  0.29150  Biso   1.000  C
  H65      1.0000 0.83740  0.51240  0.90000  Biso   1.000  H
  H66      1.0000 0.23760  0.08740  0.15000  Biso   1.000  H
  H67      1.0000 0.66260  0.48760  0.40000  Biso   1.000  H
  H68      1.0000 0.26240  0.91260  0.65000  Biso   1.000  H
  H69      1.0000 0.33740  0.01240  0.40000  Biso   1.000  H
  H70      1.0000 0.73760  0.58740  0.65000  Biso   1.000  H
  H71      1.0000 0.16260  0.98760  0.90000  Biso   1.000  H
  H72      1.0000 0.76240  0.41260  0.15000  Biso   1.000  H
  H73      1.0000 0.16260  0.48760  0.10000  Biso   1.000  H
  H74      1.0000 0.26240  0.41260  0.35000  Biso   1.000  H
  H75      1.0000 0.33740  0.51240  0.60000  Biso   1.000  H
  H76      1.0000 0.23760  0.58740  0.85000  Biso   1.000  H
  H77      1.0000 0.66260  0.98760  0.60000  Biso   1.000  H
  H78      1.0000 0.76240  0.91260  0.85000  Biso   1.000  H
  H79      1.0000 0.83740  0.01240  0.10000  Biso   1.000  H
  H80      1.0000 0.73760  0.08740  0.35000  Biso   1.000  H
  H81      1.0000 0.84320  0.51020  0.01150  Biso   1.000  H
  H82      1.0000 0.23980  0.09320  0.26150  Biso   1.000  H
  H83      1.0000 0.65680  0.48980  0.51150  Biso   1.000  H
  H84      1.0000 0.26020  0.90680  0.76150  Biso   1.000  H
  H85      1.0000 0.34320  0.01020  0.51150  Biso   1.000  H
  H86      1.0000 0.73980  0.59320  0.76150  Biso   1.000  H
  H87      1.0000 0.15680  0.98980  0.01150  Biso   1.000  H
  H88      1.0000 0.76020  0.40680  0.26150  Biso   1.000  H
  H89      1.0000 0.15680  0.48980  0.98850  Biso   1.000  H
  H90      1.0000 0.26020  0.40680  0.23850  Biso   1.000  H
  H91      1.0000 0.34320  0.51020  0.48850  Biso   1.000  H
  H92      1.0000 0.23980  0.59320  0.73850  Biso   1.000  H
  H93      1.0000 0.65680  0.98980  0.48850  Biso   1.000  H
  H94      1.0000 0.76020  0.90680  0.73850  Biso   1.000  H
  H95      1.0000 0.84320  0.01020  0.98850  Biso   1.000  H
  H96      1.0000 0.73980  0.09320  0.23850  Biso   1.000  H
  C97      1.0000 0.85010  0.60620  0.95840  Biso   1.000  C
  C98      1.0000 0.14380  0.10010  0.20840  Biso   1.000  C
  C99      1.0000 0.64990  0.39380  0.45840  Biso   1.000  C
  C100     1.0000 0.35620  0.89990  0.70840  Biso   1.000  C
  C101     1.0000 0.35010  0.10620  0.45840  Biso   1.000  C
  C102     1.0000 0.64380  0.60010  0.70840  Biso   1.000  C
  C103     1.0000 0.14990  0.89380  0.95840  Biso   1.000  C
  C104     1.0000 0.85620  0.39990  0.20840  Biso   1.000  C
  C105     1.0000 0.14990  0.39380  0.04160  Biso   1.000  C
  C106     1.0000 0.35620  0.39990  0.29160  Biso   1.000  C
  C107     1.0000 0.35010  0.60620  0.54160  Biso   1.000  C
  C108     1.0000 0.14380  0.60010  0.79160  Biso   1.000  C
  C109     1.0000 0.64990  0.89380  0.54160  Biso   1.000  C
  C110     1.0000 0.85620  0.89990  0.79160  Biso   1.000  C
  C111     1.0000 0.85010  0.10620  0.04160  Biso   1.000  C
  C112     1.0000 0.64380  0.10010  0.29160  Biso   1.000  C
  H97      1.0000 0.83820  0.62780  0.01840  Biso   1.000  H
  H98      1.0000 0.12220  0.08820  0.26840  Biso   1.000  H
  H99      1.0000 0.66180  0.37220  0.51840  Biso   1.000  H
  H100     1.0000 0.37780  0.91180  0.76840  Biso   1.000  H
  H101     1.0000 0.33820  0.12780  0.51840  Biso   1.000  H
  H102     1.0000 0.62220  0.58820  0.76840  Biso   1.000  H
  H103     1.0000 0.16180  0.87220  0.01840  Biso   1.000  H
  H104     1.0000 0.87780  0.41180  0.26840  Biso   1.000  H
  H105     1.0000 0.16180  0.37220  0.98160  Biso   1.000  H
  H106     1.0000 0.37780  0.41180  0.23160  Biso   1.000  H
  H107     1.0000 0.33820  0.62780  0.48160  Biso   1.000  H
  H108     1.0000 0.12220  0.58820  0.73160  Biso   1.000  H
  H109     1.0000 0.66180  0.87220  0.48160  Biso   1.000  H
  H110     1.0000 0.87780  0.91180  0.73160  Biso   1.000  H
  H111     1.0000 0.83820  0.12780  0.98160  Biso   1.000  H
  H112     1.0000 0.62220  0.08820  0.23160  Biso   1.000  H
  H113     1.0000 0.82850  0.63150  0.90740  Biso   1.000  H
  H114     1.0000 0.11850  0.07850  0.15740  Biso   1.000  H
  H115     1.0000 0.67150  0.36850  0.40740  Biso   1.000  H
  H116     1.0000 0.38150  0.92150  0.65740  Biso   1.000  H
  H117     1.0000 0.32850  0.13150  0.40740  Biso   1.000  H
  H118     1.0000 0.61850  0.57850  0.65740  Biso   1.000  H
  H119     1.0000 0.17150  0.86850  0.90740  Biso   1.000  H
  H120     1.0000 0.88150  0.42150  0.15740  Biso   1.000  H
  H121     1.0000 0.17150  0.36850  0.09260  Biso   1.000  H
  H122     1.0000 0.38150  0.42150  0.34260  Biso   1.000  H
  H123     1.0000 0.32850  0.63150  0.59260  Biso   1.000  H
  H124     1.0000 0.11850  0.57850  0.84260  Biso   1.000  H
  H125     1.0000 0.67150  0.86850  0.59260  Biso   1.000  H
  H126     1.0000 0.88150  0.92150  0.84260  Biso   1.000  H
  H127     1.0000 0.82850  0.13150  0.09260  Biso   1.000  H
  H128     1.0000 0.61850  0.07850  0.34260  Biso   1.000  H
  C113     1.0000 0.92710  0.60990  0.94530  Biso   1.000  C
  C114     1.0000 0.14010  0.17710  0.19530  Biso   1.000  C
  C115     1.0000 0.57290  0.39010  0.44530  Biso   1.000  C
  C116     1.0000 0.35990  0.82290  0.69530  Biso   1.000  C
  C117     1.0000 0.42710  0.10990  0.44530  Biso   1.000  C
  C118     1.0000 0.64010  0.67710  0.69530  Biso   1.000  C
  C119     1.0000 0.07290  0.89010  0.94530  Biso   1.000  C
  C120     1.0000 0.85990  0.32290  0.19530  Biso   1.000  C
  C121     1.0000 0.07290  0.39010  0.05470  Biso   1.000  C
  C122     1.0000 0.35990  0.32290  0.30470  Biso   1.000  C
  C123     1.0000 0.42710  0.60990  0.55470  Biso   1.000  C
  C124     1.0000 0.14010  0.67710  0.80470  Biso   1.000  C
  C125     1.0000 0.57290  0.89010  0.55470  Biso   1.000  C
  C126     1.0000 0.85990  0.82290  0.80470  Biso   1.000  C
  C127     1.0000 0.92710  0.10990  0.05470  Biso   1.000  C
  C128     1.0000 0.64010  0.17710  0.30470  Biso   1.000  C
  H129     1.0000 0.94220  0.65600  0.95620  Biso   1.000  H
  H130     1.0000 0.09400  0.19220  0.20620  Biso   1.000  H
  H131     1.0000 0.55780  0.34400  0.45620  Biso   1.000  H
  H132     1.0000 0.40600  0.80780  0.70620  Biso   1.000  H
  H133     1.0000 0.44220  0.15600  0.45620  Biso   1.000  H
  H134     1.0000 0.59400  0.69220  0.70620  Biso   1.000  H
  H135     1.0000 0.05780  0.84400  0.95620  Biso   1.000  H
  H136     1.0000 0.90600  0.30780  0.20620  Biso   1.000  H
  H137     1.0000 0.05780  0.34400  0.04380  Biso   1.000  H
  H138     1.0000 0.40600  0.30780  0.29380  Biso   1.000  H
  H139     1.0000 0.44220  0.65600  0.54380  Biso   1.000  H
  H140     1.0000 0.09400  0.69220  0.79380  Biso   1.000  H
  H141     1.0000 0.55780  0.84400  0.54380  Biso   1.000  H
  H142     1.0000 0.90600  0.80780  0.79380  Biso   1.000  H
  H143     1.0000 0.94220  0.15600  0.04380  Biso   1.000  H
  H144     1.0000 0.59400  0.19220  0.29380  Biso   1.000  H
  H145     1.0000 0.94890  0.58100  0.99220  Biso   1.000  H
  H146     1.0000 0.16900  0.19890  0.24220  Biso   1.000  H
  H147     1.0000 0.55110  0.41900  0.49220  Biso   1.000  H
  H148     1.0000 0.33100  0.80110  0.74220  Biso   1.000  H
  H149     1.0000 0.44890  0.08100  0.49220  Biso   1.000  H
  H150     1.0000 0.66900  0.69890  0.74220  Biso   1.000  H
  H151     1.0000 0.05110  0.91900  0.99220  Biso   1.000  H
  H152     1.0000 0.83100  0.30110  0.24220  Biso   1.000  H
  H153     1.0000 0.05110  0.41900  0.00780  Biso   1.000  H
  H154     1.0000 0.33100  0.30110  0.25780  Biso   1.000  H
  H155     1.0000 0.44890  0.58100  0.50780  Biso   1.000  H
  H156     1.0000 0.16900  0.69890  0.75780  Biso   1.000  H
  H157     1.0000 0.55110  0.91900  0.50780  Biso   1.000  H
  H158     1.0000 0.83100  0.80110  0.75780  Biso   1.000  H
  H159     1.0000 0.94890  0.08100  0.00780  Biso   1.000  H
  H160     1.0000 0.66900  0.19890  0.25780  Biso   1.000  H
  C129     1.0000 0.94802  0.58800  0.84650  Biso   1.000  C
  C130     1.0000 0.16200  0.19802  0.09650  Biso   1.000  C
  C131     1.0000 0.55198  0.41200  0.34650  Biso   1.000  C
  C132     1.0000 0.33800  0.80198  0.59650  Biso   1.000  C
  C133     1.0000 0.44802  0.08800  0.34650  Biso   1.000  C
  C134     1.0000 0.66200  0.69802  0.59650  Biso   1.000  C
  C135     1.0000 0.05198  0.91200  0.84650  Biso   1.000  C
  C136     1.0000 0.83800  0.30198  0.09650  Biso   1.000  C
  C137     1.0000 0.05198  0.41200  0.15350  Biso   1.000  C
  C138     1.0000 0.33800  0.30198  0.40350  Biso   1.000  C
  C139     1.0000 0.44802  0.58800  0.65350  Biso   1.000  C
  C140     1.0000 0.16200  0.69802  0.90350  Biso   1.000  C
  C141     1.0000 0.55198  0.91200  0.65350  Biso   1.000  C
  C142     1.0000 0.83800  0.80198  0.90350  Biso   1.000  C
  C143     1.0000 0.94802  0.08800  0.15350  Biso   1.000  C
  C144     1.0000 0.66200  0.19802  0.40350  Biso   1.000  C
  C145     1.0000 0.96800  0.52230  0.82610  Biso   1.000  C
  C146     1.0000 0.22770  0.21800  0.07610  Biso   1.000  C
  C147     1.0000 0.53200  0.47770  0.32610  Biso   1.000  C
  C148     1.0000 0.27230  0.78200  0.57610  Biso   1.000  C
  C149     1.0000 0.46800  0.02230  0.32610  Biso   1.000  C
  C150     1.0000 0.72770  0.71800  0.57610  Biso   1.000  C
  C151     1.0000 0.03200  0.97770  0.82610  Biso   1.000  C
  C152     1.0000 0.77230  0.28200  0.07610  Biso   1.000  C
  C153     1.0000 0.03200  0.47770  0.17390  Biso   1.000  C
  C154     1.0000 0.27230  0.28200  0.42390  Biso   1.000  C
  C155     1.0000 0.46800  0.52230  0.67390  Biso   1.000  C
  C156     1.0000 0.22770  0.71800  0.92390  Biso   1.000  C
  C157     1.0000 0.53200  0.97770  0.67390  Biso   1.000  C
  C158     1.0000 0.77230  0.78200  0.92390  Biso   1.000  C
  C159     1.0000 0.96800  0.02230  0.17390  Biso   1.000  C
  C160     1.0000 0.72770  0.21800  0.42390  Biso   1.000  C
  H161     1.0000 0.97110  0.49060  0.87520  Biso   1.000  H
  H162     1.0000 0.25940  0.22110  0.12520  Biso   1.000  H
  H163     1.0000 0.52890  0.50940  0.37520  Biso   1.000  H
  H164     1.0000 0.24060  0.77890  0.62520  Biso   1.000  H
  H165     1.0000 0.47110  0.99060  0.37520  Biso   1.000  H
  H166     1.0000 0.75940  0.72110  0.62520  Biso   1.000  H
  H167     1.0000 0.02890  0.00940  0.87520  Biso   1.000  H
  H168     1.0000 0.74060  0.27890  0.12520  Biso   1.000  H
  H169     1.0000 0.02890  0.50940  0.12480  Biso   1.000  H
  H170     1.0000 0.24060  0.27890  0.37480  Biso   1.000  H
  H171     1.0000 0.47110  0.49060  0.62480  Biso   1.000  H
  H172     1.0000 0.25940  0.72110  0.87480  Biso   1.000  H
  H173     1.0000 0.52890  0.00940  0.62480  Biso   1.000  H
  H174     1.0000 0.74060  0.77890  0.87480  Biso   1.000  H
  H175     1.0000 0.97110  0.99060  0.12480  Biso   1.000  H
  H176     1.0000 0.75940  0.22110  0.37480  Biso   1.000  H
  C161     1.0000 0.98340  0.50330  0.73390  Biso   1.000  C
  C162     1.0000 0.24670  0.23340  0.98390  Biso   1.000  C
  C163     1.0000 0.51660  0.49670  0.23390  Biso   1.000  C
  C164     1.0000 0.25330  0.76660  0.48390  Biso   1.000  C
  C165     1.0000 0.48340  0.00330  0.23390  Biso   1.000  C
  C166     1.0000 0.74670  0.73340  0.48390  Biso   1.000  C
  C167     1.0000 0.01660  0.99670  0.73390  Biso   1.000  C
  C168     1.0000 0.75330  0.26660  0.98390  Biso   1.000  C
  C169     1.0000 0.01660  0.49670  0.26610  Biso   1.000  C
  C170     1.0000 0.25330  0.26660  0.51610  Biso   1.000  C
  C171     1.0000 0.48340  0.50330  0.76610  Biso   1.000  C
  C172     1.0000 0.24670  0.73340  0.01610  Biso   1.000  C
  C173     1.0000 0.51660  0.99670  0.76610  Biso   1.000  C
  C174     1.0000 0.75330  0.76660  0.01610  Biso   1.000  C
  C175     1.0000 0.98340  0.00330  0.26610  Biso   1.000  C
  C176     1.0000 0.74670  0.23340  0.51610  Biso   1.000  C
  H177     1.0000 0.99640  0.45880  0.72290  Biso   1.000  H
  H178     1.0000 0.29120  0.24640  0.97290  Biso   1.000  H
  H179     1.0000 0.50360  0.54120  0.22290  Biso   1.000  H
  H180     1.0000 0.20880  0.75360  0.47290  Biso   1.000  H
  H181     1.0000 0.49640  0.95880  0.22290  Biso   1.000  H
  H182     1.0000 0.79120  0.74640  0.47290  Biso   1.000  H
  H183     1.0000 0.00360  0.04120  0.72290  Biso   1.000  H
  H184     1.0000 0.70880  0.25360  0.97290  Biso   1.000  H
  H185     1.0000 0.00360  0.54120  0.27710  Biso   1.000  H
  H186     1.0000 0.20880  0.25360  0.52710  Biso   1.000  H
  H187     1.0000 0.49640  0.45880  0.77710  Biso   1.000  H
  H188     1.0000 0.29120  0.74640  0.02710  Biso   1.000  H
  H189     1.0000 0.50360  0.04120  0.77710  Biso   1.000  H
  H190     1.0000 0.70880  0.75360  0.02710  Biso   1.000  H
  H191     1.0000 0.99640  0.95880  0.27710  Biso   1.000  H
  H192     1.0000 0.79120  0.24640  0.52710  Biso   1.000  H
  C177     1.0000 0.96230  0.60990  0.67900  Biso   1.000  C
  C178     1.0000 0.14010  0.21230  0.92900  Biso   1.000  C
  C179     1.0000 0.53770  0.39010  0.17900  Biso   1.000  C
  C180     1.0000 0.35990  0.78770  0.42900  Biso   1.000  C
  C181     1.0000 0.46230  0.10990  0.17900  Biso   1.000  C
  C182     1.0000 0.64010  0.71230  0.42900  Biso   1.000  C
  C183     1.0000 0.03770  0.89010  0.67900  Biso   1.000  C
  C184     1.0000 0.85990  0.28770  0.92900  Biso   1.000  C
  C185     1.0000 0.03770  0.39010  0.32100  Biso   1.000  C
  C186     1.0000 0.35990  0.28770  0.57100  Biso   1.000  C
  C187     1.0000 0.46230  0.60990  0.82100  Biso   1.000  C
  C188     1.0000 0.14010  0.71230  0.07100  Biso   1.000  C
  C189     1.0000 0.53770  0.89010  0.82100  Biso   1.000  C
  C190     1.0000 0.85990  0.78770  0.07100  Biso   1.000  C
  C191     1.0000 0.96230  0.10990  0.32100  Biso   1.000  C
  C192     1.0000 0.64010  0.21230  0.57100  Biso   1.000  C
  H193     1.0000 0.96080  0.64100  0.62910  Biso   1.000  H
  H194     1.0000 0.10900  0.21080  0.87910  Biso   1.000  H
  H195     1.0000 0.53920  0.35900  0.12910  Biso   1.000  H
  H196     1.0000 0.39100  0.78920  0.37910  Biso   1.000  H
  H197     1.0000 0.46080  0.14100  0.12910  Biso   1.000  H
  H198     1.0000 0.60900  0.71080  0.37910  Biso   1.000  H
  H199     1.0000 0.03920  0.85900  0.62910  Biso   1.000  H
  H200     1.0000 0.89100  0.28920  0.87910  Biso   1.000  H
  H201     1.0000 0.03920  0.35900  0.37090  Biso   1.000  H
  H202     1.0000 0.39100  0.28920  0.62090  Biso   1.000  H
  H203     1.0000 0.46080  0.64100  0.87090  Biso   1.000  H
  H204     1.0000 0.10900  0.71080  0.12090  Biso   1.000  H
  H205     1.0000 0.53920  0.85900  0.87090  Biso   1.000  H
  H206     1.0000 0.89100  0.78920  0.12090  Biso   1.000  H
  H207     1.0000 0.96080  0.14100  0.37090  Biso   1.000  H
  H208     1.0000 0.60900  0.21080  0.62090  Biso   1.000  H
  C193     1.0000 0.94560  0.63200  0.76980  Biso   1.000  C
  C194     1.0000 0.11800  0.19560  0.01980  Biso   1.000  C
  C195     1.0000 0.55440  0.36800  0.26980  Biso   1.000  C
  C196     1.0000 0.38200  0.80440  0.51980  Biso   1.000  C
  C197     1.0000 0.44560  0.13200  0.26980  Biso   1.000  C
  C198     1.0000 0.61800  0.69560  0.51980  Biso   1.000  C
  C199     1.0000 0.05440  0.86800  0.76980  Biso   1.000  C
  C200     1.0000 0.88200  0.30440  0.01980  Biso   1.000  C
  C201     1.0000 0.05440  0.36800  0.23020  Biso   1.000  C
  C202     1.0000 0.38200  0.30440  0.48020  Biso   1.000  C
  C203     1.0000 0.44560  0.63200  0.73020  Biso   1.000  C
  C204     1.0000 0.11800  0.69560  0.98020  Biso   1.000  C
  C205     1.0000 0.55440  0.86800  0.73020  Biso   1.000  C
  C206     1.0000 0.88200  0.80440  0.98020  Biso   1.000  C
  C207     1.0000 0.94560  0.13200  0.23020  Biso   1.000  C
  C208     1.0000 0.61800  0.19560  0.48020  Biso   1.000  C
  H209     1.0000 0.93260  0.67680  0.77930  Biso   1.000  H
  H210     1.0000 0.07320  0.18260  0.02930  Biso   1.000  H
  H211     1.0000 0.56740  0.32320  0.27930  Biso   1.000  H
  H212     1.0000 0.42680  0.81740  0.52930  Biso   1.000  H
  H213     1.0000 0.43260  0.17680  0.27930  Biso   1.000  H
  H214     1.0000 0.57320  0.68260  0.52930  Biso   1.000  H
  H215     1.0000 0.06740  0.82320  0.77930  Biso   1.000  H
  H216     1.0000 0.92680  0.31740  0.02930  Biso   1.000  H
  H217     1.0000 0.06740  0.32320  0.22070  Biso   1.000  H
  H218     1.0000 0.42680  0.31740  0.47070  Biso   1.000  H
  H219     1.0000 0.43260  0.67680  0.72070  Biso   1.000  H
  H220     1.0000 0.07320  0.68260  0.97070  Biso   1.000  H
  H221     1.0000 0.56740  0.82320  0.72070  Biso   1.000  H
  H222     1.0000 0.92680  0.81740  0.97070  Biso   1.000  H
  H223     1.0000 0.93260  0.17680  0.22070  Biso   1.000  H
  H224     1.0000 0.57320  0.18260  0.47070  Biso   1.000  H
  C209     1.0000 0.49570  0.64653  0.08110  Biso   1.000  C
  C210     1.0000 0.10347  0.74570  0.33110  Biso   1.000  C
  C211     1.0000 0.00430  0.35347  0.58110  Biso   1.000  C
  C212     1.0000 0.39653  0.25430  0.83110  Biso   1.000  C
  C213     1.0000 0.99570  0.14653  0.58110  Biso   1.000  C
  C214     1.0000 0.60347  0.24570  0.83110  Biso   1.000  C
  C215     1.0000 0.50430  0.85347  0.08110  Biso   1.000  C
  C216     1.0000 0.89653  0.75430  0.33110  Biso   1.000  C
  C217     1.0000 0.50430  0.35347  0.91890  Biso   1.000  C
  C218     1.0000 0.39653  0.75430  0.16890  Biso   1.000  C
  C219     1.0000 0.99570  0.64653  0.41890  Biso   1.000  C
  C220     1.0000 0.10347  0.24570  0.66890  Biso   1.000  C
  C221     1.0000 0.00430  0.85347  0.41890  Biso   1.000  C
  C222     1.0000 0.89653  0.25430  0.66890  Biso   1.000  C
  C223     1.0000 0.49570  0.14653  0.91890  Biso   1.000  C
  C224     1.0000 0.60347  0.74570  0.16890  Biso   1.000  C
  C225     1.0000 0.43518  0.75349  0.99880  Biso   1.000  C
  C226     1.0000 0.99651  0.68518  0.24880  Biso   1.000  C
  C227     1.0000 0.06482  0.24651  0.49880  Biso   1.000  C
  C228     1.0000 0.50349  0.31482  0.74880  Biso   1.000  C
  C229     1.0000 0.93518  0.25349  0.49880  Biso   1.000  C
  C230     1.0000 0.49651  0.18518  0.74880  Biso   1.000  C
  C231     1.0000 0.56482  0.74651  0.99880  Biso   1.000  C
  C232     1.0000 0.00349  0.81482  0.24880  Biso   1.000  C
  C233     1.0000 0.56482  0.24651  0.00120  Biso   1.000  C
  C234     1.0000 0.50349  0.81482  0.25120  Biso   1.000  C
  C235     1.0000 0.93518  0.75349  0.50120  Biso   1.000  C
  C236     1.0000 0.99651  0.18518  0.75120  Biso   1.000  C
  C237     1.0000 0.06482  0.74651  0.50120  Biso   1.000  C
  C238     1.0000 0.00349  0.31482  0.75120  Biso   1.000  C
  C239     1.0000 0.43518  0.25349  0.00120  Biso   1.000  C
  C240     1.0000 0.49651  0.68518  0.25120  Biso   1.000  C
