data_image0
_cell_length_a       19.734
_cell_length_b       19.734
_cell_length_c       13.989
_cell_angle_alpha    90
_cell_angle_beta     90
_cell_angle_gamma    90

_symmetry_space_group_name_H-M    "P 1"
_symmetry_int_tables_number       1

loop_
  _symmetry_equiv_pos_as_xyz
  'x, y, z'

loop_
  _atom_site_label
  _atom_site_occupancy
  _atom_site_fract_x
  _atom_site_fract_y
  _atom_site_fract_z
  _atom_site_thermal_displace_type
  _atom_site_B_iso_or_equiv
  _atom_site_type_symbol
  W1       1.0000 0.00000  0.75000  0.37500  Biso   1.000  W
  W2       1.0000 0.00000  0.25000  0.62500  Biso   1.000  W
  W3       1.0000 0.50000  0.25000  0.87500  Biso   1.000  W
  W4       1.0000 0.50000  0.75000  0.12500  Biso   1.000  W
  Cu1      1.0000 0.75000  0.75000  0.25000  Biso   1.000  Cu
  Cu2      1.0000 0.00000  0.00000  0.50000  Biso   1.000  Cu
  Cu3      1.0000 0.75000  0.25000  0.75000  Biso   1.000  Cu
  Cu4      1.0000 0.50000  0.00000  0.00000  Biso   1.000  Cu
  Cu5      1.0000 0.25000  0.25000  0.75000  Biso   1.000  Cu
  Cu6      1.0000 0.50000  0.50000  0.00000  Biso   1.000  Cu
  Cu7      1.0000 0.25000  0.75000  0.25000  Biso   1.000  Cu
  Cu8      1.0000 0.00000  0.50000  0.50000  Biso   1.000  Cu
  N1       1.0000 0.84182  0.75544  0.30370  Biso   1.000  N
  N2       1.0000 0.99456  0.09182  0.55370  Biso   1.000  N
  N3       1.0000 0.65818  0.24456  0.80370  Biso   1.000  N
  N4       1.0000 0.50544  0.90818  0.05370  Biso   1.000  N
  N5       1.0000 0.34182  0.25544  0.80370  Biso   1.000  N
  N6       1.0000 0.49456  0.59182  0.05370  Biso   1.000  N
  N7       1.0000 0.15818  0.74456  0.30370  Biso   1.000  N
  N8       1.0000 0.00544  0.40818  0.55370  Biso   1.000  N
  N9       1.0000 0.15818  0.24456  0.69630  Biso   1.000  N
  N10      1.0000 0.50544  0.40818  0.94630  Biso   1.000  N
  N11      1.0000 0.34182  0.75544  0.19630  Biso   1.000  N
  N12      1.0000 0.99456  0.59182  0.44630  Biso   1.000  N
  N13      1.0000 0.65818  0.74456  0.19630  Biso   1.000  N
  N14      1.0000 0.00544  0.90818  0.44630  Biso   1.000  N
  N15      1.0000 0.84182  0.25544  0.69630  Biso   1.000  N
  N16      1.0000 0.49456  0.09182  0.94630  Biso   1.000  N
  N17      1.0000 0.70400  0.73060  0.40950  Biso   1.000  N
  N18      1.0000 0.01940  0.95400  0.65950  Biso   1.000  N
  N19      1.0000 0.79600  0.26940  0.90950  Biso   1.000  N
  N20      1.0000 0.48060  0.04600  0.15950  Biso   1.000  N
  N21      1.0000 0.20400  0.23060  0.90950  Biso   1.000  N
  N22      1.0000 0.51940  0.45400  0.15950  Biso   1.000  N
  N23      1.0000 0.29600  0.76940  0.40950  Biso   1.000  N
  N24      1.0000 0.98060  0.54600  0.65950  Biso   1.000  N
  N25      1.0000 0.29600  0.26940  0.59050  Biso   1.000  N
  N26      1.0000 0.48060  0.54600  0.84050  Biso   1.000  N
  N27      1.0000 0.20400  0.73060  0.09050  Biso   1.000  N
  N28      1.0000 0.01940  0.45400  0.34050  Biso   1.000  N
  N29      1.0000 0.79600  0.76940  0.09050  Biso   1.000  N
  N30      1.0000 0.98060  0.04600  0.34050  Biso   1.000  N
  N31      1.0000 0.70400  0.23060  0.59050  Biso   1.000  N
  N32      1.0000 0.51940  0.95400  0.84050  Biso   1.000  N
  N33      1.0000 0.73981  0.35588  0.73290  Biso   1.000  N
  N34      1.0000 0.39412  0.98981  0.98290  Biso   1.000  N
  N35      1.0000 0.76019  0.64412  0.23290  Biso   1.000  N
  N36      1.0000 0.10588  0.01019  0.48290  Biso   1.000  N
  N37      1.0000 0.23981  0.85588  0.23290  Biso   1.000  N
  N38      1.0000 0.89412  0.48981  0.48290  Biso   1.000  N
  N39      1.0000 0.26019  0.14412  0.73290  Biso   1.000  N
  N40      1.0000 0.60588  0.51019  0.98290  Biso   1.000  N
  N41      1.0000 0.26019  0.64412  0.26710  Biso   1.000  N
  N42      1.0000 0.10588  0.51019  0.51710  Biso   1.000  N
  N43      1.0000 0.23981  0.35588  0.76710  Biso   1.000  N
  N44      1.0000 0.39412  0.48981  0.01710  Biso   1.000  N
  N45      1.0000 0.76019  0.14412  0.76710  Biso   1.000  N
  N46      1.0000 0.60588  0.01019  0.01710  Biso   1.000  N
  N47      1.0000 0.73981  0.85588  0.26710  Biso   1.000  N
  N48      1.0000 0.89412  0.98981  0.51710  Biso   1.000  N
  N49      1.0000 0.99370  0.65080  0.18230  Biso   1.000  N
  N50      1.0000 0.09920  0.24370  0.43230  Biso   1.000  N
  N51      1.0000 0.50630  0.34920  0.68230  Biso   1.000  N
  N52      1.0000 0.40080  0.75630  0.93230  Biso   1.000  N
  N53      1.0000 0.49370  0.15080  0.68230  Biso   1.000  N
  N54      1.0000 0.59920  0.74370  0.93230  Biso   1.000  N
  N55      1.0000 0.00630  0.84920  0.18230  Biso   1.000  N
  N56      1.0000 0.90080  0.25630  0.43230  Biso   1.000  N
  N57      1.0000 0.00630  0.34920  0.81770  Biso   1.000  N
  N58      1.0000 0.40080  0.25630  0.06770  Biso   1.000  N
  N59      1.0000 0.49370  0.65080  0.31770  Biso   1.000  N
  N60      1.0000 0.09920  0.74370  0.56770  Biso   1.000  N
  N61      1.0000 0.50630  0.84920  0.31770  Biso   1.000  N
  N62      1.0000 0.90080  0.75630  0.56770  Biso   1.000  N
  N63      1.0000 0.99370  0.15080  0.81770  Biso   1.000  N
  N64      1.0000 0.59920  0.24370  0.06770  Biso   1.000  N
  C1       1.0000 0.79270  0.39820  0.73270  Biso   1.000  C
  C2       1.0000 0.35180  0.04270  0.98270  Biso   1.000  C
  C3       1.0000 0.70730  0.60180  0.23270  Biso   1.000  C
  C4       1.0000 0.14820  0.95730  0.48270  Biso   1.000  C
  C5       1.0000 0.29270  0.89820  0.23270  Biso   1.000  C
  C6       1.0000 0.85180  0.54270  0.48270  Biso   1.000  C
  C7       1.0000 0.20730  0.10180  0.73270  Biso   1.000  C
  C8       1.0000 0.64820  0.45730  0.98270  Biso   1.000  C
  C9       1.0000 0.20730  0.60180  0.26730  Biso   1.000  C
  C10      1.0000 0.14820  0.45730  0.51730  Biso   1.000  C
  C11      1.0000 0.29270  0.39820  0.76730  Biso   1.000  C
  C12      1.0000 0.35180  0.54270  0.01730  Biso   1.000  C
  C13      1.0000 0.70730  0.10180  0.76730  Biso   1.000  C
  C14      1.0000 0.64820  0.95730  0.01730  Biso   1.000  C
  C15      1.0000 0.79270  0.89820  0.26730  Biso   1.000  C
  C16      1.0000 0.85180  0.04270  0.51730  Biso   1.000  C
  H1       1.0000 0.83650  0.37980  0.73910  Biso   1.000  H
  H2       1.0000 0.37020  0.08650  0.98910  Biso   1.000  H
  H3       1.0000 0.66350  0.62020  0.23910  Biso   1.000  H
  H4       1.0000 0.12980  0.91350  0.48910  Biso   1.000  H
  H5       1.0000 0.33650  0.87980  0.23910  Biso   1.000  H
  H6       1.0000 0.87020  0.58650  0.48910  Biso   1.000  H
  H7       1.0000 0.16350  0.12020  0.73910  Biso   1.000  H
  H8       1.0000 0.62980  0.41350  0.98910  Biso   1.000  H
  H9       1.0000 0.16350  0.62020  0.26090  Biso   1.000  H
  H10      1.0000 0.12980  0.41350  0.51090  Biso   1.000  H
  H11      1.0000 0.33650  0.37980  0.76090  Biso   1.000  H
  H12      1.0000 0.37020  0.58650  0.01090  Biso   1.000  H
  H13      1.0000 0.66350  0.12020  0.76090  Biso   1.000  H
  H14      1.0000 0.62980  0.91350  0.01090  Biso   1.000  H
  H15      1.0000 0.83650  0.87980  0.26090  Biso   1.000  H
  H16      1.0000 0.87020  0.08650  0.51090  Biso   1.000  H
  C17      1.0000 0.72240  0.49730  0.71680  Biso   1.000  C
  C18      1.0000 0.25270  0.97240  0.96680  Biso   1.000  C
  C19      1.0000 0.77760  0.50270  0.21680  Biso   1.000  C
  C20      1.0000 0.24730  0.02760  0.46680  Biso   1.000  C
  C21      1.0000 0.22240  0.99730  0.21680  Biso   1.000  C
  C22      1.0000 0.75270  0.47240  0.46680  Biso   1.000  C
  C23      1.0000 0.27760  0.00270  0.71680  Biso   1.000  C
  C24      1.0000 0.74730  0.52760  0.96680  Biso   1.000  C
  C25      1.0000 0.27760  0.50270  0.28320  Biso   1.000  C
  C26      1.0000 0.24730  0.52760  0.53320  Biso   1.000  C
  C27      1.0000 0.22240  0.49730  0.78320  Biso   1.000  C
  C28      1.0000 0.25270  0.47240  0.03320  Biso   1.000  C
  C29      1.0000 0.77760  0.00270  0.78320  Biso   1.000  C
  C30      1.0000 0.74730  0.02760  0.03320  Biso   1.000  C
  C31      1.0000 0.72240  0.99730  0.28320  Biso   1.000  C
  C32      1.0000 0.75270  0.97240  0.53320  Biso   1.000  C
  C33      1.0000 0.78630  0.46750  0.72370  Biso   1.000  C
  C34      1.0000 0.28250  0.03630  0.97370  Biso   1.000  C
  C35      1.0000 0.71370  0.53250  0.22370  Biso   1.000  C
  C36      1.0000 0.21750  0.96370  0.47370  Biso   1.000  C
  C37      1.0000 0.28630  0.96750  0.22370  Biso   1.000  C
  C38      1.0000 0.78250  0.53630  0.47370  Biso   1.000  C
  C39      1.0000 0.21370  0.03250  0.72370  Biso   1.000  C
  C40      1.0000 0.71750  0.46370  0.97370  Biso   1.000  C
  C41      1.0000 0.21370  0.53250  0.27630  Biso   1.000  C
  C42      1.0000 0.21750  0.46370  0.52630  Biso   1.000  C
  C43      1.0000 0.28630  0.46750  0.77630  Biso   1.000  C
  C44      1.0000 0.28250  0.53630  0.02630  Biso   1.000  C
  C45      1.0000 0.71370  0.03250  0.77630  Biso   1.000  C
  C46      1.0000 0.71750  0.96370  0.02630  Biso   1.000  C
  C47      1.0000 0.78630  0.96750  0.27630  Biso   1.000  C
  C48      1.0000 0.78250  0.03630  0.52630  Biso   1.000  C
  H17      1.0000 0.82530  0.49490  0.72220  Biso   1.000  H
  H18      1.0000 0.25510  0.07530  0.97220  Biso   1.000  H
  H19      1.0000 0.67470  0.50510  0.22220  Biso   1.000  H
  H20      1.0000 0.24490  0.92470  0.47220  Biso   1.000  H
  H21      1.0000 0.32530  0.99490  0.22220  Biso   1.000  H
  H22      1.0000 0.75510  0.57530  0.47220  Biso   1.000  H
  H23      1.0000 0.17470  0.00510  0.72220  Biso   1.000  H
  H24      1.0000 0.74490  0.42470  0.97220  Biso   1.000  H
  H25      1.0000 0.17470  0.50510  0.27780  Biso   1.000  H
  H26      1.0000 0.24490  0.42470  0.52780  Biso   1.000  H
  H27      1.0000 0.32530  0.49490  0.77780  Biso   1.000  H
  H28      1.0000 0.25510  0.57530  0.02780  Biso   1.000  H
  H29      1.0000 0.67470  0.00510  0.77780  Biso   1.000  H
  H30      1.0000 0.74490  0.92470  0.02780  Biso   1.000  H
  H31      1.0000 0.82530  0.99490  0.27780  Biso   1.000  H
  H32      1.0000 0.75510  0.07530  0.52780  Biso   1.000  H
  C49      1.0000 0.67820  0.38450  0.72460  Biso   1.000  C
  C50      1.0000 0.36550  0.92820  0.97460  Biso   1.000  C
  C51      1.0000 0.82180  0.61550  0.22460  Biso   1.000  C
  C52      1.0000 0.13450  0.07180  0.47460  Biso   1.000  C
  C53      1.0000 0.17820  0.88450  0.22460  Biso   1.000  C
  C54      1.0000 0.86550  0.42820  0.47460  Biso   1.000  C
  C55      1.0000 0.32180  0.11550  0.72460  Biso   1.000  C
  C56      1.0000 0.63450  0.57180  0.97460  Biso   1.000  C
  C57      1.0000 0.32180  0.61550  0.27540  Biso   1.000  C
  C58      1.0000 0.13450  0.57180  0.52540  Biso   1.000  C
  C59      1.0000 0.17820  0.38450  0.77540  Biso   1.000  C
  C60      1.0000 0.36550  0.42820  0.02540  Biso   1.000  C
  C61      1.0000 0.82180  0.11550  0.77540  Biso   1.000  C
  C62      1.0000 0.63450  0.07180  0.02540  Biso   1.000  C
  C63      1.0000 0.67820  0.88450  0.27540  Biso   1.000  C
  C64      1.0000 0.86550  0.92820  0.52540  Biso   1.000  C
  H33      1.0000 0.64010  0.35590  0.72340  Biso   1.000  H
  H34      1.0000 0.39410  0.89010  0.97340  Biso   1.000  H
  H35      1.0000 0.85990  0.64410  0.22340  Biso   1.000  H
  H36      1.0000 0.10590  0.10990  0.47340  Biso   1.000  H
  H37      1.0000 0.14010  0.85590  0.22340  Biso   1.000  H
  H38      1.0000 0.89410  0.39010  0.47340  Biso   1.000  H
  H39      1.0000 0.35990  0.14410  0.72340  Biso   1.000  H
  H40      1.0000 0.60590  0.60990  0.97340  Biso   1.000  H
  H41      1.0000 0.35990  0.64410  0.27660  Biso   1.000  H
  H42      1.0000 0.10590  0.60990  0.52660  Biso   1.000  H
  H43      1.0000 0.14010  0.35590  0.77660  Biso   1.000  H
  H44      1.0000 0.39410  0.39010  0.02660  Biso   1.000  H
  H45      1.0000 0.85990  0.14410  0.77660  Biso   1.000  H
  H46      1.0000 0.60590  0.10990  0.02660  Biso   1.000  H
  H47      1.0000 0.64010  0.85590  0.27660  Biso   1.000  H
  H48      1.0000 0.89410  0.89010  0.52660  Biso   1.000  H
  C65      1.0000 0.66790  0.45290  0.71760  Biso   1.000  C
  C66      1.0000 0.29710  0.91790  0.96760  Biso   1.000  C
  C67      1.0000 0.83210  0.54710  0.21760  Biso   1.000  C
  C68      1.0000 0.20290  0.08210  0.46760  Biso   1.000  C
  C69      1.0000 0.16790  0.95290  0.21760  Biso   1.000  C
  C70      1.0000 0.79710  0.41790  0.46760  Biso   1.000  C
  C71      1.0000 0.33210  0.04710  0.71760  Biso   1.000  C
  C72      1.0000 0.70290  0.58210  0.96760  Biso   1.000  C
  C73      1.0000 0.33210  0.54710  0.28240  Biso   1.000  C
  C74      1.0000 0.20290  0.58210  0.53240  Biso   1.000  C
  C75      1.0000 0.16790  0.45290  0.78240  Biso   1.000  C
  C76      1.0000 0.29710  0.41790  0.03240  Biso   1.000  C
  C77      1.0000 0.83210  0.04710  0.78240  Biso   1.000  C
  C78      1.0000 0.70290  0.08210  0.03240  Biso   1.000  C
  C79      1.0000 0.66790  0.95290  0.28240  Biso   1.000  C
  C80      1.0000 0.79710  0.91790  0.53240  Biso   1.000  C
  H49      1.0000 0.62360  0.47000  0.71340  Biso   1.000  H
  H50      1.0000 0.28000  0.87360  0.96340  Biso   1.000  H
  H51      1.0000 0.87640  0.53000  0.21340  Biso   1.000  H
  H52      1.0000 0.22000  0.12640  0.46340  Biso   1.000  H
  H53      1.0000 0.12360  0.97000  0.21340  Biso   1.000  H
  H54      1.0000 0.78000  0.37360  0.46340  Biso   1.000  H
  H55      1.0000 0.37640  0.03000  0.71340  Biso   1.000  H
  H56      1.0000 0.72000  0.62640  0.96340  Biso   1.000  H
  H57      1.0000 0.37640  0.53000  0.28660  Biso   1.000  H
  H58      1.0000 0.22000  0.62640  0.53660  Biso   1.000  H
  H59      1.0000 0.12360  0.47000  0.78660  Biso   1.000  H
  H60      1.0000 0.28000  0.37360  0.03660  Biso   1.000  H
  H61      1.0000 0.87640  0.03000  0.78660  Biso   1.000  H
  H62      1.0000 0.72000  0.12640  0.03660  Biso   1.000  H
  H63      1.0000 0.62360  0.97000  0.28660  Biso   1.000  H
  H64      1.0000 0.78000  0.87360  0.53660  Biso   1.000  H
  C81      1.0000 0.74690  0.73450  0.48600  Biso   1.000  C
  C82      1.0000 0.01550  0.99690  0.73600  Biso   1.000  C
  C83      1.0000 0.75310  0.26550  0.98600  Biso   1.000  C
  C84      1.0000 0.48450  0.00310  0.23600  Biso   1.000  C
  C85      1.0000 0.24690  0.23450  0.98600  Biso   1.000  C
  C86      1.0000 0.51550  0.49690  0.23600  Biso   1.000  C
  C87      1.0000 0.25310  0.76550  0.48600  Biso   1.000  C
  C88      1.0000 0.98450  0.50310  0.73600  Biso   1.000  C
  C89      1.0000 0.25310  0.26550  0.51400  Biso   1.000  C
  C90      1.0000 0.48450  0.50310  0.76400  Biso   1.000  C
  C91      1.0000 0.24690  0.73450  0.01400  Biso   1.000  C
  C92      1.0000 0.01550  0.49690  0.26400  Biso   1.000  C
  C93      1.0000 0.75310  0.76550  0.01400  Biso   1.000  C
  C94      1.0000 0.98450  0.00310  0.26400  Biso   1.000  C
  C95      1.0000 0.74690  0.23450  0.51400  Biso   1.000  C
  C96      1.0000 0.51550  0.99690  0.76400  Biso   1.000  C
  H65      1.0000 0.79160  0.74930  0.47570  Biso   1.000  H
  H66      1.0000 0.00070  0.04160  0.72570  Biso   1.000  H
  H67      1.0000 0.70840  0.25070  0.97570  Biso   1.000  H
  H68      1.0000 0.49930  0.95840  0.22570  Biso   1.000  H
  H69      1.0000 0.29160  0.24930  0.97570  Biso   1.000  H
  H70      1.0000 0.50070  0.54160  0.22570  Biso   1.000  H
  H71      1.0000 0.20840  0.75070  0.47570  Biso   1.000  H
  H72      1.0000 0.99930  0.45840  0.72570  Biso   1.000  H
  H73      1.0000 0.20840  0.25070  0.52430  Biso   1.000  H
  H74      1.0000 0.49930  0.45840  0.77430  Biso   1.000  H
  H75      1.0000 0.29160  0.74930  0.02430  Biso   1.000  H
  H76      1.0000 0.00070  0.54160  0.27430  Biso   1.000  H
  H77      1.0000 0.70840  0.75070  0.02430  Biso   1.000  H
  H78      1.0000 0.99930  0.95840  0.27430  Biso   1.000  H
  H79      1.0000 0.79160  0.24930  0.52430  Biso   1.000  H
  H80      1.0000 0.50070  0.04160  0.77430  Biso   1.000  H
  C97      1.0000 0.72780  0.71800  0.57620  Biso   1.000  C
  C98      1.0000 0.03200  0.97780  0.82620  Biso   1.000  C
  C99      1.0000 0.77220  0.28200  0.07620  Biso   1.000  C
  C100     1.0000 0.46800  0.02220  0.32620  Biso   1.000  C
  C101     1.0000 0.22780  0.21800  0.07620  Biso   1.000  C
  C102     1.0000 0.53200  0.47780  0.32620  Biso   1.000  C
  C103     1.0000 0.27220  0.78200  0.57620  Biso   1.000  C
  C104     1.0000 0.96800  0.52220  0.82620  Biso   1.000  C
  C105     1.0000 0.27220  0.28200  0.42380  Biso   1.000  C
  C106     1.0000 0.46800  0.52220  0.67380  Biso   1.000  C
  C107     1.0000 0.22780  0.71800  0.92380  Biso   1.000  C
  C108     1.0000 0.03200  0.47780  0.17380  Biso   1.000  C
  C109     1.0000 0.77220  0.78200  0.92380  Biso   1.000  C
  C110     1.0000 0.96800  0.02220  0.17380  Biso   1.000  C
  C111     1.0000 0.72780  0.21800  0.42380  Biso   1.000  C
  C112     1.0000 0.53200  0.97780  0.67380  Biso   1.000  C
  H81      1.0000 0.75990  0.72000  0.62580  Biso   1.000  H
  H82      1.0000 0.03000  0.00990  0.87580  Biso   1.000  H
  H83      1.0000 0.74010  0.28000  0.12580  Biso   1.000  H
  H84      1.0000 0.47000  0.99010  0.37580  Biso   1.000  H
  H85      1.0000 0.25990  0.22000  0.12580  Biso   1.000  H
  H86      1.0000 0.53000  0.50990  0.37580  Biso   1.000  H
  H87      1.0000 0.24010  0.78000  0.62580  Biso   1.000  H
  H88      1.0000 0.97000  0.49010  0.87580  Biso   1.000  H
  H89      1.0000 0.24010  0.28000  0.37420  Biso   1.000  H
  H90      1.0000 0.47000  0.49010  0.62420  Biso   1.000  H
  H91      1.0000 0.25990  0.72000  0.87420  Biso   1.000  H
  H92      1.0000 0.03000  0.50990  0.12420  Biso   1.000  H
  H93      1.0000 0.74010  0.78000  0.87420  Biso   1.000  H
  H94      1.0000 0.97000  0.99010  0.12420  Biso   1.000  H
  H95      1.0000 0.75990  0.22000  0.37420  Biso   1.000  H
  H96      1.0000 0.53000  0.00990  0.62420  Biso   1.000  H
  C113     1.0000 0.66210  0.69810  0.59670  Biso   1.000  C
  C114     1.0000 0.05190  0.91210  0.84670  Biso   1.000  C
  C115     1.0000 0.83790  0.30190  0.09670  Biso   1.000  C
  C116     1.0000 0.44810  0.08790  0.34670  Biso   1.000  C
  C117     1.0000 0.16210  0.19810  0.09670  Biso   1.000  C
  C118     1.0000 0.55190  0.41210  0.34670  Biso   1.000  C
  C119     1.0000 0.33790  0.80190  0.59670  Biso   1.000  C
  C120     1.0000 0.94810  0.58790  0.84670  Biso   1.000  C
  C121     1.0000 0.33790  0.30190  0.40330  Biso   1.000  C
  C122     1.0000 0.44810  0.58790  0.65330  Biso   1.000  C
  C123     1.0000 0.16210  0.69810  0.90330  Biso   1.000  C
  C124     1.0000 0.05190  0.41210  0.15330  Biso   1.000  C
  C125     1.0000 0.83790  0.80190  0.90330  Biso   1.000  C
  C126     1.0000 0.94810  0.08790  0.15330  Biso   1.000  C
  C127     1.0000 0.66210  0.19810  0.40330  Biso   1.000  C
  C128     1.0000 0.55190  0.91210  0.65330  Biso   1.000  C
  C129     1.0000 0.64010  0.67730  0.69560  Biso   1.000  C
  C130     1.0000 0.07270  0.89010  0.94560  Biso   1.000  C
  C131     1.0000 0.85990  0.32270  0.19560  Biso   1.000  C
  C132     1.0000 0.42730  0.10990  0.44560  Biso   1.000  C
  C133     1.0000 0.14010  0.17730  0.19560  Biso   1.000  C
  C134     1.0000 0.57270  0.39010  0.44560  Biso   1.000  C
  C135     1.0000 0.35990  0.82270  0.69560  Biso   1.000  C
  C136     1.0000 0.92730  0.60990  0.94560  Biso   1.000  C
  C137     1.0000 0.35990  0.32270  0.30440  Biso   1.000  C
  C138     1.0000 0.42730  0.60990  0.55440  Biso   1.000  C
  C139     1.0000 0.14010  0.67730  0.80440  Biso   1.000  C
  C140     1.0000 0.07270  0.39010  0.05440  Biso   1.000  C
  C141     1.0000 0.85990  0.82270  0.80440  Biso   1.000  C
  C142     1.0000 0.92730  0.10990  0.05440  Biso   1.000  C
  C143     1.0000 0.64010  0.17730  0.30440  Biso   1.000  C
  C144     1.0000 0.57270  0.89010  0.55440  Biso   1.000  C
  H97      1.0000 0.59360  0.69290  0.70680  Biso   1.000  H
  H98      1.0000 0.05710  0.84360  0.95680  Biso   1.000  H
  H99      1.0000 0.90640  0.30710  0.20680  Biso   1.000  H
  H100     1.0000 0.44290  0.15640  0.45680  Biso   1.000  H
  H101     1.0000 0.09360  0.19290  0.20680  Biso   1.000  H
  H102     1.0000 0.55710  0.34360  0.45680  Biso   1.000  H
  H103     1.0000 0.40640  0.80710  0.70680  Biso   1.000  H
  H104     1.0000 0.94290  0.65640  0.95680  Biso   1.000  H
  H105     1.0000 0.40640  0.30710  0.29320  Biso   1.000  H
  H106     1.0000 0.44290  0.65640  0.54320  Biso   1.000  H
  H107     1.0000 0.09360  0.69290  0.79320  Biso   1.000  H
  H108     1.0000 0.05710  0.34360  0.04320  Biso   1.000  H
  H109     1.0000 0.90640  0.80710  0.79320  Biso   1.000  H
  H110     1.0000 0.94290  0.15640  0.04320  Biso   1.000  H
  H111     1.0000 0.59360  0.19290  0.29320  Biso   1.000  H
  H112     1.0000 0.55710  0.84360  0.54320  Biso   1.000  H
  H113     1.0000 0.66940  0.69920  0.74300  Biso   1.000  H
  H114     1.0000 0.05080  0.91940  0.99300  Biso   1.000  H
  H115     1.0000 0.83060  0.30080  0.24300  Biso   1.000  H
  H116     1.0000 0.44920  0.08060  0.49300  Biso   1.000  H
  H117     1.0000 0.16940  0.19920  0.24300  Biso   1.000  H
  H118     1.0000 0.55080  0.41940  0.49300  Biso   1.000  H
  H119     1.0000 0.33060  0.80080  0.74300  Biso   1.000  H
  H120     1.0000 0.94920  0.58060  0.99300  Biso   1.000  H
  H121     1.0000 0.33060  0.30080  0.25700  Biso   1.000  H
  H122     1.0000 0.44920  0.58060  0.50700  Biso   1.000  H
  H123     1.0000 0.16940  0.69920  0.75700  Biso   1.000  H
  H124     1.0000 0.05080  0.41940  0.00700  Biso   1.000  H
  H125     1.0000 0.83060  0.80080  0.75700  Biso   1.000  H
  H126     1.0000 0.94920  0.08060  0.00700  Biso   1.000  H
  H127     1.0000 0.66940  0.19920  0.25700  Biso   1.000  H
  H128     1.0000 0.55080  0.91940  0.50700  Biso   1.000  H
  C145     1.0000 0.64330  0.60060  0.70880  Biso   1.000  C
  C146     1.0000 0.14940  0.89330  0.95880  Biso   1.000  C
  C147     1.0000 0.85670  0.39940  0.20880  Biso   1.000  C
  C148     1.0000 0.35060  0.10670  0.45880  Biso   1.000  C
  C149     1.0000 0.14330  0.10060  0.20880  Biso   1.000  C
  C150     1.0000 0.64940  0.39330  0.45880  Biso   1.000  C
  C151     1.0000 0.35670  0.89940  0.70880  Biso   1.000  C
  C152     1.0000 0.85060  0.60670  0.95880  Biso   1.000  C
  C153     1.0000 0.35670  0.39940  0.29120  Biso   1.000  C
  C154     1.0000 0.35060  0.60670  0.54120  Biso   1.000  C
  C155     1.0000 0.14330  0.60060  0.79120  Biso   1.000  C
  C156     1.0000 0.14940  0.39330  0.04120  Biso   1.000  C
  C157     1.0000 0.85670  0.89940  0.79120  Biso   1.000  C
  C158     1.0000 0.85060  0.10670  0.04120  Biso   1.000  C
  C159     1.0000 0.64330  0.10060  0.29120  Biso   1.000  C
  C160     1.0000 0.64940  0.89330  0.54120  Biso   1.000  C
  H129     1.0000 0.62180  0.58870  0.76800  Biso   1.000  H
  H130     1.0000 0.16130  0.87180  0.01800  Biso   1.000  H
  H131     1.0000 0.87820  0.41130  0.26800  Biso   1.000  H
  H132     1.0000 0.33870  0.12820  0.51800  Biso   1.000  H
  H133     1.0000 0.12180  0.08870  0.26800  Biso   1.000  H
  H134     1.0000 0.66130  0.37180  0.51800  Biso   1.000  H
  H135     1.0000 0.37820  0.91130  0.76800  Biso   1.000  H
  H136     1.0000 0.83870  0.62820  0.01800  Biso   1.000  H
  H137     1.0000 0.37820  0.41130  0.23200  Biso   1.000  H
  H138     1.0000 0.33870  0.62820  0.48200  Biso   1.000  H
  H139     1.0000 0.12180  0.58870  0.73200  Biso   1.000  H
  H140     1.0000 0.16130  0.37180  0.98200  Biso   1.000  H
  H141     1.0000 0.87820  0.91130  0.73200  Biso   1.000  H
  H142     1.0000 0.83870  0.12820  0.98200  Biso   1.000  H
  H143     1.0000 0.62180  0.08870  0.23200  Biso   1.000  H
  H144     1.0000 0.66130  0.87180  0.48200  Biso   1.000  H
  H145     1.0000 0.61810  0.57910  0.65790  Biso   1.000  H
  H146     1.0000 0.17090  0.86810  0.90790  Biso   1.000  H
  H147     1.0000 0.88190  0.42090  0.15790  Biso   1.000  H
  H148     1.0000 0.32910  0.13190  0.40790  Biso   1.000  H
  H149     1.0000 0.11810  0.07910  0.15790  Biso   1.000  H
  H150     1.0000 0.67090  0.36810  0.40790  Biso   1.000  H
  H151     1.0000 0.38190  0.92090  0.65790  Biso   1.000  H
  H152     1.0000 0.82910  0.63190  0.90790  Biso   1.000  H
  H153     1.0000 0.38190  0.42090  0.34210  Biso   1.000  H
  H154     1.0000 0.32910  0.63190  0.59210  Biso   1.000  H
  H155     1.0000 0.11810  0.57910  0.84210  Biso   1.000  H
  H156     1.0000 0.17090  0.36810  0.09210  Biso   1.000  H
  H157     1.0000 0.88190  0.92090  0.84210  Biso   1.000  H
  H158     1.0000 0.82910  0.13190  0.09210  Biso   1.000  H
  H159     1.0000 0.61810  0.07910  0.34210  Biso   1.000  H
  H160     1.0000 0.67090  0.86810  0.59210  Biso   1.000  H
  C161     1.0000 0.61820  0.69580  0.52010  Biso   1.000  C
  C162     1.0000 0.05420  0.86820  0.77010  Biso   1.000  C
  C163     1.0000 0.88180  0.30420  0.02010  Biso   1.000  C
  C164     1.0000 0.44580  0.13180  0.27010  Biso   1.000  C
  C165     1.0000 0.11820  0.19580  0.02010  Biso   1.000  C
  C166     1.0000 0.55420  0.36820  0.27010  Biso   1.000  C
  C167     1.0000 0.38180  0.80420  0.52010  Biso   1.000  C
  C168     1.0000 0.94580  0.63180  0.77010  Biso   1.000  C
  C169     1.0000 0.38180  0.30420  0.47990  Biso   1.000  C
  C170     1.0000 0.44580  0.63180  0.72990  Biso   1.000  C
  C171     1.0000 0.11820  0.69580  0.97990  Biso   1.000  C
  C172     1.0000 0.05420  0.36820  0.22990  Biso   1.000  C
  C173     1.0000 0.88180  0.80420  0.97990  Biso   1.000  C
  C174     1.0000 0.94580  0.13180  0.22990  Biso   1.000  C
  C175     1.0000 0.61820  0.19580  0.47990  Biso   1.000  C
  C176     1.0000 0.55420  0.86820  0.72990  Biso   1.000  C
  H161     1.0000 0.57290  0.68270  0.52980  Biso   1.000  H
  H162     1.0000 0.06730  0.82290  0.77980  Biso   1.000  H
  H163     1.0000 0.92710  0.31730  0.02980  Biso   1.000  H
  H164     1.0000 0.43270  0.17710  0.27980  Biso   1.000  H
  H165     1.0000 0.07290  0.18270  0.02980  Biso   1.000  H
  H166     1.0000 0.56730  0.32290  0.27980  Biso   1.000  H
  H167     1.0000 0.42710  0.81730  0.52980  Biso   1.000  H
  H168     1.0000 0.93270  0.67710  0.77980  Biso   1.000  H
  H169     1.0000 0.42710  0.31730  0.47020  Biso   1.000  H
  H170     1.0000 0.43270  0.67710  0.72020  Biso   1.000  H
  H171     1.0000 0.07290  0.68270  0.97020  Biso   1.000  H
  H172     1.0000 0.06730  0.32290  0.22020  Biso   1.000  H
  H173     1.0000 0.92710  0.81730  0.97020  Biso   1.000  H
  H174     1.0000 0.93270  0.17710  0.22020  Biso   1.000  H
  H175     1.0000 0.57290  0.18270  0.47020  Biso   1.000  H
  H176     1.0000 0.56730  0.82290  0.72020  Biso   1.000  H
  C177     1.0000 0.63990  0.71250  0.42960  Biso   1.000  C
  C178     1.0000 0.03750  0.88990  0.67960  Biso   1.000  C
  C179     1.0000 0.86010  0.28750  0.92960  Biso   1.000  C
  C180     1.0000 0.46250  0.11010  0.17960  Biso   1.000  C
  C181     1.0000 0.13990  0.21250  0.92960  Biso   1.000  C
  C182     1.0000 0.53750  0.38990  0.17960  Biso   1.000  C
  C183     1.0000 0.36010  0.78750  0.42960  Biso   1.000  C
  C184     1.0000 0.96250  0.61010  0.67960  Biso   1.000  C
  C185     1.0000 0.36010  0.28750  0.57040  Biso   1.000  C
  C186     1.0000 0.46250  0.61010  0.82040  Biso   1.000  C
  C187     1.0000 0.13990  0.71250  0.07040  Biso   1.000  C
  C188     1.0000 0.03750  0.38990  0.32040  Biso   1.000  C
  C189     1.0000 0.86010  0.78750  0.07040  Biso   1.000  C
  C190     1.0000 0.96250  0.11010  0.32040  Biso   1.000  C
  C191     1.0000 0.63990  0.21250  0.57040  Biso   1.000  C
  C192     1.0000 0.53750  0.88990  0.82040  Biso   1.000  C
  H177     1.0000 0.60830  0.71120  0.37940  Biso   1.000  H
  H178     1.0000 0.03880  0.85830  0.62940  Biso   1.000  H
  H179     1.0000 0.89170  0.28880  0.87940  Biso   1.000  H
  H180     1.0000 0.46120  0.14170  0.12940  Biso   1.000  H
  H181     1.0000 0.10830  0.21120  0.87940  Biso   1.000  H
  H182     1.0000 0.53880  0.35830  0.12940  Biso   1.000  H
  H183     1.0000 0.39170  0.78880  0.37940  Biso   1.000  H
  H184     1.0000 0.96120  0.64170  0.62940  Biso   1.000  H
  H185     1.0000 0.39170  0.28880  0.62060  Biso   1.000  H
  H186     1.0000 0.46120  0.64170  0.87060  Biso   1.000  H
  H187     1.0000 0.10830  0.71120  0.12060  Biso   1.000  H
  H188     1.0000 0.03880  0.35830  0.37060  Biso   1.000  H
  H189     1.0000 0.89170  0.78880  0.12060  Biso   1.000  H
  H190     1.0000 0.96120  0.14170  0.37060  Biso   1.000  H
  H191     1.0000 0.60830  0.21120  0.62060  Biso   1.000  H
  H192     1.0000 0.53880  0.85830  0.87060  Biso   1.000  H
  C193     1.0000 0.99650  0.68490  0.24860  Biso   1.000  C
  C194     1.0000 0.06510  0.24650  0.49860  Biso   1.000  C
  C195     1.0000 0.50350  0.31510  0.74860  Biso   1.000  C
  C196     1.0000 0.43490  0.75350  0.99860  Biso   1.000  C
  C197     1.0000 0.49650  0.18490  0.74860  Biso   1.000  C
  C198     1.0000 0.56510  0.74650  0.99860  Biso   1.000  C
  C199     1.0000 0.00350  0.81510  0.24860  Biso   1.000  C
  C200     1.0000 0.93490  0.25350  0.49860  Biso   1.000  C
  C201     1.0000 0.00350  0.31510  0.75140  Biso   1.000  C
  C202     1.0000 0.43490  0.25350  0.00140  Biso   1.000  C
  C203     1.0000 0.49650  0.68490  0.25140  Biso   1.000  C
  C204     1.0000 0.06510  0.74650  0.50140  Biso   1.000  C
  C205     1.0000 0.50350  0.81510  0.25140  Biso   1.000  C
  C206     1.0000 0.93490  0.75350  0.50140  Biso   1.000  C
  C207     1.0000 0.99650  0.18490  0.75140  Biso   1.000  C
  C208     1.0000 0.56510  0.24650  0.00140  Biso   1.000  C
  C209     1.0000 0.89680  0.75420  0.33080  Biso   1.000  C
  C210     1.0000 0.99580  0.14680  0.58080  Biso   1.000  C
  C211     1.0000 0.60320  0.24580  0.83080  Biso   1.000  C
  C212     1.0000 0.50420  0.85320  0.08080  Biso   1.000  C
  C213     1.0000 0.39680  0.25420  0.83080  Biso   1.000  C
  C214     1.0000 0.49580  0.64680  0.08080  Biso   1.000  C
  C215     1.0000 0.10320  0.74580  0.33080  Biso   1.000  C
  C216     1.0000 0.00420  0.35320  0.58080  Biso   1.000  C
  C217     1.0000 0.10320  0.24580  0.66920  Biso   1.000  C
  C218     1.0000 0.50420  0.35320  0.91920  Biso   1.000  C
  C219     1.0000 0.39680  0.75420  0.16920  Biso   1.000  C
  C220     1.0000 0.99580  0.64680  0.41920  Biso   1.000  C
  C221     1.0000 0.60320  0.74580  0.16920  Biso   1.000  C
  C222     1.0000 0.00420  0.85320  0.41920  Biso   1.000  C
  C223     1.0000 0.89680  0.25420  0.66920  Biso   1.000  C
  C224     1.0000 0.49580  0.14680  0.91920  Biso   1.000  C
  C225     1.0000 0.71540  0.57310  0.70880  Biso   1.000  C
  C226     1.0000 0.17690  0.96540  0.95880  Biso   1.000  C
  C227     1.0000 0.78460  0.42690  0.20880  Biso   1.000  C
  C228     1.0000 0.32310  0.03460  0.45880  Biso   1.000  C
  C229     1.0000 0.21540  0.07310  0.20880  Biso   1.000  C
  C230     1.0000 0.67690  0.46540  0.45880  Biso   1.000  C
  C231     1.0000 0.28460  0.92690  0.70880  Biso   1.000  C
  C232     1.0000 0.82310  0.53460  0.95880  Biso   1.000  C
  C233     1.0000 0.28460  0.42690  0.29120  Biso   1.000  C
  C234     1.0000 0.32310  0.53460  0.54120  Biso   1.000  C
  C235     1.0000 0.21540  0.57310  0.79120  Biso   1.000  C
  C236     1.0000 0.17690  0.46540  0.04120  Biso   1.000  C
  C237     1.0000 0.78460  0.92690  0.79120  Biso   1.000  C
  C238     1.0000 0.82310  0.03460  0.04120  Biso   1.000  C
  C239     1.0000 0.71540  0.07310  0.29120  Biso   1.000  C
  C240     1.0000 0.67690  0.96540  0.54120  Biso   1.000  C
  H193     1.0000 0.73690  0.58720  0.65200  Biso   1.000  H
  H194     1.0000 0.16280  0.98690  0.90200  Biso   1.000  H
  H195     1.0000 0.76310  0.41280  0.15200  Biso   1.000  H
  H196     1.0000 0.33720  0.01310  0.40200  Biso   1.000  H
  H197     1.0000 0.23690  0.08720  0.15200  Biso   1.000  H
  H198     1.0000 0.66280  0.48690  0.40200  Biso   1.000  H
  H199     1.0000 0.26310  0.91280  0.65200  Biso   1.000  H
  H200     1.0000 0.83720  0.51310  0.90200  Biso   1.000  H
  H201     1.0000 0.26310  0.41280  0.34800  Biso   1.000  H
  H202     1.0000 0.33720  0.51310  0.59800  Biso   1.000  H
  H203     1.0000 0.23690  0.58720  0.84800  Biso   1.000  H
  H204     1.0000 0.16280  0.48690  0.09800  Biso   1.000  H
  H205     1.0000 0.76310  0.91280  0.84800  Biso   1.000  H
  H206     1.0000 0.83720  0.01310  0.09800  Biso   1.000  H
  H207     1.0000 0.73690  0.08720  0.34800  Biso   1.000  H
  H208     1.0000 0.66280  0.98690  0.59800  Biso   1.000  H
  H209     1.0000 0.73910  0.59320  0.76040  Biso   1.000  H
  H210     1.0000 0.15680  0.98910  0.01040  Biso   1.000  H
  H211     1.0000 0.76090  0.40680  0.26040  Biso   1.000  H
  H212     1.0000 0.34320  0.01090  0.51040  Biso   1.000  H
  H213     1.0000 0.23910  0.09320  0.26040  Biso   1.000  H
  H214     1.0000 0.65680  0.48910  0.51040  Biso   1.000  H
  H215     1.0000 0.26090  0.90680  0.76040  Biso   1.000  H
  H216     1.0000 0.84320  0.51090  0.01040  Biso   1.000  H
  H217     1.0000 0.26090  0.40680  0.23960  Biso   1.000  H
  H218     1.0000 0.34320  0.51090  0.48960  Biso   1.000  H
  H219     1.0000 0.23910  0.59320  0.73960  Biso   1.000  H
  H220     1.0000 0.15680  0.48910  0.98960  Biso   1.000  H
  H221     1.0000 0.76090  0.90680  0.73960  Biso   1.000  H
  H222     1.0000 0.84320  0.01090  0.98960  Biso   1.000  H
  H223     1.0000 0.73910  0.09320  0.23960  Biso   1.000  H
  H224     1.0000 0.65680  0.98910  0.48960  Biso   1.000  H
