data_image0
_cell_length_a       5.16105
_cell_length_b       8.55806
_cell_length_c       22.1714
_cell_angle_alpha    84.1315
_cell_angle_beta     84.5916
_cell_angle_gamma    75.9636

_symmetry_space_group_name_H-M    "P 1"
_symmetry_int_tables_number       1

loop_
  _symmetry_equiv_pos_as_xyz
  'x, y, z'

loop_
  _atom_site_label
  _atom_site_occupancy
  _atom_site_fract_x
  _atom_site_fract_y
  _atom_site_fract_z
  _atom_site_thermal_displace_type
  _atom_site_B_iso_or_equiv
  _atom_site_type_symbol
  Cu1      1.0000 0.77330  0.51028  0.52882  Biso   1.000  Cu
  Cu2      1.0000 0.22670  0.48972  0.47118  Biso   1.000  Cu
  O1       1.0000 0.67234  0.46710  0.44814  Biso   1.000  O
  O2       1.0000 0.32766  0.53290  0.55186  Biso   1.000  O
  O3       1.0000 0.07815  0.44020  0.39954  Biso   1.000  O
  O4       1.0000 0.92185  0.55980  0.60046  Biso   1.000  O
  C1       1.0000 0.83704  0.43910  0.40074  Biso   1.000  C
  C2       1.0000 0.16296  0.56090  0.59926  Biso   1.000  C
  C3       1.0000 0.72704  0.40750  0.34494  Biso   1.000  C
  C4       1.0000 0.27296  0.59250  0.65506  Biso   1.000  C
  H1       1.0000 0.57334  0.49520  0.33624  Biso   1.000  H
  H2       1.0000 0.42666  0.50480  0.66376  Biso   1.000  H
  H3       1.0000 0.66284  0.30920  0.35354  Biso   1.000  H
  H4       1.0000 0.33716  0.69080  0.64646  Biso   1.000  H
  C5       1.0000 0.91504  0.39000  0.28884  Biso   1.000  C
  C6       1.0000 0.08496  0.61000  0.71116  Biso   1.000  C
  H5       1.0000 0.06995  0.30280  0.29704  Biso   1.000  H
  H6       1.0000 0.93005  0.69720  0.70296  Biso   1.000  H
  H7       1.0000 0.97654  0.48890  0.27914  Biso   1.000  H
  H8       1.0000 0.02346  0.51110  0.72086  Biso   1.000  H
  C7       1.0000 0.78804  0.35530  0.23394  Biso   1.000  C
  C8       1.0000 0.21196  0.64470  0.76606  Biso   1.000  C
  H9       1.0000 0.73304  0.25400  0.24314  Biso   1.000  H
  H10      1.0000 0.26696  0.74600  0.75686  Biso   1.000  H
  H11      1.0000 0.62824  0.44000  0.22684  Biso   1.000  H
  H12      1.0000 0.37176  0.56000  0.77316  Biso   1.000  H
  C9       1.0000 0.97204  0.34460  0.17634  Biso   1.000  C
  C10      1.0000 0.02796  0.65540  0.82366  Biso   1.000  C
  H13      1.0000 0.13445  0.26170  0.18354  Biso   1.000  H
  H14      1.0000 0.86555  0.73830  0.81646  Biso   1.000  H
  H15      1.0000 0.02255  0.44680  0.16614  Biso   1.000  H
  H16      1.0000 0.97745  0.55320  0.83386  Biso   1.000  H
  C11      1.0000 0.83704  0.30360  0.12144  Biso   1.000  C
  C12      1.0000 0.16296  0.69640  0.87856  Biso   1.000  C
  H17      1.0000 0.78584  0.20120  0.13144  Biso   1.000  H
  H18      1.0000 0.21416  0.79880  0.86856  Biso   1.000  H
  H19      1.0000 0.67684  0.38660  0.11354  Biso   1.000  H
  H20      1.0000 0.32316  0.61340  0.88646  Biso   1.000  H
  C13      1.0000 0.02705  0.29160  0.06574  Biso   1.000  C
  C14      1.0000 0.97295  0.70840  0.93426  Biso   1.000  C
  H21      1.0000 0.18645  0.20610  0.07214  Biso   1.000  H
  H22      1.0000 0.81355  0.79390  0.92786  Biso   1.000  H
  H23      1.0000 0.07965  0.39310  0.05464  Biso   1.000  H
  H24      1.0000 0.92035  0.60690  0.94536  Biso   1.000  H
  C15      1.0000 0.86204  0.25260  0.01584  Biso   1.000  C
  C16      1.0000 0.13796  0.74740  0.98416  Biso   1.000  C
  H25      1.0000 0.97344  0.23760  0.97854  Biso   1.000  H
  H26      1.0000 0.02656  0.76240  0.02146  Biso   1.000  H
  H27      1.0000 0.71004  0.34110  0.00914  Biso   1.000  H
  H28      1.0000 0.28996  0.65890  0.99086  Biso   1.000  H
  H29      1.0000 0.80274  0.15600  0.02904  Biso   1.000  H
  H30      1.0000 0.19726  0.84400  0.97096  Biso   1.000  H
  O5       1.0000 0.88917  0.28078  0.55336  Biso   1.000  O
  O6       1.0000 0.11083  0.71922  0.44664  Biso   1.000  O
  O7       1.0000 0.29157  0.25788  0.50126  Biso   1.000  O
  O8       1.0000 0.70843  0.74212  0.49874  Biso   1.000  O
  C17      1.0000 0.12297  0.20028  0.53666  Biso   1.000  C
  C18      1.0000 0.87703  0.79972  0.46334  Biso   1.000  C
  C19      1.0000 0.21397  0.02928  0.56346  Biso   1.000  C
  C20      1.0000 0.78603  0.97072  0.43654  Biso   1.000  C
  H31      1.0000 0.25218  0.92862  0.54418  Biso   1.000  H
  H32      1.0000 0.74782  0.07138  0.45582  Biso   1.000  H
  H33      1.0000 0.04575  0.04113  0.58797  Biso   1.000  H
  H34      1.0000 0.95425  0.95887  0.41203  Biso   1.000  H
  C21      1.0000 0.43822  0.02831  0.60353  Biso   1.000  C
  C22      1.0000 0.56178  0.97169  0.39647  Biso   1.000  C
  H35      1.0000 0.55402  0.92047  0.60667  Biso   1.000  H
  H36      1.0000 0.44598  0.07953  0.39333  Biso   1.000  H
  H37      1.0000 0.54738  0.09867  0.58357  Biso   1.000  H
  H38      1.0000 0.45262  0.90133  0.41643  Biso   1.000  H
  C23      1.0000 0.32375  0.08422  0.66561  Biso   1.000  C
  C24      1.0000 0.67625  0.91578  0.33439  Biso   1.000  C
  H39      1.0000 0.21463  0.19323  0.66016  Biso   1.000  H
  H40      1.0000 0.78537  0.80677  0.33984  Biso   1.000  H
  H41      1.0000 0.20804  0.01549  0.68358  Biso   1.000  H
  H42      1.0000 0.79196  0.98451  0.31642  Biso   1.000  H
  C25      1.0000 0.55132  0.08764  0.70403  Biso   1.000  C
  C26      1.0000 0.44868  0.91236  0.29597  Biso   1.000  C
  H43      1.0000 0.66476  0.15121  0.68111  Biso   1.000  H
  H44      1.0000 0.33524  0.84879  0.31889  Biso   1.000  H
  H45      1.0000 0.65840  0.97821  0.71081  Biso   1.000  H
  H46      1.0000 0.34160  0.02179  0.28919  Biso   1.000  H
  C27      1.0000 0.43734  0.13807  0.76683  Biso   1.000  C
  C28      1.0000 0.56266  0.86193  0.23317  Biso   1.000  C
  H47      1.0000 0.32584  0.24722  0.76230  Biso   1.000  H
  H48      1.0000 0.67416  0.75278  0.23770  Biso   1.000  H
  H49      1.0000 0.32388  0.06766  0.78400  Biso   1.000  H
  H50      1.0000 0.67612  0.93234  0.21600  Biso   1.000  H
  C29      1.0000 0.66417  0.14701  0.80455  Biso   1.000  C
  C30      1.0000 0.33583  0.85299  0.19545  Biso   1.000  C
  H51      1.0000 0.77749  0.03983  0.81221  Biso   1.000  H
  H52      1.0000 0.22251  0.96017  0.18779  Biso   1.000  H
  H53      1.0000 0.77237  0.21522  0.78244  Biso   1.000  H
  H54      1.0000 0.22763  0.78478  0.21756  Biso   1.000  H
  C31      1.0000 0.55119  0.19189  0.86804  Biso   1.000  C
  C32      1.0000 0.44881  0.80811  0.13196  Biso   1.000  C
  H55      1.0000 0.69451  0.19818  0.89163  Biso   1.000  H
  H56      1.0000 0.30549  0.80182  0.10837  Biso   1.000  H
  H57      1.0000 0.42490  0.29490  0.86526  Biso   1.000  H
  H58      1.0000 0.57510  0.70510  0.13474  Biso   1.000  H
  H59      1.0000 0.46320  0.11128  0.88730  Biso   1.000  H
  H60      1.0000 0.53680  0.88872  0.11270  Biso   1.000  H
