data_image0
_cell_length_a       8.8
_cell_length_b       5.2
_cell_length_c       22.06
_cell_angle_alpha    95.1
_cell_angle_beta     92.4
_cell_angle_gamma    110.5

_symmetry_space_group_name_H-M    "P 1"
_symmetry_int_tables_number       1

loop_
  _symmetry_equiv_pos_as_xyz
  'x, y, z'

loop_
  _atom_site_label
  _atom_site_occupancy
  _atom_site_fract_x
  _atom_site_fract_y
  _atom_site_fract_z
  _atom_site_thermal_displace_type
  _atom_site_B_iso_or_equiv
  _atom_site_type_symbol
  C1       1.0000 0.94100  0.33400  0.10200  Biso   1.000  C
  C2       1.0000 0.05900  0.66600  0.89800  Biso   1.000  C
  C3       1.0000 0.91600  0.42200  0.15200  Biso   1.000  C
  C4       1.0000 0.08400  0.57800  0.84800  Biso   1.000  C
  C5       1.0000 0.89700  0.31000  0.21200  Biso   1.000  C
  C6       1.0000 0.10300  0.69000  0.78800  Biso   1.000  C
  C7       1.0000 0.86700  0.51400  0.26400  Biso   1.000  C
  C8       1.0000 0.13300  0.48600  0.73600  Biso   1.000  C
  C9       1.0000 0.84400  0.33100  0.31600  Biso   1.000  C
  C10      1.0000 0.15600  0.66900  0.68400  Biso   1.000  C
  C11      1.0000 0.81200  0.54100  0.37600  Biso   1.000  C
  C12      1.0000 0.18800  0.45900  0.62400  Biso   1.000  C
  C13      1.0000 0.79200  0.37100  0.43400  Biso   1.000  C
  C14      1.0000 0.20800  0.62900  0.56600  Biso   1.000  C
  C15      1.0000 0.75800  0.60400  0.49000  Biso   1.000  C
  C16      1.0000 0.24200  0.39600  0.51000  Biso   1.000  C
  C17      1.0000 0.29200  0.17900  0.02600  Biso   1.000  C
  C18      1.0000 0.70800  0.82100  0.97400  Biso   1.000  C
  C19      1.0000 0.46000  0.30300  0.06100  Biso   1.000  C
  C20      1.0000 0.54000  0.69700  0.93900  Biso   1.000  C
  C21      1.0000 0.48500  0.52600  0.10300  Biso   1.000  C
  C22      1.0000 0.51500  0.47400  0.89700  Biso   1.000  C
  C23      1.0000 0.41300  0.50900  0.16500  Biso   1.000  C
  C24      1.0000 0.58700  0.49100  0.83500  Biso   1.000  C
  C25      1.0000 0.40000  0.70300  0.19900  Biso   1.000  C
  C26      1.0000 0.60000  0.29700  0.80100  Biso   1.000  C
  C27      1.0000 0.36500  0.68700  0.26800  Biso   1.000  C
  C28      1.0000 0.63500  0.31300  0.73200  Biso   1.000  C
  C29      1.0000 0.34200  0.90200  0.29600  Biso   1.000  C
  C30      1.0000 0.65800  0.09800  0.70400  Biso   1.000  C
  C31      1.0000 0.30800  0.94900  0.37000  Biso   1.000  C
  C32      1.0000 0.69200  0.05100  0.63000  Biso   1.000  C
  O1       1.0000 0.95500  0.42100  0.04600  Biso   1.000  O
  O2       1.0000 0.04500  0.57900  0.95400  Biso   1.000  O
  O3       1.0000 0.94600  0.06400  0.10200  Biso   1.000  O
  O4       1.0000 0.05400  0.93600  0.89800  Biso   1.000  O
  O5       1.0000 0.23100  0.28700  0.99600  Biso   1.000  O
  O6       1.0000 0.76900  0.71300  0.00400  Biso   1.000  O
  O7       1.0000 0.76800  0.04500  0.94900  Biso   1.000  O
  O8       1.0000 0.23200  0.95500  0.05100  Biso   1.000  O
  Cu1      1.0000 0.01600  0.21100  0.97100  Biso   1.000  Cu
  Cu2      1.0000 0.98400  0.78900  0.02900  Biso   1.000  Cu
