data_image0
_cell_length_a       5.1934
_cell_length_b       12.7421
_cell_length_c       14.2981
_cell_angle_alpha    77.766
_cell_angle_beta     89.88
_cell_angle_gamma    84.315

_symmetry_space_group_name_H-M    "P 1"
_symmetry_int_tables_number       1

loop_
  _symmetry_equiv_pos_as_xyz
  'x, y, z'

loop_
  _atom_site_label
  _atom_site_occupancy
  _atom_site_fract_x
  _atom_site_fract_y
  _atom_site_fract_z
  _atom_site_thermal_displace_type
  _atom_site_B_iso_or_equiv
  _atom_site_type_symbol
  O1       1.0000 0.30184  0.46777  0.65110  Biso   1.000  O
  O2       1.0000 0.69816  0.53223  0.34890  Biso   1.000  O
  O3       1.0000 0.66549  0.54809  0.62205  Biso   1.000  O
  O4       1.0000 0.33451  0.45191  0.37795  Biso   1.000  O
  C1       1.0000 0.49090  0.50992  0.67761  Biso   1.000  C
  C2       1.0000 0.50910  0.49008  0.32239  Biso   1.000  C
  C3       1.0000 0.50482  0.52307  0.77922  Biso   1.000  C
  C4       1.0000 0.49518  0.47693  0.22078  Biso   1.000  C
  H1       1.0000 0.38225  0.58264  0.78793  Biso   1.000  H
  H2       1.0000 0.61775  0.41736  0.21207  Biso   1.000  H
  H3       1.0000 0.46590  0.45726  0.82241  Biso   1.000  H
  H4       1.0000 0.53410  0.54274  0.17759  Biso   1.000  H
  C5       1.0000 0.72819  0.58278  0.79117  Biso   1.000  C
  C6       1.0000 0.27181  0.41722  0.20883  Biso   1.000  C
  H5       1.0000 0.70688  0.65280  0.74765  Biso   1.000  H
  H6       1.0000 0.29312  0.34720  0.25235  Biso   1.000  H
  H7       1.0000 0.88312  0.54301  0.77366  Biso   1.000  H
  H8       1.0000 0.11688  0.45699  0.22634  Biso   1.000  H
  C7       1.0000 0.76240  0.59891  0.89257  Biso   1.000  C
  C8       1.0000 0.23760  0.40109  0.10743  Biso   1.000  C
  H9       1.0000 0.62444  0.65081  0.90513  Biso   1.000  H
  H10      1.0000 0.37556  0.34919  0.09487  Biso   1.000  H
  H11      1.0000 0.74559  0.53119  0.93706  Biso   1.000  H
  H12      1.0000 0.25441  0.46881  0.06294  Biso   1.000  H
  C9       1.0000 0.98534  0.66321  0.90453  Biso   1.000  C
  C10      1.0000 0.01466  0.33679  0.09547  Biso   1.000  C
  H13      1.0000 0.14542  0.62328  0.89169  Biso   1.000  H
  H14      1.0000 0.85458  0.37672  0.10831  Biso   1.000  H
  H15      1.0000 0.96650  0.73032  0.85708  Biso   1.000  H
  H16      1.0000 0.03350  0.26968  0.14292  Biso   1.000  H
  C11      1.0000 0.01913  0.67507  0.01042  Biso   1.000  C
  C12      1.0000 0.98087  0.32493  0.98958  Biso   1.000  C
  H17      1.0000 0.87992  0.72544  0.02468  Biso   1.000  H
  H18      1.0000 0.12008  0.27456  0.97532  Biso   1.000  H
  H19      1.0000 0.00326  0.60587  0.05278  Biso   1.000  H
  H20      1.0000 0.99674  0.39413  0.94722  Biso   1.000  H
  C13      1.0000 0.23859  0.74057  0.01878  Biso   1.000  C
  C14      1.0000 0.76141  0.25943  0.98122  Biso   1.000  C
  H21      1.0000 0.39355  0.70720  0.99478  Biso   1.000  H
  H22      1.0000 0.60645  0.29280  0.00522  Biso   1.000  H
  H23      1.0000 0.19752  0.81262  0.98028  Biso   1.000  H
  H24      1.0000 0.80248  0.18738  0.01972  Biso   1.000  H
  C15      1.0000 0.24756  0.74343  0.12753  Biso   1.000  C
  C16      1.0000 0.75244  0.25657  0.87247  Biso   1.000  C
  H25      1.0000 0.40335  0.77404  0.14101  Biso   1.000  H
  H26      1.0000 0.59665  0.22596  0.85899  Biso   1.000  H
  H27      1.0000 0.09617  0.78766  0.14194  Biso   1.000  H
  H28      1.0000 0.90383  0.21234  0.85806  Biso   1.000  H
  H29      1.0000 0.26414  0.67000  0.16472  Biso   1.000  H
  H30      1.0000 0.73586  0.33000  0.83528  Biso   1.000  H
  Cu1      1.0000 0.73111  0.54484  0.48716  Biso   1.000  Cu
  Cu2      1.0000 0.26889  0.45516  0.51284  Biso   1.000  Cu
  O5       1.0000 0.52008  0.31287  0.55451  Biso   1.000  O
  O6       1.0000 0.47992  0.68713  0.44549  Biso   1.000  O
  O7       1.0000 0.88426  0.40208  0.52799  Biso   1.000  O
  O8       1.0000 0.11574  0.59792  0.47201  Biso   1.000  O
  C17      1.0000 0.76303  0.31032  0.55583  Biso   1.000  C
  C18      1.0000 0.23697  0.68968  0.44417  Biso   1.000  C
  C19      1.0000 0.90952  0.20108  0.58482  Biso   1.000  C
  C20      1.0000 0.09048  0.79892  0.41518  Biso   1.000  C
  H31      1.0000 0.04201  0.22593  0.61860  Biso   1.000  H
  H32      1.0000 0.95799  0.77407  0.38140  Biso   1.000  H
  H33      1.0000 0.88248  0.12905  0.62025  Biso   1.000  H
  H34      1.0000 0.11752  0.87095  0.37975  Biso   1.000  H
  C21      1.0000 0.99271  0.19639  0.48387  Biso   1.000  C
  C22      1.0000 0.00729  0.80361  0.51613  Biso   1.000  C
  H35      1.0000 0.98677  0.26944  0.44604  Biso   1.000  H
  H36      1.0000 0.01323  0.73056  0.55396  Biso   1.000  H
  H37      1.0000 0.17239  0.16677  0.48655  Biso   1.000  H
  H38      1.0000 0.82761  0.83323  0.51345  Biso   1.000  H
  C23      1.0000 0.82463  0.12751  0.43985  Biso   1.000  C
  C24      1.0000 0.17537  0.87249  0.56015  Biso   1.000  C
  H39      1.0000 0.84125  0.05510  0.47894  Biso   1.000  H
  H40      1.0000 0.15875  0.94490  0.52106  Biso   1.000  H
  H41      1.0000 0.64539  0.15661  0.44120  Biso   1.000  H
  H42      1.0000 0.35461  0.84339  0.55880  Biso   1.000  H
  C25      1.0000 0.92042  0.12099  0.34037  Biso   1.000  C
  C26      1.0000 0.07958  0.87901  0.65963  Biso   1.000  C
  H43      1.0000 0.10391  0.09719  0.34517  Biso   1.000  H
  H44      1.0000 0.89609  0.90281  0.65483  Biso   1.000  H
  H45      1.0000 0.89920  0.19297  0.30014  Biso   1.000  H
  H46      1.0000 0.10080  0.80703  0.69986  Biso   1.000  H
  C27      1.0000 0.74682  0.05527  0.29502  Biso   1.000  C
  C28      1.0000 0.25318  0.94473  0.70498  Biso   1.000  C
  H47      1.0000 0.75989  0.98224  0.33359  Biso   1.000  H
  H48      1.0000 0.24011  0.01776  0.66641  Biso   1.000  H
  H49      1.0000 0.56956  0.08591  0.29671  Biso   1.000  H
  H50      1.0000 0.43044  0.91409  0.70329  Biso   1.000  H
  C29      1.0000 0.84792  0.04554  0.19692  Biso   1.000  C
  C30      1.0000 0.15208  0.95446  0.80308  Biso   1.000  C
  H51      1.0000 0.86002  0.11689  0.15781  Biso   1.000  H
  H52      1.0000 0.13998  0.88311  0.84219  Biso   1.000  H
  H53      1.0000 0.01935  0.00657  0.20360  Biso   1.000  H
  H54      1.0000 0.98065  0.99343  0.79640  Biso   1.000  H
  C31      1.0000 0.66920  0.98308  0.15016  Biso   1.000  C
  C32      1.0000 0.33080  0.01692  0.84984  Biso   1.000  C
  H55      1.0000 0.73410  0.97663  0.08849  Biso   1.000  H
  H56      1.0000 0.26590  0.02337  0.91151  Biso   1.000  H
  H57      1.0000 0.66262  0.91234  0.18972  Biso   1.000  H
  H58      1.0000 0.33738  0.08766  0.81028  Biso   1.000  H
  H59      1.0000 0.49866  0.02064  0.14269  Biso   1.000  H
  H60      1.0000 0.50134  0.97936  0.85731  Biso   1.000  H
