data_image0
_cell_length_a       7.4772
_cell_length_b       9.4464
_cell_length_c       3.5362
_cell_angle_alpha    98.503
_cell_angle_beta     103.276
_cell_angle_gamma    103.861

_symmetry_space_group_name_H-M    "P 1"
_symmetry_int_tables_number       1

loop_
  _symmetry_equiv_pos_as_xyz
  'x, y, z'

loop_
  _atom_site_label
  _atom_site_occupancy
  _atom_site_fract_x
  _atom_site_fract_y
  _atom_site_fract_z
  _atom_site_thermal_displace_type
  _atom_site_B_iso_or_equiv
  _atom_site_type_symbol
  Cu1      1.0000 0.00000  0.00000  0.00000  Biso   1.000  Cu
  Na1      1.0000 0.29835  0.57208  0.68912  Biso   1.000  Na
  Na2      1.0000 0.70165  0.42792  0.31088  Biso   1.000  Na
  O1       1.0000 0.23373  0.16271  0.19130  Biso   1.000  O
  O2       1.0000 0.76627  0.83729  0.80870  Biso   1.000  O
  O3       1.0000 0.90884  0.12402  0.65780  Biso   1.000  O
  O4       1.0000 0.09116  0.87598  0.34220  Biso   1.000  O
  O5       1.0000 0.34464  0.39601  0.12390  Biso   1.000  O
  O6       1.0000 0.65536  0.60399  0.87610  Biso   1.000  O
  O7       1.0000 0.00222  0.35694  0.57060  Biso   1.000  O
  O8       1.0000 0.99778  0.64306  0.42940  Biso   1.000  O
  O9       1.0000 0.39431  0.75183  0.28950  Biso   1.000  O
  O10      1.0000 0.60569  0.24817  0.71050  Biso   1.000  O
  C1       1.0000 0.22069  0.27596  0.04050  Biso   1.000  C
  C2       1.0000 0.77931  0.72404  0.95950  Biso   1.000  C
  C3       1.0000 0.02810  0.25464  0.72900  Biso   1.000  C
  C4       1.0000 0.97190  0.74536  0.27100  Biso   1.000  C
  H1       1.0000 0.50400  0.79200  0.42500  Biso   1.000  H
  H2       1.0000 0.49600  0.20800  0.57500  Biso   1.000  H
  H3       1.0000 0.34000  0.80300  0.32000  Biso   1.000  H
  H4       1.0000 0.66000  0.19700  0.68000  Biso   1.000  H
