data_image0
_cell_length_a       26.143
_cell_length_b       6.6868
_cell_length_c       9.823
_cell_angle_alpha    90
_cell_angle_beta     94.11
_cell_angle_gamma    90

_symmetry_space_group_name_H-M    "P 1"
_symmetry_int_tables_number       1

loop_
  _symmetry_equiv_pos_as_xyz
  'x, y, z'

loop_
  _atom_site_label
  _atom_site_occupancy
  _atom_site_fract_x
  _atom_site_fract_y
  _atom_site_fract_z
  _atom_site_thermal_displace_type
  _atom_site_B_iso_or_equiv
  _atom_site_type_symbol
  Cu1      1.0000 0.50000  0.18606  0.25000  Biso   1.000  Cu
  Cu2      1.0000 0.00000  0.68606  0.25000  Biso   1.000  Cu
  Cu3      1.0000 0.50000  0.81394  0.75000  Biso   1.000  Cu
  Cu4      1.0000 0.00000  0.31394  0.75000  Biso   1.000  Cu
  Cu5      1.0000 0.50000  0.50000  0.00000  Biso   1.000  Cu
  Cu6      1.0000 0.00000  0.00000  0.00000  Biso   1.000  Cu
  Cu7      1.0000 0.50000  0.50000  0.50000  Biso   1.000  Cu
  Cu8      1.0000 0.00000  0.00000  0.50000  Biso   1.000  Cu
  O1       1.0000 0.45010  0.38910  0.29250  Biso   1.000  O
  O2       1.0000 0.95010  0.88910  0.29250  Biso   1.000  O
  O3       1.0000 0.54990  0.38910  0.20750  Biso   1.000  O
  O4       1.0000 0.04990  0.88910  0.20750  Biso   1.000  O
  O5       1.0000 0.54990  0.61090  0.70750  Biso   1.000  O
  O6       1.0000 0.04990  0.11090  0.70750  Biso   1.000  O
  O7       1.0000 0.45010  0.61090  0.79250  Biso   1.000  O
  O8       1.0000 0.95010  0.11090  0.79250  Biso   1.000  O
  O9       1.0000 0.44464  0.59090  0.10980  Biso   1.000  O
  O10      1.0000 0.94464  0.09090  0.10980  Biso   1.000  O
  O11      1.0000 0.55536  0.59090  0.39020  Biso   1.000  O
  O12      1.0000 0.05536  0.09090  0.39020  Biso   1.000  O
  O13      1.0000 0.55536  0.40910  0.89020  Biso   1.000  O
  O14      1.0000 0.05536  0.90910  0.89020  Biso   1.000  O
  O15      1.0000 0.44464  0.40910  0.60980  Biso   1.000  O
  O16      1.0000 0.94464  0.90910  0.60980  Biso   1.000  O
  O17      1.0000 0.39102  0.08880  0.10260  Biso   1.000  O
  O18      1.0000 0.89102  0.58880  0.10260  Biso   1.000  O
  O19      1.0000 0.60898  0.08880  0.39740  Biso   1.000  O
  O20      1.0000 0.10898  0.58880  0.39740  Biso   1.000  O
  O21      1.0000 0.60898  0.91120  0.89740  Biso   1.000  O
  O22      1.0000 0.10898  0.41120  0.89740  Biso   1.000  O
  O23      1.0000 0.39102  0.91120  0.60260  Biso   1.000  O
  O24      1.0000 0.89102  0.41120  0.60260  Biso   1.000  O
  O25      1.0000 0.44991  0.97350  0.25950  Biso   1.000  O
  O26      1.0000 0.94991  0.47350  0.25950  Biso   1.000  O
  O27      1.0000 0.55009  0.97350  0.24050  Biso   1.000  O
  O28      1.0000 0.05009  0.47350  0.24050  Biso   1.000  O
  O29      1.0000 0.55009  0.02650  0.74050  Biso   1.000  O
  O30      1.0000 0.05009  0.52650  0.74050  Biso   1.000  O
  O31      1.0000 0.44991  0.02650  0.75950  Biso   1.000  O
  O32      1.0000 0.94991  0.52650  0.75950  Biso   1.000  O
  O33      1.0000 0.52830  0.76980  0.00330  Biso   1.000  O
  O34      1.0000 0.02830  0.26980  0.00330  Biso   1.000  O
  O35      1.0000 0.47170  0.76980  0.49670  Biso   1.000  O
  O36      1.0000 0.97170  0.26980  0.49670  Biso   1.000  O
  O37      1.0000 0.47170  0.23020  0.99670  Biso   1.000  O
  O38      1.0000 0.97170  0.73020  0.99670  Biso   1.000  O
  O39      1.0000 0.52830  0.23020  0.50330  Biso   1.000  O
  O40      1.0000 0.02830  0.73020  0.50330  Biso   1.000  O
  C1       1.0000 0.42950  0.52890  0.22080  Biso   1.000  C
  C2       1.0000 0.92950  0.02890  0.22080  Biso   1.000  C
  C3       1.0000 0.57050  0.52890  0.27920  Biso   1.000  C
  C4       1.0000 0.07050  0.02890  0.27920  Biso   1.000  C
  C5       1.0000 0.57050  0.47110  0.77920  Biso   1.000  C
  C6       1.0000 0.07050  0.97110  0.77920  Biso   1.000  C
  C7       1.0000 0.42950  0.47110  0.72080  Biso   1.000  C
  C8       1.0000 0.92950  0.97110  0.72080  Biso   1.000  C
  C9       1.0000 0.38190  0.61860  0.26990  Biso   1.000  C
  C10      1.0000 0.88190  0.11860  0.26990  Biso   1.000  C
  C11      1.0000 0.61810  0.61860  0.23010  Biso   1.000  C
  C12      1.0000 0.11810  0.11860  0.23010  Biso   1.000  C
  C13      1.0000 0.61810  0.38140  0.73010  Biso   1.000  C
  C14      1.0000 0.11810  0.88140  0.73010  Biso   1.000  C
  C15      1.0000 0.38190  0.38140  0.76990  Biso   1.000  C
  C16      1.0000 0.88190  0.88140  0.76990  Biso   1.000  C
  C17      1.0000 0.34900  0.49690  0.33720  Biso   1.000  C
  C18      1.0000 0.84900  0.99690  0.33720  Biso   1.000  C
  C19      1.0000 0.65100  0.49690  0.16280  Biso   1.000  C
  C20      1.0000 0.15100  0.99690  0.16280  Biso   1.000  C
  C21      1.0000 0.65100  0.50310  0.66280  Biso   1.000  C
  C22      1.0000 0.15100  0.00310  0.66280  Biso   1.000  C
  C23      1.0000 0.34900  0.50310  0.83720  Biso   1.000  C
  C24      1.0000 0.84900  0.00310  0.83720  Biso   1.000  C
  H1       1.0000 0.35850  0.36540  0.35710  Biso   1.000  H
  H2       1.0000 0.85850  0.86540  0.35710  Biso   1.000  H
  H3       1.0000 0.64150  0.36540  0.14290  Biso   1.000  H
  H4       1.0000 0.14150  0.86540  0.14290  Biso   1.000  H
  H5       1.0000 0.64150  0.63460  0.64290  Biso   1.000  H
  H6       1.0000 0.14150  0.13460  0.64290  Biso   1.000  H
  H7       1.0000 0.35850  0.63460  0.85710  Biso   1.000  H
  H8       1.0000 0.85850  0.13460  0.85710  Biso   1.000  H
  C25      1.0000 0.30240  0.56740  0.37560  Biso   1.000  C
  C26      1.0000 0.80240  0.06740  0.37560  Biso   1.000  C
  C27      1.0000 0.69760  0.56740  0.12440  Biso   1.000  C
  C28      1.0000 0.19760  0.06740  0.12440  Biso   1.000  C
  C29      1.0000 0.69760  0.43260  0.62440  Biso   1.000  C
  C30      1.0000 0.19760  0.93260  0.62440  Biso   1.000  C
  C31      1.0000 0.30240  0.43260  0.87560  Biso   1.000  C
  C32      1.0000 0.80240  0.93260  0.87560  Biso   1.000  C
  H9       1.0000 0.28100  0.48500  0.42230  Biso   1.000  H
  H10      1.0000 0.78100  0.98500  0.42230  Biso   1.000  H
  H11      1.0000 0.71900  0.48500  0.07770  Biso   1.000  H
  H12      1.0000 0.21900  0.98500  0.07770  Biso   1.000  H
  H13      1.0000 0.71900  0.51500  0.57770  Biso   1.000  H
  H14      1.0000 0.21900  0.01500  0.57770  Biso   1.000  H
  H15      1.0000 0.28100  0.51500  0.92230  Biso   1.000  H
  H16      1.0000 0.78100  0.01500  0.92230  Biso   1.000  H
  C33      1.0000 0.28790  0.76150  0.34360  Biso   1.000  C
  C34      1.0000 0.78790  0.26150  0.34360  Biso   1.000  C
  C35      1.0000 0.71210  0.76150  0.15640  Biso   1.000  C
  C36      1.0000 0.21210  0.26150  0.15640  Biso   1.000  C
  C37      1.0000 0.71210  0.23850  0.65640  Biso   1.000  C
  C38      1.0000 0.21210  0.73850  0.65640  Biso   1.000  C
  C39      1.0000 0.28790  0.23850  0.84360  Biso   1.000  C
  C40      1.0000 0.78790  0.73850  0.84360  Biso   1.000  C
  H17      1.0000 0.25580  0.80700  0.36460  Biso   1.000  H
  H18      1.0000 0.75580  0.30700  0.36460  Biso   1.000  H
  H19      1.0000 0.74420  0.80700  0.13540  Biso   1.000  H
  H20      1.0000 0.24420  0.30700  0.13540  Biso   1.000  H
  H21      1.0000 0.74420  0.19300  0.63540  Biso   1.000  H
  H22      1.0000 0.24420  0.69300  0.63540  Biso   1.000  H
  H23      1.0000 0.25580  0.19300  0.86460  Biso   1.000  H
  H24      1.0000 0.75580  0.69300  0.86460  Biso   1.000  H
  C41      1.0000 0.32060  0.88940  0.28050  Biso   1.000  C
  C42      1.0000 0.82060  0.38940  0.28050  Biso   1.000  C
  C43      1.0000 0.67940  0.88940  0.21950  Biso   1.000  C
  C44      1.0000 0.17940  0.38940  0.21950  Biso   1.000  C
  C45      1.0000 0.67940  0.11060  0.71950  Biso   1.000  C
  C46      1.0000 0.17940  0.61060  0.71950  Biso   1.000  C
  C47      1.0000 0.32060  0.11060  0.78050  Biso   1.000  C
  C48      1.0000 0.82060  0.61060  0.78050  Biso   1.000  C
  H25      1.0000 0.31080  0.02080  0.26170  Biso   1.000  H
  H26      1.0000 0.81080  0.52080  0.26170  Biso   1.000  H
  H27      1.0000 0.68920  0.02080  0.23830  Biso   1.000  H
  H28      1.0000 0.18920  0.52080  0.23830  Biso   1.000  H
  H29      1.0000 0.68920  0.97920  0.73830  Biso   1.000  H
  H30      1.0000 0.18920  0.47920  0.73830  Biso   1.000  H
  H31      1.0000 0.31080  0.97920  0.76170  Biso   1.000  H
  H32      1.0000 0.81080  0.47920  0.76170  Biso   1.000  H
  C49      1.0000 0.36890  0.81970  0.24500  Biso   1.000  C
  C50      1.0000 0.86890  0.31970  0.24500  Biso   1.000  C
  C51      1.0000 0.63110  0.81970  0.25500  Biso   1.000  C
  C52      1.0000 0.13110  0.31970  0.25500  Biso   1.000  C
  C53      1.0000 0.63110  0.18030  0.75500  Biso   1.000  C
  C54      1.0000 0.13110  0.68030  0.75500  Biso   1.000  C
  C55      1.0000 0.36890  0.18030  0.74500  Biso   1.000  C
  C56      1.0000 0.86890  0.68030  0.74500  Biso   1.000  C
  C57      1.0000 0.40530  0.97160  0.19480  Biso   1.000  C
  C58      1.0000 0.90530  0.47160  0.19480  Biso   1.000  C
  C59      1.0000 0.59470  0.97160  0.30520  Biso   1.000  C
  C60      1.0000 0.09470  0.47160  0.30520  Biso   1.000  C
  C61      1.0000 0.59470  0.02840  0.80520  Biso   1.000  C
  C62      1.0000 0.09470  0.52840  0.80520  Biso   1.000  C
  C63      1.0000 0.40530  0.02840  0.69480  Biso   1.000  C
  C64      1.0000 0.90530  0.52840  0.69480  Biso   1.000  C
  H33      1.0000 0.53000  0.82000  0.06300  Biso   1.000  H
  H34      1.0000 0.03000  0.32000  0.06300  Biso   1.000  H
  H35      1.0000 0.47000  0.82000  0.43700  Biso   1.000  H
  H36      1.0000 0.97000  0.32000  0.43700  Biso   1.000  H
  H37      1.0000 0.47000  0.18000  0.93700  Biso   1.000  H
  H38      1.0000 0.97000  0.68000  0.93700  Biso   1.000  H
  H39      1.0000 0.53000  0.18000  0.56300  Biso   1.000  H
  H40      1.0000 0.03000  0.68000  0.56300  Biso   1.000  H
  H41      1.0000 0.55500  0.78900  0.97100  Biso   1.000  H
  H42      1.0000 0.05500  0.28900  0.97100  Biso   1.000  H
  H43      1.0000 0.44500  0.78900  0.52900  Biso   1.000  H
  H44      1.0000 0.94500  0.28900  0.52900  Biso   1.000  H
  H45      1.0000 0.44500  0.21100  0.02900  Biso   1.000  H
  H46      1.0000 0.94500  0.71100  0.02900  Biso   1.000  H
  H47      1.0000 0.55500  0.21100  0.47100  Biso   1.000  H
  H48      1.0000 0.05500  0.71100  0.47100  Biso   1.000  H
