data_image0
_cell_length_a       26.1
_cell_length_b       9.79
_cell_length_c       6.67
_cell_angle_alpha    90
_cell_angle_beta     90
_cell_angle_gamma    93.9

_symmetry_space_group_name_H-M    "P 1"
_symmetry_int_tables_number       1

loop_
  _symmetry_equiv_pos_as_xyz
  'x, y, z'

loop_
  _atom_site_label
  _atom_site_occupancy
  _atom_site_fract_x
  _atom_site_fract_y
  _atom_site_fract_z
  _atom_site_thermal_displace_type
  _atom_site_B_iso_or_equiv
  _atom_site_type_symbol
  Cu1      1.0000 0.00000  0.50000  0.50000  Biso   1.000  Cu
  Cu2      1.0000 0.50000  0.50000  0.00000  Biso   1.000  Cu
  Cu3      1.0000 0.00000  0.00000  0.50000  Biso   1.000  Cu
  Cu4      1.0000 0.50000  0.00000  0.00000  Biso   1.000  Cu
  Cu5      1.0000 0.00000  0.75000  0.81400  Biso   1.000  Cu
  Cu6      1.0000 0.50000  0.75000  0.31400  Biso   1.000  Cu
  Cu7      1.0000 0.00000  0.25000  0.18600  Biso   1.000  Cu
  Cu8      1.0000 0.50000  0.25000  0.68600  Biso   1.000  Cu
  C1       1.0000 0.11830  0.73030  0.37920  Biso   1.000  C
  C2       1.0000 0.61830  0.73030  0.87920  Biso   1.000  C
  C3       1.0000 0.88170  0.76970  0.37920  Biso   1.000  C
  C4       1.0000 0.38170  0.76970  0.87920  Biso   1.000  C
  C5       1.0000 0.88170  0.26970  0.62080  Biso   1.000  C
  C6       1.0000 0.38170  0.26970  0.12080  Biso   1.000  C
  C7       1.0000 0.11830  0.23030  0.62080  Biso   1.000  C
  C8       1.0000 0.61830  0.23030  0.12080  Biso   1.000  C
  C9       1.0000 0.15120  0.66340  0.50320  Biso   1.000  C
  C10      1.0000 0.65120  0.66340  0.00320  Biso   1.000  C
  C11      1.0000 0.84880  0.83660  0.50320  Biso   1.000  C
  C12      1.0000 0.34880  0.83660  0.00320  Biso   1.000  C
  C13      1.0000 0.84880  0.33660  0.49680  Biso   1.000  C
  C14      1.0000 0.34880  0.33660  0.99680  Biso   1.000  C
  C15      1.0000 0.15120  0.16340  0.49680  Biso   1.000  C
  C16      1.0000 0.65120  0.16340  0.99680  Biso   1.000  C
  C17      1.0000 0.19810  0.62510  0.43220  Biso   1.000  C
  C18      1.0000 0.69810  0.62510  0.93220  Biso   1.000  C
  C19      1.0000 0.80190  0.87490  0.43220  Biso   1.000  C
  C20      1.0000 0.30190  0.87490  0.93220  Biso   1.000  C
  C21      1.0000 0.80190  0.37490  0.56780  Biso   1.000  C
  C22      1.0000 0.30190  0.37490  0.06780  Biso   1.000  C
  C23      1.0000 0.19810  0.12510  0.56780  Biso   1.000  C
  C24      1.0000 0.69810  0.12510  0.06780  Biso   1.000  C
  C25      1.0000 0.21230  0.65670  0.23810  Biso   1.000  C
  C26      1.0000 0.71230  0.65670  0.73810  Biso   1.000  C
  C27      1.0000 0.78770  0.84330  0.23810  Biso   1.000  C
  C28      1.0000 0.28770  0.84330  0.73810  Biso   1.000  C
  C29      1.0000 0.78770  0.34330  0.76190  Biso   1.000  C
  C30      1.0000 0.28770  0.34330  0.26190  Biso   1.000  C
  C31      1.0000 0.21230  0.15670  0.76190  Biso   1.000  C
  C32      1.0000 0.71230  0.15670  0.26190  Biso   1.000  C
  C33      1.0000 0.17950  0.71940  0.11220  Biso   1.000  C
  C34      1.0000 0.67950  0.71940  0.61220  Biso   1.000  C
  C35      1.0000 0.82050  0.78060  0.11220  Biso   1.000  C
  C36      1.0000 0.32050  0.78060  0.61220  Biso   1.000  C
  C37      1.0000 0.82050  0.28060  0.88780  Biso   1.000  C
  C38      1.0000 0.32050  0.28060  0.38780  Biso   1.000  C
  C39      1.0000 0.17950  0.21940  0.88780  Biso   1.000  C
  C40      1.0000 0.67950  0.21940  0.38780  Biso   1.000  C
  C41      1.0000 0.13170  0.75560  0.17820  Biso   1.000  C
  C42      1.0000 0.63170  0.75560  0.67820  Biso   1.000  C
  C43      1.0000 0.86830  0.74440  0.17820  Biso   1.000  C
  C44      1.0000 0.36830  0.74440  0.67820  Biso   1.000  C
  C45      1.0000 0.86830  0.24440  0.82180  Biso   1.000  C
  C46      1.0000 0.36830  0.24440  0.32180  Biso   1.000  C
  C47      1.0000 0.13170  0.25560  0.82180  Biso   1.000  C
  C48      1.0000 0.63170  0.25560  0.32180  Biso   1.000  C
  C49      1.0000 0.07030  0.78050  0.47110  Biso   1.000  C
  C50      1.0000 0.57030  0.78050  0.97110  Biso   1.000  C
  C51      1.0000 0.92970  0.71950  0.47110  Biso   1.000  C
  C52      1.0000 0.42970  0.71950  0.97110  Biso   1.000  C
  C53      1.0000 0.92970  0.21950  0.52890  Biso   1.000  C
  C54      1.0000 0.42970  0.21950  0.02890  Biso   1.000  C
  C55      1.0000 0.07030  0.28050  0.52890  Biso   1.000  C
  C56      1.0000 0.57030  0.28050  0.02890  Biso   1.000  C
  C57      1.0000 0.09450  0.80610  0.02650  Biso   1.000  C
  C58      1.0000 0.59450  0.80610  0.52650  Biso   1.000  C
  C59      1.0000 0.90550  0.69390  0.02650  Biso   1.000  C
  C60      1.0000 0.40550  0.69390  0.52650  Biso   1.000  C
  C61      1.0000 0.90550  0.19390  0.97350  Biso   1.000  C
  C62      1.0000 0.40550  0.19390  0.47350  Biso   1.000  C
  C63      1.0000 0.09450  0.30610  0.97350  Biso   1.000  C
  C64      1.0000 0.59450  0.30610  0.47350  Biso   1.000  C
  H1       1.0000 0.11820  0.65190  0.57710  Biso   1.000  H
  H2       1.0000 0.61820  0.65190  0.07710  Biso   1.000  H
  H3       1.0000 0.88180  0.84810  0.57710  Biso   1.000  H
  H4       1.0000 0.38180  0.84810  0.07710  Biso   1.000  H
  H5       1.0000 0.88180  0.34810  0.42290  Biso   1.000  H
  H6       1.0000 0.38180  0.34810  0.92290  Biso   1.000  H
  H7       1.0000 0.11820  0.15190  0.42290  Biso   1.000  H
  H8       1.0000 0.61820  0.15190  0.92290  Biso   1.000  H
  H9       1.0000 0.22180  0.57640  0.51850  Biso   1.000  H
  H10      1.0000 0.72180  0.57640  0.01850  Biso   1.000  H
  H11      1.0000 0.77820  0.92360  0.51850  Biso   1.000  H
  H12      1.0000 0.27820  0.92360  0.01850  Biso   1.000  H
  H13      1.0000 0.77820  0.42360  0.48150  Biso   1.000  H
  H14      1.0000 0.27820  0.42360  0.98150  Biso   1.000  H
  H15      1.0000 0.22180  0.07640  0.48150  Biso   1.000  H
  H16      1.0000 0.72180  0.07640  0.98150  Biso   1.000  H
  H17      1.0000 0.24640  0.63080  0.18720  Biso   1.000  H
  H18      1.0000 0.74640  0.63080  0.68720  Biso   1.000  H
  H19      1.0000 0.75360  0.86920  0.18720  Biso   1.000  H
  H20      1.0000 0.25360  0.86920  0.68720  Biso   1.000  H
  H21      1.0000 0.75360  0.36920  0.81280  Biso   1.000  H
  H22      1.0000 0.25360  0.36920  0.31280  Biso   1.000  H
  H23      1.0000 0.24640  0.13080  0.81280  Biso   1.000  H
  H24      1.0000 0.74640  0.13080  0.31280  Biso   1.000  H
  H25      1.0000 0.19010  0.73980  0.97310  Biso   1.000  H
  H26      1.0000 0.69010  0.73980  0.47310  Biso   1.000  H
  H27      1.0000 0.80990  0.76020  0.97310  Biso   1.000  H
  H28      1.0000 0.30990  0.76020  0.47310  Biso   1.000  H
  H29      1.0000 0.80990  0.26020  0.02690  Biso   1.000  H
  H30      1.0000 0.30990  0.26020  0.52690  Biso   1.000  H
  H31      1.0000 0.19010  0.23980  0.02690  Biso   1.000  H
  H32      1.0000 0.69010  0.23980  0.52690  Biso   1.000  H
  O1       1.0000 0.97130  0.49460  0.77170  Biso   1.000  O
  O2       1.0000 0.47130  0.49460  0.27170  Biso   1.000  O
  O3       1.0000 0.02870  0.00540  0.77170  Biso   1.000  O
  O4       1.0000 0.52870  0.00540  0.27170  Biso   1.000  O
  O5       1.0000 0.02870  0.50540  0.22830  Biso   1.000  O
  O6       1.0000 0.52870  0.50540  0.72830  Biso   1.000  O
  O7       1.0000 0.97130  0.99460  0.22830  Biso   1.000  O
  O8       1.0000 0.47130  0.99460  0.72830  Biso   1.000  O
  O9       1.0000 0.05020  0.70800  0.61140  Biso   1.000  O
  O10      1.0000 0.55020  0.70800  0.11140  Biso   1.000  O
  O11      1.0000 0.94980  0.79200  0.61140  Biso   1.000  O
  O12      1.0000 0.44980  0.79200  0.11140  Biso   1.000  O
  O13      1.0000 0.94980  0.29200  0.38860  Biso   1.000  O
  O14      1.0000 0.44980  0.29200  0.88860  Biso   1.000  O
  O15      1.0000 0.05020  0.20800  0.38860  Biso   1.000  O
  O16      1.0000 0.55020  0.20800  0.88860  Biso   1.000  O
  O17      1.0000 0.05560  0.89060  0.40730  Biso   1.000  O
  O18      1.0000 0.55560  0.89060  0.90730  Biso   1.000  O
  O19      1.0000 0.94440  0.60940  0.40730  Biso   1.000  O
  O20      1.0000 0.44440  0.60940  0.90730  Biso   1.000  O
  O21      1.0000 0.94440  0.10940  0.59270  Biso   1.000  O
  O22      1.0000 0.44440  0.10940  0.09270  Biso   1.000  O
  O23      1.0000 0.05560  0.39060  0.59270  Biso   1.000  O
  O24      1.0000 0.55560  0.39060  0.09270  Biso   1.000  O
  O25      1.0000 0.05020  0.74080  0.02540  Biso   1.000  O
  O26      1.0000 0.55020  0.74080  0.52540  Biso   1.000  O
  O27      1.0000 0.94980  0.75920  0.02540  Biso   1.000  O
  O28      1.0000 0.44980  0.75920  0.52540  Biso   1.000  O
  O29      1.0000 0.94980  0.25920  0.97460  Biso   1.000  O
  O30      1.0000 0.44980  0.25920  0.47460  Biso   1.000  O
  O31      1.0000 0.05020  0.24080  0.97460  Biso   1.000  O
  O32      1.0000 0.55020  0.24080  0.47460  Biso   1.000  O
  O33      1.0000 0.10890  0.89840  0.91130  Biso   1.000  O
  O34      1.0000 0.60890  0.89840  0.41130  Biso   1.000  O
  O35      1.0000 0.89110  0.60160  0.91130  Biso   1.000  O
  O36      1.0000 0.39110  0.60160  0.41130  Biso   1.000  O
  O37      1.0000 0.89110  0.10160  0.08870  Biso   1.000  O
  O38      1.0000 0.39110  0.10160  0.58870  Biso   1.000  O
  O39      1.0000 0.10890  0.39840  0.08870  Biso   1.000  O
  O40      1.0000 0.60890  0.39840  0.58870  Biso   1.000  O
