data_image0
_cell_length_a       5.09
_cell_length_b       7.48
_cell_length_c       9.067
_cell_angle_alpha    75.89
_cell_angle_beta     84.94
_cell_angle_gamma    71.96

_symmetry_space_group_name_H-M    "P 1"
_symmetry_int_tables_number       1

loop_
  _symmetry_equiv_pos_as_xyz
  'x, y, z'

loop_
  _atom_site_label
  _atom_site_occupancy
  _atom_site_fract_x
  _atom_site_fract_y
  _atom_site_fract_z
  _atom_site_thermal_displace_type
  _atom_site_B_iso_or_equiv
  _atom_site_type_symbol
  Cu1      1.0000 0.50000  0.50000  0.50000  Biso   1.000  Cu
  O1       1.0000 0.83070  0.45790  0.37310  Biso   1.000  O
  O2       1.0000 0.16930  0.54210  0.62690  Biso   1.000  O
  O3       1.0000 0.27330  0.28430  0.38360  Biso   1.000  O
  O4       1.0000 0.72670  0.71570  0.61640  Biso   1.000  O
  N1       1.0000 0.71840  0.27050  0.64050  Biso   1.000  N
  N2       1.0000 0.28160  0.72950  0.35950  Biso   1.000  N
  C1       1.0000 0.03650  0.32060  0.43510  Biso   1.000  C
  C2       1.0000 0.96350  0.67940  0.56490  Biso   1.000  C
  C3       1.0000 0.97270  0.19970  0.58560  Biso   1.000  C
  C4       1.0000 0.02730  0.80030  0.41440  Biso   1.000  C
  C5       1.0000 0.15580  0.03010  0.66030  Biso   1.000  C
  C6       1.0000 0.84420  0.96990  0.33970  Biso   1.000  C
  H1       1.0000 0.33610  0.98300  0.62010  Biso   1.000  H
  H2       1.0000 0.66390  0.01700  0.37990  Biso   1.000  H
  C7       1.0000 0.06990  0.93000  0.79580  Biso   1.000  C
  C8       1.0000 0.93010  0.07000  0.20420  Biso   1.000  C
  H3       1.0000 0.18960  0.81100  0.84890  Biso   1.000  H
  H4       1.0000 0.81040  0.18900  0.15110  Biso   1.000  H
  C9       1.0000 0.80910  0.00470  0.85280  Biso   1.000  C
  C10      1.0000 0.19090  0.99530  0.14720  Biso   1.000  C
  H5       1.0000 0.74780  0.93810  0.94590  Biso   1.000  H
  H6       1.0000 0.25220  0.06190  0.05410  Biso   1.000  H
  C11      1.0000 0.63890  0.17660  0.77350  Biso   1.000  C
  C12      1.0000 0.36110  0.82340  0.22650  Biso   1.000  C
  H7       1.0000 0.46110  0.22990  0.81410  Biso   1.000  H
  H8       1.0000 0.53890  0.77010  0.18590  Biso   1.000  H
  O5       1.0000 0.26730  0.44530  0.05900  Biso   1.000  O
  O6       1.0000 0.73270  0.55470  0.94100  Biso   1.000  O
  H9       1.0000 0.24100  0.41500  0.16300  Biso   1.000  H
  H10      1.0000 0.75900  0.58500  0.83700  Biso   1.000  H
  H11      1.0000 0.41400  0.48800  0.01200  Biso   1.000  H
  H12      1.0000 0.58600  0.51200  0.98800  Biso   1.000  H
  H13      1.0000 0.08300  0.51000  0.03100  Biso   1.000  H
  H14      1.0000 0.91700  0.49000  0.96900  Biso   1.000  H
