data_image0
_cell_length_a       5.1137
_cell_length_b       7.6268
_cell_length_c       9.2426
_cell_angle_alpha    75.1
_cell_angle_beta     84.62
_cell_angle_gamma    71.47

_symmetry_space_group_name_H-M    "P 1"
_symmetry_int_tables_number       1

loop_
  _symmetry_equiv_pos_as_xyz
  'x, y, z'

loop_
  _atom_site_label
  _atom_site_occupancy
  _atom_site_fract_x
  _atom_site_fract_y
  _atom_site_fract_z
  _atom_site_thermal_displace_type
  _atom_site_B_iso_or_equiv
  _atom_site_type_symbol
  Cu1      1.0000 0.00000  0.00000  0.00000  Biso   1.000  Cu
  N1       1.0000 0.77990  0.23070  0.86170  Biso   1.000  N
  N2       1.0000 0.22010  0.76930  0.13830  Biso   1.000  N
  O1       1.0000 0.22960  0.21380  0.11650  Biso   1.000  O
  O2       1.0000 0.77040  0.78620  0.88350  Biso   1.000  O
  O3       1.0000 0.66990  0.04100  0.12530  Biso   1.000  O
  O4       1.0000 0.33010  0.95900  0.87470  Biso   1.000  O
  C1       1.0000 0.46600  0.17880  0.06470  Biso   1.000  C
  C2       1.0000 0.53400  0.82120  0.93530  Biso   1.000  C
  C3       1.0000 0.52840  0.29980  0.91650  Biso   1.000  C
  C4       1.0000 0.47160  0.70020  0.08350  Biso   1.000  C
  C5       1.0000 0.34280  0.46800  0.84240  Biso   1.000  C
  C6       1.0000 0.65720  0.53200  0.15760  Biso   1.000  C
  H1       1.0000 0.16670  0.51300  0.88140  Biso   1.000  H
  H2       1.0000 0.83330  0.48700  0.11860  Biso   1.000  H
  C7       1.0000 0.42660  0.56770  0.70820  Biso   1.000  C
  C8       1.0000 0.57340  0.43230  0.29180  Biso   1.000  C
  H3       1.0000 0.30750  0.68280  0.65720  Biso   1.000  H
  H4       1.0000 0.69250  0.31720  0.34280  Biso   1.000  H
  C9       1.0000 0.68680  0.49630  0.65010  Biso   1.000  C
  C10      1.0000 0.31320  0.50370  0.34990  Biso   1.000  C
  H5       1.0000 0.74510  0.56200  0.56020  Biso   1.000  H
  H6       1.0000 0.25490  0.43800  0.43980  Biso   1.000  H
  C11      1.0000 0.85760  0.32530  0.72870  Biso   1.000  C
  C12      1.0000 0.14240  0.67470  0.27130  Biso   1.000  C
  H7       1.0000 0.03080  0.27360  0.68910  Biso   1.000  H
  H8       1.0000 0.96920  0.72640  0.31090  Biso   1.000  H
  O5       1.0000 0.23960  0.04260  0.43880  Biso   1.000  O
  O6       1.0000 0.76040  0.95740  0.56120  Biso   1.000  O
