data_image0
_cell_length_a       5.0848
_cell_length_b       7.5147
_cell_length_c       9.0842
_cell_angle_alpha    75.7077
_cell_angle_beta     84.9574
_cell_angle_gamma    72.0435

_symmetry_space_group_name_H-M    "P 1"
_symmetry_int_tables_number       1

loop_
  _symmetry_equiv_pos_as_xyz
  'x, y, z'

loop_
  _atom_site_label
  _atom_site_occupancy
  _atom_site_fract_x
  _atom_site_fract_y
  _atom_site_fract_z
  _atom_site_thermal_displace_type
  _atom_site_B_iso_or_equiv
  _atom_site_type_symbol
  Cu1      1.0000 0.50000  0.50000  0.50000  Biso   1.000  Cu
  N1       1.0000 0.71860  0.27040  0.64019  Biso   1.000  N
  N2       1.0000 0.28140  0.72960  0.35981  Biso   1.000  N
  C1       1.0000 0.63810  0.17680  0.77330  Biso   1.000  C
  C2       1.0000 0.36190  0.82320  0.22670  Biso   1.000  C
  H1       1.0000 0.46038  0.22966  0.81385  Biso   1.000  H
  H2       1.0000 0.53962  0.77034  0.18615  Biso   1.000  H
  C3       1.0000 0.81020  0.00440  0.85250  Biso   1.000  C
  C4       1.0000 0.18980  0.99560  0.14750  Biso   1.000  C
  H3       1.0000 0.74947  0.93783  0.94570  Biso   1.000  H
  H4       1.0000 0.25053  0.06217  0.05430  Biso   1.000  H
  C5       1.0000 0.06980  0.92990  0.79540  Biso   1.000  C
  C6       1.0000 0.93020  0.07010  0.20460  Biso   1.000  C
  H5       1.0000 0.18897  0.81085  0.84823  Biso   1.000  H
  H6       1.0000 0.81103  0.18915  0.15177  Biso   1.000  H
  C7       1.0000 0.15610  0.03020  0.66000  Biso   1.000  C
  C8       1.0000 0.84390  0.96980  0.34000  Biso   1.000  C
  H7       1.0000 0.33633  0.98352  0.61974  Biso   1.000  H
  H8       1.0000 0.66367  0.01648  0.38026  Biso   1.000  H
  C9       1.0000 0.97280  0.19950  0.58540  Biso   1.000  C
  C10      1.0000 0.02720  0.80050  0.41460  Biso   1.000  C
  C11      1.0000 0.03570  0.32070  0.43560  Biso   1.000  C
  C12      1.0000 0.96430  0.67930  0.56440  Biso   1.000  C
  O1       1.0000 0.83060  0.45798  0.37331  Biso   1.000  O
  O2       1.0000 0.16940  0.54202  0.62669  Biso   1.000  O
  O3       1.0000 0.27380  0.28440  0.38351  Biso   1.000  O
  O4       1.0000 0.72620  0.71560  0.61649  Biso   1.000  O
  O5       1.0000 0.26680  0.44680  0.05920  Biso   1.000  O
  O6       1.0000 0.73320  0.55320  0.94080  Biso   1.000  O
  H9       1.0000 0.26500  0.41900  0.15430  Biso   1.000  H
  H10      1.0000 0.73500  0.58100  0.84570  Biso   1.000  H
  H11      1.0000 0.11400  0.51900  0.02300  Biso   1.000  H
  H12      1.0000 0.88600  0.48100  0.97700  Biso   1.000  H
  H13      1.0000 0.39400  0.49200  0.02100  Biso   1.000  H
  H14      1.0000 0.60600  0.50800  0.97900  Biso   1.000  H
