data_image0
_cell_length_a       10.7197
_cell_length_b       10.7197
_cell_length_c       23.0839
_cell_angle_alpha    90
_cell_angle_beta     90
_cell_angle_gamma    120

_symmetry_space_group_name_H-M    "P 1"
_symmetry_int_tables_number       1

loop_
  _symmetry_equiv_pos_as_xyz
  'x, y, z'

loop_
  _atom_site_label
  _atom_site_occupancy
  _atom_site_fract_x
  _atom_site_fract_y
  _atom_site_fract_z
  _atom_site_thermal_displace_type
  _atom_site_B_iso_or_equiv
  _atom_site_type_symbol
  Cu1      1.0000 0.57166  0.57166  0.50000  Biso   1.000  Cu
  Cu2      1.0000 0.42834  0.00000  0.83333  Biso   1.000  Cu
  Cu3      1.0000 0.00000  0.42834  0.16667  Biso   1.000  Cu
  S1       1.0000 0.40381  0.24857  0.52859  Biso   1.000  S
  S2       1.0000 0.75143  0.15524  0.86192  Biso   1.000  S
  S3       1.0000 0.84476  0.59619  0.19526  Biso   1.000  S
  S4       1.0000 0.15524  0.75143  0.13808  Biso   1.000  S
  S5       1.0000 0.59619  0.84476  0.80474  Biso   1.000  S
  S6       1.0000 0.24857  0.40381  0.47141  Biso   1.000  S
  S7       1.0000 0.42597  0.66866  0.61371  Biso   1.000  S
  S8       1.0000 0.33134  0.75731  0.94704  Biso   1.000  S
  S9       1.0000 0.24269  0.57403  0.28038  Biso   1.000  S
  S10      1.0000 0.75731  0.33134  0.05296  Biso   1.000  S
  S11      1.0000 0.57403  0.24269  0.71962  Biso   1.000  S
  S12      1.0000 0.66866  0.42597  0.38629  Biso   1.000  S
  O1       1.0000 0.48770  0.40090  0.55363  Biso   1.000  O
  O2       1.0000 0.59910  0.08680  0.88696  Biso   1.000  O
  O3       1.0000 0.91320  0.51230  0.22030  Biso   1.000  O
  O4       1.0000 0.08680  0.59910  0.11304  Biso   1.000  O
  O5       1.0000 0.51230  0.91320  0.77970  Biso   1.000  O
  O6       1.0000 0.40090  0.48770  0.44637  Biso   1.000  O
  N1       1.0000 0.74490  0.66210  0.55279  Biso   1.000  N
  N2       1.0000 0.33790  0.08280  0.88612  Biso   1.000  N
  N3       1.0000 0.91720  0.25510  0.21946  Biso   1.000  N
  N4       1.0000 0.08280  0.33790  0.11388  Biso   1.000  N
  N5       1.0000 0.25510  0.91720  0.78054  Biso   1.000  N
  N6       1.0000 0.66210  0.74490  0.44721  Biso   1.000  N
  O7       1.0000 0.45010  0.66790  0.54975  Biso   1.000  O
  O8       1.0000 0.33210  0.78220  0.88308  Biso   1.000  O
  O9       1.0000 0.21780  0.54990  0.21642  Biso   1.000  O
  O10      1.0000 0.78220  0.33210  0.11692  Biso   1.000  O
  O11      1.0000 0.54990  0.21780  0.78358  Biso   1.000  O
  O12      1.0000 0.66790  0.45010  0.45025  Biso   1.000  O
  C1       1.0000 0.78500  0.78880  0.57828  Biso   1.000  C
  C2       1.0000 0.21120  0.99620  0.91161  Biso   1.000  C
  C3       1.0000 0.00380  0.21500  0.24495  Biso   1.000  C
  C4       1.0000 0.99620  0.21120  0.08839  Biso   1.000  C
  C5       1.0000 0.21500  0.00380  0.75505  Biso   1.000  C
  C6       1.0000 0.78880  0.78500  0.42172  Biso   1.000  C
  H1       1.0000 0.74390  0.84250  0.56560  Biso   1.000  H
  H2       1.0000 0.15750  0.90140  0.89893  Biso   1.000  H
  H3       1.0000 0.09860  0.25610  0.23227  Biso   1.000  H
  H4       1.0000 0.90140  0.15750  0.10107  Biso   1.000  H
  H5       1.0000 0.25610  0.09860  0.76773  Biso   1.000  H
  H6       1.0000 0.84250  0.74390  0.43440  Biso   1.000  H
  C7       1.0000 0.91340  0.63870  0.61237  Biso   1.000  C
  C8       1.0000 0.36130  0.27470  0.94570  Biso   1.000  C
  C9       1.0000 0.72530  0.08660  0.27904  Biso   1.000  C
  C10      1.0000 0.27470  0.36130  0.05430  Biso   1.000  C
  C11      1.0000 0.08660  0.72530  0.72096  Biso   1.000  C
  C12      1.0000 0.63870  0.91340  0.38763  Biso   1.000  C
  H7       1.0000 0.95870  0.58690  0.62220  Biso   1.000  H
  H8       1.0000 0.41310  0.37180  0.95553  Biso   1.000  H
  H9       1.0000 0.62820  0.04130  0.28887  Biso   1.000  H
  H10      1.0000 0.37180  0.41310  0.04447  Biso   1.000  H
  H11      1.0000 0.04130  0.62820  0.71113  Biso   1.000  H
  H12      1.0000 0.58690  0.95870  0.37780  Biso   1.000  H
  C13      1.0000 0.94820  0.76640  0.64175  Biso   1.000  C
  C14      1.0000 0.23360  0.18180  0.97508  Biso   1.000  C
  C15      1.0000 0.81820  0.05180  0.30842  Biso   1.000  C
  C16      1.0000 0.18180  0.23360  0.02492  Biso   1.000  C
  C17      1.0000 0.05180  0.81820  0.69158  Biso   1.000  C
  C18      1.0000 0.76640  0.94820  0.35825  Biso   1.000  C
  C19      1.0000 0.81190  0.59010  0.56884  Biso   1.000  C
  C20      1.0000 0.40990  0.22180  0.90217  Biso   1.000  C
  C21      1.0000 0.77820  0.18810  0.23551  Biso   1.000  C
  C22      1.0000 0.22180  0.40990  0.09783  Biso   1.000  C
  C23      1.0000 0.18810  0.77820  0.76449  Biso   1.000  C
  C24      1.0000 0.59010  0.81190  0.43116  Biso   1.000  C
  H13      1.0000 0.78900  0.50460  0.55000  Biso   1.000  H
  H14      1.0000 0.49540  0.28440  0.88333  Biso   1.000  H
  H15      1.0000 0.71560  0.21100  0.21667  Biso   1.000  H
  H16      1.0000 0.28440  0.49540  0.11667  Biso   1.000  H
  H17      1.0000 0.21100  0.71560  0.78333  Biso   1.000  H
  H18      1.0000 0.50460  0.78900  0.45000  Biso   1.000  H
  C25      1.0000 0.88440  0.84280  0.62237  Biso   1.000  C
  C26      1.0000 0.15720  0.04160  0.95570  Biso   1.000  C
  C27      1.0000 0.95840  0.11560  0.28904  Biso   1.000  C
  C28      1.0000 0.04160  0.15720  0.04430  Biso   1.000  C
  C29      1.0000 0.11560  0.95840  0.71096  Biso   1.000  C
  C30      1.0000 0.84280  0.88440  0.37763  Biso   1.000  C
  H19      1.0000 0.90870  0.93090  0.63910  Biso   1.000  H
  H20      1.0000 0.06910  0.97780  0.97243  Biso   1.000  H
  H21      1.0000 0.02220  0.09130  0.30577  Biso   1.000  H
  H22      1.0000 0.97780  0.06910  0.02757  Biso   1.000  H
  H23      1.0000 0.09130  0.02220  0.69423  Biso   1.000  H
  H24      1.0000 0.93090  0.90870  0.36090  Biso   1.000  H
  C31      1.0000 0.26950  0.14900  0.58120  Biso   1.000  C
  C32      1.0000 0.85100  0.12050  0.91453  Biso   1.000  C
  C33      1.0000 0.87950  0.73050  0.24787  Biso   1.000  C
  C34      1.0000 0.12050  0.85100  0.08547  Biso   1.000  C
  C35      1.0000 0.73050  0.87950  0.75213  Biso   1.000  C
  C36      1.0000 0.14900  0.26950  0.41880  Biso   1.000  C
  H25      1.0000 0.31410  0.15900  0.61830  Biso   1.000  H
  H26      1.0000 0.84100  0.15510  0.95163  Biso   1.000  H
  H27      1.0000 0.84490  0.68590  0.28497  Biso   1.000  H
  H28      1.0000 0.15510  0.84100  0.04837  Biso   1.000  H
  H29      1.0000 0.68590  0.84490  0.71503  Biso   1.000  H
  H30      1.0000 0.15900  0.31410  0.38170  Biso   1.000  H
  H31      1.0000 0.21790  0.04920  0.57040  Biso   1.000  H
  H32      1.0000 0.95080  0.16870  0.90373  Biso   1.000  H
  H33      1.0000 0.83130  0.78210  0.23707  Biso   1.000  H
  H34      1.0000 0.16870  0.95080  0.09627  Biso   1.000  H
  H35      1.0000 0.78210  0.83130  0.76293  Biso   1.000  H
  H36      1.0000 0.04920  0.21790  0.42960  Biso   1.000  H
  H37      1.0000 0.20370  0.18500  0.58350  Biso   1.000  H
  H38      1.0000 0.81500  0.01870  0.91683  Biso   1.000  H
  H39      1.0000 0.98130  0.79630  0.25017  Biso   1.000  H
  H40      1.0000 0.01870  0.81500  0.08317  Biso   1.000  H
  H41      1.0000 0.79630  0.98130  0.74983  Biso   1.000  H
  H42      1.0000 0.18500  0.20370  0.41650  Biso   1.000  H
  C37      1.0000 0.51520  0.17210  0.53970  Biso   1.000  C
  C38      1.0000 0.82790  0.34310  0.87303  Biso   1.000  C
  C39      1.0000 0.65690  0.48480  0.20637  Biso   1.000  C
  C40      1.0000 0.34310  0.82790  0.12697  Biso   1.000  C
  C41      1.0000 0.48480  0.65690  0.79363  Biso   1.000  C
  C42      1.0000 0.17210  0.51520  0.46030  Biso   1.000  C
  H43      1.0000 0.60120  0.22320  0.51690  Biso   1.000  H
  H44      1.0000 0.77680  0.37800  0.85023  Biso   1.000  H
  H45      1.0000 0.62200  0.39880  0.18357  Biso   1.000  H
  H46      1.0000 0.37800  0.77680  0.14977  Biso   1.000  H
  H47      1.0000 0.39880  0.62200  0.81643  Biso   1.000  H
  H48      1.0000 0.22320  0.60120  0.48310  Biso   1.000  H
  H49      1.0000 0.46430  0.07270  0.52830  Biso   1.000  H
  H50      1.0000 0.92730  0.39160  0.86163  Biso   1.000  H
  H51      1.0000 0.60840  0.53570  0.19497  Biso   1.000  H
  H52      1.0000 0.39160  0.92730  0.13837  Biso   1.000  H
  H53      1.0000 0.53570  0.60840  0.80503  Biso   1.000  H
  H54      1.0000 0.07270  0.46430  0.47170  Biso   1.000  H
  H55      1.0000 0.54050  0.17900  0.57990  Biso   1.000  H
  H56      1.0000 0.82100  0.36150  0.91323  Biso   1.000  H
  H57      1.0000 0.63850  0.45950  0.24657  Biso   1.000  H
  H58      1.0000 0.36150  0.82100  0.08677  Biso   1.000  H
  H59      1.0000 0.45950  0.63850  0.75343  Biso   1.000  H
  H60      1.0000 0.17900  0.54050  0.42010  Biso   1.000  H
  C43      1.0000 0.41170  0.82320  0.62700  Biso   1.000  C
  C44      1.0000 0.17680  0.58850  0.96033  Biso   1.000  C
  C45      1.0000 0.41150  0.58830  0.29367  Biso   1.000  C
  C46      1.0000 0.58850  0.17680  0.03967  Biso   1.000  C
  C47      1.0000 0.58830  0.41150  0.70633  Biso   1.000  C
  C48      1.0000 0.82320  0.41170  0.37300  Biso   1.000  C
  H61      1.0000 0.49530  0.90670  0.61210  Biso   1.000  H
  H62      1.0000 0.09330  0.58860  0.94543  Biso   1.000  H
  H63      1.0000 0.41140  0.50470  0.27877  Biso   1.000  H
  H64      1.0000 0.58860  0.09330  0.05457  Biso   1.000  H
  H65      1.0000 0.50470  0.41140  0.72123  Biso   1.000  H
  H66      1.0000 0.90670  0.49530  0.38790  Biso   1.000  H
  H67      1.0000 0.40490  0.83410  0.66800  Biso   1.000  H
  H68      1.0000 0.16590  0.57080  0.00133  Biso   1.000  H
  H69      1.0000 0.42920  0.59510  0.33467  Biso   1.000  H
  H70      1.0000 0.57080  0.16590  0.99867  Biso   1.000  H
  H71      1.0000 0.59510  0.42920  0.66533  Biso   1.000  H
  H72      1.0000 0.83410  0.40490  0.33200  Biso   1.000  H
  H73      1.0000 0.32710  0.81290  0.60830  Biso   1.000  H
  H74      1.0000 0.18710  0.51420  0.94163  Biso   1.000  H
  H75      1.0000 0.48580  0.67290  0.27497  Biso   1.000  H
  H76      1.0000 0.51420  0.18710  0.05837  Biso   1.000  H
  H77      1.0000 0.67290  0.48580  0.72503  Biso   1.000  H
  H78      1.0000 0.81290  0.32710  0.39170  Biso   1.000  H
  C49      1.0000 0.24650  0.53520  0.62660  Biso   1.000  C
  C50      1.0000 0.46480  0.71130  0.95993  Biso   1.000  C
  C51      1.0000 0.28870  0.75350  0.29327  Biso   1.000  C
  C52      1.0000 0.71130  0.46480  0.04007  Biso   1.000  C
  C53      1.0000 0.75350  0.28870  0.70673  Biso   1.000  C
  C54      1.0000 0.53520  0.24650  0.37340  Biso   1.000  C
  H79      1.0000 0.18380  0.55160  0.60210  Biso   1.000  H
  H80      1.0000 0.44840  0.63220  0.93543  Biso   1.000  H
  H81      1.0000 0.36780  0.81620  0.26877  Biso   1.000  H
  H82      1.0000 0.63220  0.44840  0.06457  Biso   1.000  H
  H83      1.0000 0.81620  0.36780  0.73123  Biso   1.000  H
  H84      1.0000 0.55160  0.18380  0.39790  Biso   1.000  H
  H85      1.0000 0.22280  0.53870  0.66640  Biso   1.000  H
  H86      1.0000 0.46130  0.68410  0.99973  Biso   1.000  H
  H87      1.0000 0.31590  0.77720  0.33307  Biso   1.000  H
  H88      1.0000 0.68410  0.46130  0.00027  Biso   1.000  H
  H89      1.0000 0.77720  0.31590  0.66693  Biso   1.000  H
  H90      1.0000 0.53870  0.22280  0.33360  Biso   1.000  H
  H91      1.0000 0.23480  0.44220  0.61820  Biso   1.000  H
  H92      1.0000 0.55780  0.79260  0.95153  Biso   1.000  H
  H93      1.0000 0.20740  0.76520  0.28487  Biso   1.000  H
  H94      1.0000 0.79260  0.55780  0.04847  Biso   1.000  H
  H95      1.0000 0.76520  0.20740  0.71513  Biso   1.000  H
  H96      1.0000 0.44220  0.23480  0.38180  Biso   1.000  H
  Cl1      1.0000 0.86376  0.18653  0.55443  Biso   1.000  Cl
  Cl2      1.0000 0.81347  0.67723  0.88776  Biso   1.000  Cl
  Cl3      1.0000 0.32277  0.13624  0.22110  Biso   1.000  Cl
  Cl4      1.0000 0.67723  0.81347  0.11224  Biso   1.000  Cl
  Cl5      1.0000 0.13624  0.32277  0.77890  Biso   1.000  Cl
  Cl6      1.0000 0.18653  0.86376  0.44557  Biso   1.000  Cl
  O13      1.0000 0.88460  0.32450  0.56730  Biso   1.000  O
  O14      1.0000 0.67550  0.56010  0.90063  Biso   1.000  O
  O15      1.0000 0.43990  0.11540  0.23397  Biso   1.000  O
  O16      1.0000 0.56010  0.67550  0.09937  Biso   1.000  O
  O17      1.0000 0.11540  0.43990  0.76603  Biso   1.000  O
  O18      1.0000 0.32450  0.88460  0.43270  Biso   1.000  O
  O19      1.0000 0.75090  0.08280  0.58730  Biso   1.000  O
  O20      1.0000 0.91720  0.66810  0.92063  Biso   1.000  O
  O21      1.0000 0.33190  0.24910  0.25397  Biso   1.000  O
  O22      1.0000 0.66810  0.91720  0.07937  Biso   1.000  O
  O23      1.0000 0.24910  0.33190  0.74603  Biso   1.000  O
  O24      1.0000 0.08280  0.75090  0.41270  Biso   1.000  O
  O25      1.0000 0.82040  0.16160  0.49390  Biso   1.000  O
  O26      1.0000 0.83840  0.65880  0.82723  Biso   1.000  O
  O27      1.0000 0.34120  0.17960  0.16057  Biso   1.000  O
  O28      1.0000 0.65880  0.83840  0.17277  Biso   1.000  O
  O29      1.0000 0.17960  0.34120  0.83943  Biso   1.000  O
  O30      1.0000 0.16160  0.82040  0.50610  Biso   1.000  O
  O31      1.0000 0.98710  0.18390  0.55840  Biso   1.000  O
  O32      1.0000 0.81610  0.80320  0.89173  Biso   1.000  O
  O33      1.0000 0.19680  0.01290  0.22507  Biso   1.000  O
  O34      1.0000 0.80320  0.81610  0.10827  Biso   1.000  O
  O35      1.0000 0.01290  0.19680  0.77493  Biso   1.000  O
  O36      1.0000 0.18390  0.98710  0.44160  Biso   1.000  O
