data_image0
_cell_length_a       10.7314
_cell_length_b       10.7314
_cell_length_c       23.1419
_cell_angle_alpha    90
_cell_angle_beta     90
_cell_angle_gamma    120

_symmetry_space_group_name_H-M    "P 1"
_symmetry_int_tables_number       1

loop_
  _symmetry_equiv_pos_as_xyz
  'x, y, z'

loop_
  _atom_site_label
  _atom_site_occupancy
  _atom_site_fract_x
  _atom_site_fract_y
  _atom_site_fract_z
  _atom_site_thermal_displace_type
  _atom_site_B_iso_or_equiv
  _atom_site_type_symbol
  Cu1      1.0000 0.42836  0.00000  0.66670  Biso   1.000  Cu
  Cu2      1.0000 0.00000  0.42836  0.33337  Biso   1.000  Cu
  Cu3      1.0000 0.57164  0.57164  0.00003  Biso   1.000  Cu
  S1       1.0000 0.75150  0.15529  0.63811  Biso   1.000  S
  S2       1.0000 0.84471  0.59621  0.30478  Biso   1.000  S
  S3       1.0000 0.40379  0.24850  0.97144  Biso   1.000  S
  S4       1.0000 0.59621  0.84471  0.69522  Biso   1.000  S
  S5       1.0000 0.24850  0.40379  0.02856  Biso   1.000  S
  S6       1.0000 0.15529  0.75150  0.36189  Biso   1.000  S
  S7       1.0000 0.33145  0.75741  0.55294  Biso   1.000  S
  S8       1.0000 0.24259  0.57404  0.21961  Biso   1.000  S
  S9       1.0000 0.42596  0.66855  0.88627  Biso   1.000  S
  S10      1.0000 0.57404  0.24259  0.78039  Biso   1.000  S
  S11      1.0000 0.66855  0.42596  0.11373  Biso   1.000  S
  S12      1.0000 0.75741  0.33145  0.44706  Biso   1.000  S
  O1       1.0000 0.59910  0.08650  0.61302  Biso   1.000  O
  O2       1.0000 0.91350  0.51260  0.27969  Biso   1.000  O
  O3       1.0000 0.48740  0.40090  0.94635  Biso   1.000  O
  O4       1.0000 0.51260  0.91350  0.72031  Biso   1.000  O
  O5       1.0000 0.40090  0.48740  0.05365  Biso   1.000  O
  O6       1.0000 0.08650  0.59910  0.38698  Biso   1.000  O
  N1       1.0000 0.33800  0.08310  0.61391  Biso   1.000  N
  N2       1.0000 0.91690  0.25490  0.28058  Biso   1.000  N
  N3       1.0000 0.74510  0.66200  0.94724  Biso   1.000  N
  N4       1.0000 0.25490  0.91690  0.71942  Biso   1.000  N
  N5       1.0000 0.66200  0.74510  0.05276  Biso   1.000  N
  N6       1.0000 0.08310  0.33800  0.38609  Biso   1.000  N
  O7       1.0000 0.33210  0.78240  0.61699  Biso   1.000  O
  O8       1.0000 0.21760  0.54970  0.28366  Biso   1.000  O
  O9       1.0000 0.45030  0.66790  0.95032  Biso   1.000  O
  O10      1.0000 0.54970  0.21760  0.71634  Biso   1.000  O
  O11      1.0000 0.66790  0.45030  0.04968  Biso   1.000  O
  O12      1.0000 0.78240  0.33210  0.38301  Biso   1.000  O
  C1       1.0000 0.23340  0.18210  0.52493  Biso   1.000  C
  C2       1.0000 0.81790  0.05130  0.19160  Biso   1.000  C
  C3       1.0000 0.94870  0.76660  0.85826  Biso   1.000  C
  C4       1.0000 0.05130  0.81790  0.80840  Biso   1.000  C
  C5       1.0000 0.76660  0.94870  0.14174  Biso   1.000  C
  C6       1.0000 0.18210  0.23340  0.47507  Biso   1.000  C
  C7       1.0000 0.36140  0.27480  0.55427  Biso   1.000  C
  C8       1.0000 0.72520  0.08660  0.22094  Biso   1.000  C
  C9       1.0000 0.91340  0.63860  0.88760  Biso   1.000  C
  C10      1.0000 0.08660  0.72520  0.77906  Biso   1.000  C
  C11      1.0000 0.63860  0.91340  0.11240  Biso   1.000  C
  C12      1.0000 0.27480  0.36140  0.44573  Biso   1.000  C
  H1       1.0000 0.41340  0.37170  0.54440  Biso   1.000  H
  H2       1.0000 0.62830  0.04170  0.21107  Biso   1.000  H
  H3       1.0000 0.95830  0.58660  0.87773  Biso   1.000  H
  H4       1.0000 0.04170  0.62830  0.78893  Biso   1.000  H
  H5       1.0000 0.58660  0.95830  0.12227  Biso   1.000  H
  H6       1.0000 0.37170  0.41340  0.45560  Biso   1.000  H
  C13      1.0000 0.40990  0.22200  0.59786  Biso   1.000  C
  C14      1.0000 0.77800  0.18790  0.26453  Biso   1.000  C
  C15      1.0000 0.81210  0.59010  0.93119  Biso   1.000  C
  C16      1.0000 0.18790  0.77800  0.73547  Biso   1.000  C
  C17      1.0000 0.59010  0.81210  0.06881  Biso   1.000  C
  C18      1.0000 0.22200  0.40990  0.40214  Biso   1.000  C
  H7       1.0000 0.49510  0.28460  0.61670  Biso   1.000  H
  H8       1.0000 0.71540  0.21050  0.28337  Biso   1.000  H
  H9       1.0000 0.78950  0.50490  0.95003  Biso   1.000  H
  H10      1.0000 0.21050  0.71540  0.71663  Biso   1.000  H
  H11      1.0000 0.50490  0.78950  0.04997  Biso   1.000  H
  H12      1.0000 0.28460  0.49510  0.38330  Biso   1.000  H
  C19      1.0000 0.15680  0.04130  0.54431  Biso   1.000  C
  C20      1.0000 0.95870  0.11550  0.21098  Biso   1.000  C
  C21      1.0000 0.88450  0.84320  0.87764  Biso   1.000  C
  C22      1.0000 0.11550  0.95870  0.78902  Biso   1.000  C
  C23      1.0000 0.84320  0.88450  0.12236  Biso   1.000  C
  C24      1.0000 0.04130  0.15680  0.45569  Biso   1.000  C
  H13      1.0000 0.06870  0.97740  0.52760  Biso   1.000  H
  H14      1.0000 0.02260  0.09130  0.19427  Biso   1.000  H
  H15      1.0000 0.90870  0.93130  0.86093  Biso   1.000  H
  H16      1.0000 0.09130  0.02260  0.80573  Biso   1.000  H
  H17      1.0000 0.93130  0.90870  0.13907  Biso   1.000  H
  H18      1.0000 0.97740  0.06870  0.47240  Biso   1.000  H
  C25      1.0000 0.82830  0.34340  0.62700  Biso   1.000  C
  C26      1.0000 0.65660  0.48490  0.29367  Biso   1.000  C
  C27      1.0000 0.51510  0.17170  0.96033  Biso   1.000  C
  C28      1.0000 0.48490  0.65660  0.70633  Biso   1.000  C
  C29      1.0000 0.17170  0.51510  0.03967  Biso   1.000  C
  C30      1.0000 0.34340  0.82830  0.37300  Biso   1.000  C
  H19      1.0000 0.82350  0.36190  0.58670  Biso   1.000  H
  H20      1.0000 0.63810  0.46160  0.25337  Biso   1.000  H
  H21      1.0000 0.53840  0.17650  0.92003  Biso   1.000  H
  H22      1.0000 0.46160  0.63810  0.74663  Biso   1.000  H
  H23      1.0000 0.17650  0.53840  0.07997  Biso   1.000  H
  H24      1.0000 0.36190  0.82350  0.41330  Biso   1.000  H
  H25      1.0000 0.92700  0.39200  0.63930  Biso   1.000  H
  H26      1.0000 0.60800  0.53500  0.30597  Biso   1.000  H
  H27      1.0000 0.46500  0.07300  0.97263  Biso   1.000  H
  H28      1.0000 0.53500  0.60800  0.69403  Biso   1.000  H
  H29      1.0000 0.07300  0.46500  0.02737  Biso   1.000  H
  H30      1.0000 0.39200  0.92700  0.36070  Biso   1.000  H
  H31      1.0000 0.77590  0.37790  0.64900  Biso   1.000  H
  H32      1.0000 0.62210  0.39800  0.31567  Biso   1.000  H
  H33      1.0000 0.60200  0.22410  0.98233  Biso   1.000  H
  H34      1.0000 0.39800  0.62210  0.68433  Biso   1.000  H
  H35      1.0000 0.22410  0.60200  0.01767  Biso   1.000  H
  H36      1.0000 0.37790  0.77590  0.35100  Biso   1.000  H
  C31      1.0000 0.85080  0.12020  0.58530  Biso   1.000  C
  C32      1.0000 0.87980  0.73060  0.25197  Biso   1.000  C
  C33      1.0000 0.26940  0.14920  0.91863  Biso   1.000  C
  C34      1.0000 0.73060  0.87980  0.74803  Biso   1.000  C
  C35      1.0000 0.14920  0.26940  0.08137  Biso   1.000  C
  C36      1.0000 0.12020  0.85080  0.41470  Biso   1.000  C
  H37      1.0000 0.81420  0.01850  0.58280  Biso   1.000  H
  H38      1.0000 0.98150  0.79570  0.24947  Biso   1.000  H
  H39      1.0000 0.20430  0.18580  0.91613  Biso   1.000  H
  H40      1.0000 0.79570  0.98150  0.75053  Biso   1.000  H
  H41      1.0000 0.18580  0.20430  0.08387  Biso   1.000  H
  H42      1.0000 0.01850  0.81420  0.41720  Biso   1.000  H
  H43      1.0000 0.95040  0.16780  0.59610  Biso   1.000  H
  H44      1.0000 0.83220  0.78260  0.26277  Biso   1.000  H
  H45      1.0000 0.21740  0.04960  0.92943  Biso   1.000  H
  H46      1.0000 0.78260  0.83220  0.73723  Biso   1.000  H
  H47      1.0000 0.04960  0.21740  0.07057  Biso   1.000  H
  H48      1.0000 0.16780  0.95040  0.40390  Biso   1.000  H
  H49      1.0000 0.84130  0.15560  0.54840  Biso   1.000  H
  H50      1.0000 0.84440  0.68570  0.21507  Biso   1.000  H
  H51      1.0000 0.31430  0.15870  0.88173  Biso   1.000  H
  H52      1.0000 0.68570  0.84440  0.78493  Biso   1.000  H
  H53      1.0000 0.15870  0.31430  0.11827  Biso   1.000  H
  H54      1.0000 0.15560  0.84130  0.45160  Biso   1.000  H
  C37      1.0000 0.17670  0.58800  0.53960  Biso   1.000  C
  C38      1.0000 0.41200  0.58870  0.20627  Biso   1.000  C
  C39      1.0000 0.41130  0.82330  0.87293  Biso   1.000  C
  C40      1.0000 0.58870  0.41200  0.79373  Biso   1.000  C
  C41      1.0000 0.82330  0.41130  0.12707  Biso   1.000  C
  C42      1.0000 0.58800  0.17670  0.46040  Biso   1.000  C
  H55      1.0000 0.18620  0.51420  0.55920  Biso   1.000  H
  H56      1.0000 0.48580  0.67200  0.22587  Biso   1.000  H
  H57      1.0000 0.32800  0.81380  0.89253  Biso   1.000  H
  H58      1.0000 0.67200  0.48580  0.77413  Biso   1.000  H
  H59      1.0000 0.81380  0.32800  0.10747  Biso   1.000  H
  H60      1.0000 0.51420  0.18620  0.44080  Biso   1.000  H
  H61      1.0000 0.16730  0.56920  0.49880  Biso   1.000  H
  H62      1.0000 0.43080  0.59810  0.16547  Biso   1.000  H
  H63      1.0000 0.40190  0.83270  0.83213  Biso   1.000  H
  H64      1.0000 0.59810  0.43080  0.83453  Biso   1.000  H
  H65      1.0000 0.83270  0.40190  0.16787  Biso   1.000  H
  H66      1.0000 0.56920  0.16730  0.50120  Biso   1.000  H
  H67      1.0000 0.09300  0.58880  0.55370  Biso   1.000  H
  H68      1.0000 0.41120  0.50420  0.22037  Biso   1.000  H
  H69      1.0000 0.49580  0.90700  0.88703  Biso   1.000  H
  H70      1.0000 0.50420  0.41120  0.77963  Biso   1.000  H
  H71      1.0000 0.90700  0.49580  0.11297  Biso   1.000  H
  H72      1.0000 0.58880  0.09300  0.44630  Biso   1.000  H
  C43      1.0000 0.46550  0.71130  0.54020  Biso   1.000  C
  C44      1.0000 0.28870  0.75420  0.20687  Biso   1.000  C
  C45      1.0000 0.24580  0.53450  0.87353  Biso   1.000  C
  C46      1.0000 0.75420  0.28870  0.79313  Biso   1.000  C
  C47      1.0000 0.53450  0.24580  0.12647  Biso   1.000  C
  C48      1.0000 0.71130  0.46550  0.45980  Biso   1.000  C
  H73      1.0000 0.55840  0.79290  0.54820  Biso   1.000  H
  H74      1.0000 0.20710  0.76550  0.21487  Biso   1.000  H
  H75      1.0000 0.23450  0.44160  0.88153  Biso   1.000  H
  H76      1.0000 0.76550  0.20710  0.78513  Biso   1.000  H
  H77      1.0000 0.44160  0.23450  0.11847  Biso   1.000  H
  H78      1.0000 0.79290  0.55840  0.45180  Biso   1.000  H
  H79      1.0000 0.46160  0.68330  0.50060  Biso   1.000  H
  H80      1.0000 0.31670  0.77830  0.16727  Biso   1.000  H
  H81      1.0000 0.22170  0.53840  0.83393  Biso   1.000  H
  H82      1.0000 0.77830  0.31670  0.83273  Biso   1.000  H
  H83      1.0000 0.53840  0.22170  0.16607  Biso   1.000  H
  H84      1.0000 0.68330  0.46160  0.49940  Biso   1.000  H
  H85      1.0000 0.44950  0.63280  0.56490  Biso   1.000  H
  H86      1.0000 0.36720  0.81670  0.23157  Biso   1.000  H
  H87      1.0000 0.18330  0.55050  0.89823  Biso   1.000  H
  H88      1.0000 0.81670  0.36720  0.76843  Biso   1.000  H
  H89      1.0000 0.55050  0.18330  0.10177  Biso   1.000  H
  H90      1.0000 0.63280  0.44950  0.43510  Biso   1.000  H
  C49      1.0000 0.21140  0.99570  0.58846  Biso   1.000  C
  C50      1.0000 0.00430  0.21570  0.25513  Biso   1.000  C
  C51      1.0000 0.78430  0.78860  0.92179  Biso   1.000  C
  C52      1.0000 0.21570  0.00430  0.74487  Biso   1.000  C
  C53      1.0000 0.78860  0.78430  0.07821  Biso   1.000  C
  C54      1.0000 0.99570  0.21140  0.41154  Biso   1.000  C
  H91      1.0000 0.15830  0.90090  0.60100  Biso   1.000  H
  H92      1.0000 0.09910  0.25740  0.26767  Biso   1.000  H
  H93      1.0000 0.74260  0.84170  0.93433  Biso   1.000  H
  H94      1.0000 0.25740  0.09910  0.73233  Biso   1.000  H
  H95      1.0000 0.84170  0.74260  0.06567  Biso   1.000  H
  H96      1.0000 0.90090  0.15830  0.39900  Biso   1.000  H
  Cl1      1.0000 0.67709  0.81336  0.38769  Biso   1.000  Cl
  Cl2      1.0000 0.18664  0.86373  0.05436  Biso   1.000  Cl
  Cl3      1.0000 0.13627  0.32291  0.72102  Biso   1.000  Cl
  Cl4      1.0000 0.86373  0.18664  0.94564  Biso   1.000  Cl
  Cl5      1.0000 0.32291  0.13627  0.27898  Biso   1.000  Cl
  Cl6      1.0000 0.81336  0.67709  0.61231  Biso   1.000  Cl
  O13      1.0000 0.66820  0.91780  0.42070  Biso   1.000  O
  O14      1.0000 0.08220  0.75040  0.08737  Biso   1.000  O
  O15      1.0000 0.24960  0.33180  0.75403  Biso   1.000  O
  O16      1.0000 0.75040  0.08220  0.91263  Biso   1.000  O
  O17      1.0000 0.33180  0.24960  0.24597  Biso   1.000  O
  O18      1.0000 0.91780  0.66820  0.57930  Biso   1.000  O
  O19      1.0000 0.55990  0.67540  0.40050  Biso   1.000  O
  O20      1.0000 0.32460  0.88450  0.06717  Biso   1.000  O
  O21      1.0000 0.11550  0.44010  0.73383  Biso   1.000  O
  O22      1.0000 0.88450  0.32460  0.93283  Biso   1.000  O
  O23      1.0000 0.44010  0.11550  0.26617  Biso   1.000  O
  O24      1.0000 0.67540  0.55990  0.59950  Biso   1.000  O
  O25      1.0000 0.80400  0.81700  0.39200  Biso   1.000  O
  O26      1.0000 0.18300  0.98700  0.05867  Biso   1.000  O
  O27      1.0000 0.01300  0.19600  0.72533  Biso   1.000  O
  O28      1.0000 0.98700  0.18300  0.94133  Biso   1.000  O
  O29      1.0000 0.19600  0.01300  0.27467  Biso   1.000  O
  O30      1.0000 0.81700  0.80400  0.60800  Biso   1.000  O
  O31      1.0000 0.66020  0.83920  0.32720  Biso   1.000  O
  O32      1.0000 0.16080  0.82100  0.99387  Biso   1.000  O
  O33      1.0000 0.17900  0.33980  0.66053  Biso   1.000  O
  O34      1.0000 0.82100  0.16080  0.00613  Biso   1.000  O
  O35      1.0000 0.33980  0.17900  0.33947  Biso   1.000  O
  O36      1.0000 0.83920  0.66020  0.67280  Biso   1.000  O
