data_image0
_cell_length_a       22.062
_cell_length_b       16.984
_cell_length_c       15.647
_cell_angle_alpha    90
_cell_angle_beta     118.183
_cell_angle_gamma    90

_symmetry_space_group_name_H-M    "P 1"
_symmetry_int_tables_number       1

loop_
  _symmetry_equiv_pos_as_xyz
  'x, y, z'

loop_
  _atom_site_label
  _atom_site_occupancy
  _atom_site_fract_x
  _atom_site_fract_y
  _atom_site_fract_z
  _atom_site_thermal_displace_type
  _atom_site_B_iso_or_equiv
  _atom_site_type_symbol
  Cu1      1.0000 0.78749  0.00088  0.44912  Biso   1.000  Cu
  Cu2      1.0000 0.21251  0.00088  0.05088  Biso   1.000  Cu
  Cu3      1.0000 0.28749  0.50088  0.44912  Biso   1.000  Cu
  Cu4      1.0000 0.71251  0.50088  0.05088  Biso   1.000  Cu
  Cu5      1.0000 0.21251  0.99912  0.55088  Biso   1.000  Cu
  Cu6      1.0000 0.78749  0.99912  0.94912  Biso   1.000  Cu
  Cu7      1.0000 0.71251  0.49912  0.55088  Biso   1.000  Cu
  Cu8      1.0000 0.28749  0.49912  0.94912  Biso   1.000  Cu
  Cl1      1.0000 0.86317  0.89750  0.49330  Biso   1.000  Cl
  Cl2      1.0000 0.13683  0.89750  0.00670  Biso   1.000  Cl
  Cl3      1.0000 0.36317  0.39750  0.49330  Biso   1.000  Cl
  Cl4      1.0000 0.63683  0.39750  0.00670  Biso   1.000  Cl
  Cl5      1.0000 0.13683  0.10250  0.50670  Biso   1.000  Cl
  Cl6      1.0000 0.86317  0.10250  0.99330  Biso   1.000  Cl
  Cl7      1.0000 0.63683  0.60250  0.50670  Biso   1.000  Cl
  Cl8      1.0000 0.36317  0.60250  0.99330  Biso   1.000  Cl
  Cl9      1.0000 0.69330  0.07760  0.35980  Biso   1.000  Cl
  Cl10     1.0000 0.30670  0.07760  0.14020  Biso   1.000  Cl
  Cl11     1.0000 0.19330  0.57760  0.35980  Biso   1.000  Cl
  Cl12     1.0000 0.80670  0.57760  0.14020  Biso   1.000  Cl
  Cl13     1.0000 0.30670  0.92240  0.64020  Biso   1.000  Cl
  Cl14     1.0000 0.69330  0.92240  0.85980  Biso   1.000  Cl
  Cl15     1.0000 0.80670  0.42240  0.64020  Biso   1.000  Cl
  Cl16     1.0000 0.19330  0.42240  0.85980  Biso   1.000  Cl
  C1       1.0000 0.90340  0.17940  0.74120  Biso   1.000  C
  C2       1.0000 0.09660  0.17940  0.75880  Biso   1.000  C
  C3       1.0000 0.40340  0.67940  0.74120  Biso   1.000  C
  C4       1.0000 0.59660  0.67940  0.75880  Biso   1.000  C
  C5       1.0000 0.09660  0.82060  0.25880  Biso   1.000  C
  C6       1.0000 0.90340  0.82060  0.24120  Biso   1.000  C
  C7       1.0000 0.59660  0.32060  0.25880  Biso   1.000  C
  C8       1.0000 0.40340  0.32060  0.24120  Biso   1.000  C
  C9       1.0000 0.86280  0.36100  0.96430  Biso   1.000  C
  C10      1.0000 0.13720  0.36100  0.53570  Biso   1.000  C
  C11      1.0000 0.36280  0.86100  0.96430  Biso   1.000  C
  C12      1.0000 0.63720  0.86100  0.53570  Biso   1.000  C
  C13      1.0000 0.13720  0.63900  0.03570  Biso   1.000  C
  C14      1.0000 0.86280  0.63900  0.46430  Biso   1.000  C
  C15      1.0000 0.63720  0.13900  0.03570  Biso   1.000  C
  C16      1.0000 0.36280  0.13900  0.46430  Biso   1.000  C
  C17      1.0000 0.84700  0.43780  0.93990  Biso   1.000  C
  C18      1.0000 0.15300  0.43780  0.56010  Biso   1.000  C
  C19      1.0000 0.34700  0.93780  0.93990  Biso   1.000  C
  C20      1.0000 0.65300  0.93780  0.56010  Biso   1.000  C
  C21      1.0000 0.15300  0.56220  0.06010  Biso   1.000  C
  C22      1.0000 0.84700  0.56220  0.43990  Biso   1.000  C
  C23      1.0000 0.65300  0.06220  0.06010  Biso   1.000  C
  C24      1.0000 0.34700  0.06220  0.43990  Biso   1.000  C
  H1       1.0000 0.86730  0.46520  0.90850  Biso   1.000  H
  H2       1.0000 0.13270  0.46520  0.59150  Biso   1.000  H
  H3       1.0000 0.36730  0.96520  0.90850  Biso   1.000  H
  H4       1.0000 0.63270  0.96520  0.59150  Biso   1.000  H
  H5       1.0000 0.13270  0.53480  0.09150  Biso   1.000  H
  H6       1.0000 0.86730  0.53480  0.40850  Biso   1.000  H
  H7       1.0000 0.63270  0.03480  0.09150  Biso   1.000  H
  H8       1.0000 0.36730  0.03480  0.40850  Biso   1.000  H
  C25      1.0000 0.00000  0.13420  0.25000  Biso   1.000  C
  C26      1.0000 0.50000  0.63420  0.25000  Biso   1.000  C
  C27      1.0000 0.00000  0.86580  0.75000  Biso   1.000  C
  C28      1.0000 0.50000  0.36580  0.75000  Biso   1.000  C
  H9       1.0000 0.03000  0.10070  0.30360  Biso   1.000  H
  H10      1.0000 0.97000  0.10070  0.19640  Biso   1.000  H
  H11      1.0000 0.53000  0.60070  0.30360  Biso   1.000  H
  H12      1.0000 0.47000  0.60070  0.19640  Biso   1.000  H
  H13      1.0000 0.97000  0.89930  0.69640  Biso   1.000  H
  H14      1.0000 0.03000  0.89930  0.80360  Biso   1.000  H
  H15      1.0000 0.47000  0.39930  0.69640  Biso   1.000  H
  H16      1.0000 0.53000  0.39930  0.80360  Biso   1.000  H
  N1       1.0000 0.84070  0.05610  0.38910  Biso   1.000  N
  N2       1.0000 0.15930  0.05610  0.11090  Biso   1.000  N
  N3       1.0000 0.34070  0.55610  0.38910  Biso   1.000  N
  N4       1.0000 0.65930  0.55610  0.11090  Biso   1.000  N
  N5       1.0000 0.15930  0.94390  0.61090  Biso   1.000  N
  N6       1.0000 0.84070  0.94390  0.88910  Biso   1.000  N
  N7       1.0000 0.65930  0.44390  0.61090  Biso   1.000  N
  N8       1.0000 0.34070  0.44390  0.88910  Biso   1.000  N
  N9       1.0000 0.83950  0.08020  0.58140  Biso   1.000  N
  N10      1.0000 0.16050  0.08020  0.91860  Biso   1.000  N
  N11      1.0000 0.33950  0.58020  0.58140  Biso   1.000  N
  N12      1.0000 0.66050  0.58020  0.91860  Biso   1.000  N
  N13      1.0000 0.16050  0.91980  0.41860  Biso   1.000  N
  N14      1.0000 0.83950  0.91980  0.08140  Biso   1.000  N
  N15      1.0000 0.66050  0.41980  0.41860  Biso   1.000  N
  N16      1.0000 0.33950  0.41980  0.08140  Biso   1.000  N
  N17      1.0000 0.77140  0.43840  0.00670  Biso   1.000  N
  N18      1.0000 0.22860  0.43840  0.49330  Biso   1.000  N
  N19      1.0000 0.27140  0.93840  0.00670  Biso   1.000  N
  N20      1.0000 0.72860  0.93840  0.49330  Biso   1.000  N
  N21      1.0000 0.22860  0.56160  0.99330  Biso   1.000  N
  N22      1.0000 0.77140  0.56160  0.50670  Biso   1.000  N
  N23      1.0000 0.72860  0.06160  0.99330  Biso   1.000  N
  N24      1.0000 0.27140  0.06160  0.50670  Biso   1.000  N
  C29      1.0000 0.94570  0.10740  0.40700  Biso   1.000  C
  C30      1.0000 0.05430  0.10740  0.09300  Biso   1.000  C
  C31      1.0000 0.44570  0.60740  0.40700  Biso   1.000  C
  C32      1.0000 0.55430  0.60740  0.09300  Biso   1.000  C
  C33      1.0000 0.05430  0.89260  0.59300  Biso   1.000  C
  C34      1.0000 0.94570  0.89260  0.90700  Biso   1.000  C
  C35      1.0000 0.55430  0.39260  0.59300  Biso   1.000  C
  C36      1.0000 0.44570  0.39260  0.90700  Biso   1.000  C
  H17      1.0000 0.99270  0.11410  0.44680  Biso   1.000  H
  H18      1.0000 0.00730  0.11410  0.05320  Biso   1.000  H
  H19      1.0000 0.49270  0.61410  0.44680  Biso   1.000  H
  H20      1.0000 0.50730  0.61410  0.05320  Biso   1.000  H
  H21      1.0000 0.00730  0.88590  0.55320  Biso   1.000  H
  H22      1.0000 0.99270  0.88590  0.94680  Biso   1.000  H
  H23      1.0000 0.50730  0.38590  0.55320  Biso   1.000  H
  H24      1.0000 0.49270  0.38590  0.94680  Biso   1.000  H
  C37      1.0000 0.88230  0.27060  0.85020  Biso   1.000  C
  C38      1.0000 0.11770  0.27060  0.64980  Biso   1.000  C
  C39      1.0000 0.38230  0.77060  0.85020  Biso   1.000  C
  C40      1.0000 0.61770  0.77060  0.64980  Biso   1.000  C
  C41      1.0000 0.11770  0.72940  0.14980  Biso   1.000  C
  C42      1.0000 0.88230  0.72940  0.35020  Biso   1.000  C
  C43      1.0000 0.61770  0.22940  0.14980  Biso   1.000  C
  C44      1.0000 0.38230  0.22940  0.35020  Biso   1.000  C
  H25      1.0000 0.85300  0.30440  0.79640  Biso   1.000  H
  H26      1.0000 0.14700  0.30440  0.70360  Biso   1.000  H
  H27      1.0000 0.35300  0.80440  0.79640  Biso   1.000  H
  H28      1.0000 0.64700  0.80440  0.70360  Biso   1.000  H
  H29      1.0000 0.14700  0.69560  0.20360  Biso   1.000  H
  H30      1.0000 0.85300  0.69560  0.29640  Biso   1.000  H
  H31      1.0000 0.64700  0.19560  0.20360  Biso   1.000  H
  H32      1.0000 0.35300  0.19560  0.29640  Biso   1.000  H
  H33      1.0000 0.85360  0.23030  0.85670  Biso   1.000  H
  H34      1.0000 0.14640  0.23030  0.64330  Biso   1.000  H
  H35      1.0000 0.35360  0.73030  0.85670  Biso   1.000  H
  H36      1.0000 0.64640  0.73030  0.64330  Biso   1.000  H
  H37      1.0000 0.14640  0.76970  0.14330  Biso   1.000  H
  H38      1.0000 0.85360  0.76970  0.35670  Biso   1.000  H
  H39      1.0000 0.64640  0.26970  0.14330  Biso   1.000  H
  H40      1.0000 0.35360  0.26970  0.35670  Biso   1.000  H
  C45      1.0000 0.90850  0.06510  0.44210  Biso   1.000  C
  C46      1.0000 0.09150  0.06510  0.05790  Biso   1.000  C
  C47      1.0000 0.40850  0.56510  0.44210  Biso   1.000  C
  C48      1.0000 0.59150  0.56510  0.05790  Biso   1.000  C
  C49      1.0000 0.09150  0.93490  0.55790  Biso   1.000  C
  C50      1.0000 0.90850  0.93490  0.94210  Biso   1.000  C
  C51      1.0000 0.59150  0.43490  0.55790  Biso   1.000  C
  C52      1.0000 0.40850  0.43490  0.94210  Biso   1.000  C
  H41      1.0000 0.93110  0.04270  0.50350  Biso   1.000  H
  H42      1.0000 0.06890  0.04270  0.99650  Biso   1.000  H
  H43      1.0000 0.43110  0.54270  0.50350  Biso   1.000  H
  H44      1.0000 0.56890  0.54270  0.99650  Biso   1.000  H
  H45      1.0000 0.06890  0.95730  0.49650  Biso   1.000  H
  H46      1.0000 0.93110  0.95730  0.00350  Biso   1.000  H
  H47      1.0000 0.56890  0.45730  0.49650  Biso   1.000  H
  H48      1.0000 0.43110  0.45730  0.00350  Biso   1.000  H
  C53      1.0000 0.78620  0.36310  0.02850  Biso   1.000  C
  C54      1.0000 0.21380  0.36310  0.47150  Biso   1.000  C
  C55      1.0000 0.28620  0.86310  0.02850  Biso   1.000  C
  C56      1.0000 0.71380  0.86310  0.47150  Biso   1.000  C
  C57      1.0000 0.21380  0.63690  0.97150  Biso   1.000  C
  C58      1.0000 0.78620  0.63690  0.52850  Biso   1.000  C
  C59      1.0000 0.71380  0.13690  0.97150  Biso   1.000  C
  C60      1.0000 0.28620  0.13690  0.52850  Biso   1.000  C
  H49      1.0000 0.76510  0.33600  0.05890  Biso   1.000  H
  H50      1.0000 0.23490  0.33600  0.44110  Biso   1.000  H
  H51      1.0000 0.26510  0.83600  0.05890  Biso   1.000  H
  H52      1.0000 0.73490  0.83600  0.44110  Biso   1.000  H
  H53      1.0000 0.23490  0.66400  0.94110  Biso   1.000  H
  H54      1.0000 0.76510  0.66400  0.55890  Biso   1.000  H
  H55      1.0000 0.73490  0.16400  0.94110  Biso   1.000  H
  H56      1.0000 0.26510  0.16400  0.55890  Biso   1.000  H
  C61      1.0000 0.93540  0.23190  0.82820  Biso   1.000  C
  C62      1.0000 0.06460  0.23190  0.67180  Biso   1.000  C
  C63      1.0000 0.43540  0.73190  0.82820  Biso   1.000  C
  C64      1.0000 0.56460  0.73190  0.67180  Biso   1.000  C
  C65      1.0000 0.06460  0.76810  0.17180  Biso   1.000  C
  C66      1.0000 0.93540  0.76810  0.32820  Biso   1.000  C
  C67      1.0000 0.56460  0.26810  0.17180  Biso   1.000  C
  C68      1.0000 0.43540  0.26810  0.32820  Biso   1.000  C
  H57      1.0000 0.96200  0.27240  0.81740  Biso   1.000  H
  H58      1.0000 0.03800  0.27240  0.68260  Biso   1.000  H
  H59      1.0000 0.46200  0.77240  0.81740  Biso   1.000  H
  H60      1.0000 0.53800  0.77240  0.68260  Biso   1.000  H
  H61      1.0000 0.03800  0.72760  0.18260  Biso   1.000  H
  H62      1.0000 0.96200  0.72760  0.31740  Biso   1.000  H
  H63      1.0000 0.53800  0.22760  0.18260  Biso   1.000  H
  H64      1.0000 0.46200  0.22760  0.31740  Biso   1.000  H
  H65      1.0000 0.96670  0.20120  0.88400  Biso   1.000  H
  H66      1.0000 0.03330  0.20120  0.61600  Biso   1.000  H
  H67      1.0000 0.46670  0.70120  0.88400  Biso   1.000  H
  H68      1.0000 0.53330  0.70120  0.61600  Biso   1.000  H
  H69      1.0000 0.03330  0.79880  0.11600  Biso   1.000  H
  H70      1.0000 0.96670  0.79880  0.38400  Biso   1.000  H
  H71      1.0000 0.53330  0.29880  0.11600  Biso   1.000  H
  H72      1.0000 0.46670  0.29880  0.38400  Biso   1.000  H
  C69      1.0000 0.86680  0.20850  0.64930  Biso   1.000  C
  C70      1.0000 0.13320  0.20850  0.85070  Biso   1.000  C
  C71      1.0000 0.36680  0.70850  0.64930  Biso   1.000  C
  C72      1.0000 0.63320  0.70850  0.85070  Biso   1.000  C
  C73      1.0000 0.13320  0.79150  0.35070  Biso   1.000  C
  C74      1.0000 0.86680  0.79150  0.14930  Biso   1.000  C
  C75      1.0000 0.63320  0.29150  0.35070  Biso   1.000  C
  C76      1.0000 0.36680  0.29150  0.14930  Biso   1.000  C
  H73      1.0000 0.86300  0.26260  0.63860  Biso   1.000  H
  H74      1.0000 0.13700  0.26260  0.86140  Biso   1.000  H
  H75      1.0000 0.36300  0.76260  0.63860  Biso   1.000  H
  H76      1.0000 0.63700  0.76260  0.86140  Biso   1.000  H
  H77      1.0000 0.13700  0.73740  0.36140  Biso   1.000  H
  H78      1.0000 0.86300  0.73740  0.13860  Biso   1.000  H
  H79      1.0000 0.63700  0.23740  0.36140  Biso   1.000  H
  H80      1.0000 0.36300  0.23740  0.13860  Biso   1.000  H
  C77      1.0000 0.84700  0.12740  0.26420  Biso   1.000  C
  C78      1.0000 0.15300  0.12740  0.23580  Biso   1.000  C
  C79      1.0000 0.34700  0.62740  0.26420  Biso   1.000  C
  C80      1.0000 0.65300  0.62740  0.23580  Biso   1.000  C
  C81      1.0000 0.15300  0.87260  0.73580  Biso   1.000  C
  C82      1.0000 0.84700  0.87260  0.76420  Biso   1.000  C
  C83      1.0000 0.65300  0.37260  0.73580  Biso   1.000  C
  C84      1.0000 0.34700  0.37260  0.76420  Biso   1.000  C
  H81      1.0000 0.82390  0.14890  0.20230  Biso   1.000  H
  H82      1.0000 0.17610  0.14890  0.29770  Biso   1.000  H
  H83      1.0000 0.32390  0.64890  0.20230  Biso   1.000  H
  H84      1.0000 0.67610  0.64890  0.29770  Biso   1.000  H
  H85      1.0000 0.17610  0.85110  0.79770  Biso   1.000  H
  H86      1.0000 0.82390  0.85110  0.70230  Biso   1.000  H
  H87      1.0000 0.67610  0.35110  0.79770  Biso   1.000  H
  H88      1.0000 0.32390  0.35110  0.70230  Biso   1.000  H
  C85      1.0000 0.83530  0.15660  0.57210  Biso   1.000  C
  C86      1.0000 0.16470  0.15660  0.92790  Biso   1.000  C
  C87      1.0000 0.33530  0.65660  0.57210  Biso   1.000  C
  C88      1.0000 0.66470  0.65660  0.92790  Biso   1.000  C
  C89      1.0000 0.16470  0.84340  0.42790  Biso   1.000  C
  C90      1.0000 0.83530  0.84340  0.07210  Biso   1.000  C
  C91      1.0000 0.66470  0.34340  0.42790  Biso   1.000  C
  C92      1.0000 0.33530  0.34340  0.07210  Biso   1.000  C
  H89      1.0000 0.80970  0.17750  0.51020  Biso   1.000  H
  H90      1.0000 0.19030  0.17750  0.98980  Biso   1.000  H
  H91      1.0000 0.30970  0.67750  0.51020  Biso   1.000  H
  H92      1.0000 0.69030  0.67750  0.98980  Biso   1.000  H
  H93      1.0000 0.19030  0.82250  0.48980  Biso   1.000  H
  H94      1.0000 0.80970  0.82250  0.01020  Biso   1.000  H
  H95      1.0000 0.69030  0.32250  0.48980  Biso   1.000  H
  H96      1.0000 0.30970  0.32250  0.01020  Biso   1.000  H
  C93      1.0000 0.90730  0.09910  0.74690  Biso   1.000  C
  C94      1.0000 0.09270  0.09910  0.75310  Biso   1.000  C
  C95      1.0000 0.40730  0.59910  0.74690  Biso   1.000  C
  C96      1.0000 0.59270  0.59910  0.75310  Biso   1.000  C
  C97      1.0000 0.09270  0.90090  0.25310  Biso   1.000  C
  C98      1.0000 0.90730  0.90090  0.24690  Biso   1.000  C
  C99      1.0000 0.59270  0.40090  0.25310  Biso   1.000  C
  C100     1.0000 0.40730  0.40090  0.24690  Biso   1.000  C
  H97      1.0000 0.93260  0.07580  0.80740  Biso   1.000  H
  H98      1.0000 0.06740  0.07580  0.69260  Biso   1.000  H
  H99      1.0000 0.43260  0.57580  0.80740  Biso   1.000  H
  H100     1.0000 0.56740  0.57580  0.69260  Biso   1.000  H
  H101     1.0000 0.06740  0.92420  0.19260  Biso   1.000  H
  H102     1.0000 0.93260  0.92420  0.30740  Biso   1.000  H
  H103     1.0000 0.56740  0.42420  0.19260  Biso   1.000  H
  H104     1.0000 0.43260  0.42420  0.30740  Biso   1.000  H
  C101     1.0000 0.95720  0.18580  0.28070  Biso   1.000  C
  C102     1.0000 0.04280  0.18580  0.21930  Biso   1.000  C
  C103     1.0000 0.45720  0.68580  0.28070  Biso   1.000  C
  C104     1.0000 0.54280  0.68580  0.21930  Biso   1.000  C
  C105     1.0000 0.04280  0.81420  0.71930  Biso   1.000  C
  C106     1.0000 0.95720  0.81420  0.78070  Biso   1.000  C
  C107     1.0000 0.54280  0.31420  0.71930  Biso   1.000  C
  C108     1.0000 0.45720  0.31420  0.78070  Biso   1.000  C
  H105     1.0000 0.98730  0.22220  0.33030  Biso   1.000  H
  H106     1.0000 0.01270  0.22220  0.16970  Biso   1.000  H
  H107     1.0000 0.48730  0.72220  0.33030  Biso   1.000  H
  H108     1.0000 0.51270  0.72220  0.16970  Biso   1.000  H
  H109     1.0000 0.01270  0.77780  0.66970  Biso   1.000  H
  H110     1.0000 0.98730  0.77780  0.83030  Biso   1.000  H
  H111     1.0000 0.51270  0.27780  0.66970  Biso   1.000  H
  H112     1.0000 0.48730  0.27780  0.83030  Biso   1.000  H
  H113     1.0000 0.92520  0.21640  0.22540  Biso   1.000  H
  H114     1.0000 0.07480  0.21640  0.27460  Biso   1.000  H
  H115     1.0000 0.42520  0.71640  0.22540  Biso   1.000  H
  H116     1.0000 0.57480  0.71640  0.27460  Biso   1.000  H
  H117     1.0000 0.07480  0.78360  0.77460  Biso   1.000  H
  H118     1.0000 0.92520  0.78360  0.72540  Biso   1.000  H
  H119     1.0000 0.57480  0.28360  0.77460  Biso   1.000  H
  H120     1.0000 0.42520  0.28360  0.72540  Biso   1.000  H
  C109     1.0000 0.91720  0.13860  0.31950  Biso   1.000  C
  C110     1.0000 0.08280  0.13860  0.18050  Biso   1.000  C
  C111     1.0000 0.41720  0.63860  0.31950  Biso   1.000  C
  C112     1.0000 0.58280  0.63860  0.18050  Biso   1.000  C
  C113     1.0000 0.08280  0.86140  0.68050  Biso   1.000  C
  C114     1.0000 0.91720  0.86140  0.81950  Biso   1.000  C
  C115     1.0000 0.58280  0.36140  0.68050  Biso   1.000  C
  C116     1.0000 0.41720  0.36140  0.81950  Biso   1.000  C
  C117     1.0000 0.83260  0.32370  0.00710  Biso   1.000  C
  C118     1.0000 0.16740  0.32370  0.49290  Biso   1.000  C
  C119     1.0000 0.33260  0.82370  0.00710  Biso   1.000  C
  C120     1.0000 0.66740  0.82370  0.49290  Biso   1.000  C
  C121     1.0000 0.16740  0.67630  0.99290  Biso   1.000  C
  C122     1.0000 0.83260  0.67630  0.50710  Biso   1.000  C
  C123     1.0000 0.66740  0.17630  0.99290  Biso   1.000  C
  C124     1.0000 0.33260  0.17630  0.50710  Biso   1.000  C
  H121     1.0000 0.84220  0.27080  0.02320  Biso   1.000  H
  H122     1.0000 0.15780  0.27080  0.47680  Biso   1.000  H
  H123     1.0000 0.34220  0.77080  0.02320  Biso   1.000  H
  H124     1.0000 0.65780  0.77080  0.47680  Biso   1.000  H
  H125     1.0000 0.15780  0.72920  0.97680  Biso   1.000  H
  H126     1.0000 0.84220  0.72920  0.52320  Biso   1.000  H
  H127     1.0000 0.65780  0.22920  0.97680  Biso   1.000  H
  H128     1.0000 0.34220  0.22920  0.52320  Biso   1.000  H
  C125     1.0000 0.81130  0.08500  0.30040  Biso   1.000  C
  C126     1.0000 0.18870  0.08500  0.19960  Biso   1.000  C
  C127     1.0000 0.31130  0.58500  0.30040  Biso   1.000  C
  C128     1.0000 0.68870  0.58500  0.19960  Biso   1.000  C
  C129     1.0000 0.18870  0.91500  0.69960  Biso   1.000  C
  C130     1.0000 0.81130  0.91500  0.80040  Biso   1.000  C
  C131     1.0000 0.68870  0.41500  0.69960  Biso   1.000  C
  C132     1.0000 0.31130  0.41500  0.80040  Biso   1.000  C
  H129     1.0000 0.76460  0.07620  0.26080  Biso   1.000  H
  H130     1.0000 0.23540  0.07620  0.23920  Biso   1.000  H
  H131     1.0000 0.26460  0.57620  0.26080  Biso   1.000  H
  H132     1.0000 0.73540  0.57620  0.23920  Biso   1.000  H
  H133     1.0000 0.23540  0.92380  0.73920  Biso   1.000  H
  H134     1.0000 0.76460  0.92380  0.76080  Biso   1.000  H
  H135     1.0000 0.73540  0.42380  0.73920  Biso   1.000  H
  H136     1.0000 0.26460  0.42380  0.76080  Biso   1.000  H
  C133     1.0000 0.91510  0.31800  0.94080  Biso   1.000  C
  C134     1.0000 0.08490  0.31800  0.55920  Biso   1.000  C
  C135     1.0000 0.41510  0.81800  0.94080  Biso   1.000  C
  C136     1.0000 0.58490  0.81800  0.55920  Biso   1.000  C
  C137     1.0000 0.08490  0.68200  0.05920  Biso   1.000  C
  C138     1.0000 0.91510  0.68200  0.44080  Biso   1.000  C
  C139     1.0000 0.58490  0.18200  0.05920  Biso   1.000  C
  C140     1.0000 0.41510  0.18200  0.44080  Biso   1.000  C
  H137     1.0000 0.94520  0.35680  0.93480  Biso   1.000  H
  H138     1.0000 0.05480  0.35680  0.56520  Biso   1.000  H
  H139     1.0000 0.44520  0.85680  0.93480  Biso   1.000  H
  H140     1.0000 0.55480  0.85680  0.56520  Biso   1.000  H
  H141     1.0000 0.05480  0.64320  0.06520  Biso   1.000  H
  H142     1.0000 0.94520  0.64320  0.43480  Biso   1.000  H
  H143     1.0000 0.55480  0.14320  0.06520  Biso   1.000  H
  H144     1.0000 0.44520  0.14320  0.43480  Biso   1.000  H
  H145     1.0000 0.94330  0.28360  0.99450  Biso   1.000  H
  H146     1.0000 0.05670  0.28360  0.50550  Biso   1.000  H
  H147     1.0000 0.44330  0.78360  0.99450  Biso   1.000  H
  H148     1.0000 0.55670  0.78360  0.50550  Biso   1.000  H
  H149     1.0000 0.05670  0.71640  0.00550  Biso   1.000  H
  H150     1.0000 0.94330  0.71640  0.49450  Biso   1.000  H
  H151     1.0000 0.55670  0.21640  0.00550  Biso   1.000  H
  H152     1.0000 0.44330  0.21640  0.49450  Biso   1.000  H
  C141     1.0000 0.87610  0.05230  0.66890  Biso   1.000  C
  C142     1.0000 0.12390  0.05230  0.83110  Biso   1.000  C
  C143     1.0000 0.37610  0.55230  0.66890  Biso   1.000  C
  C144     1.0000 0.62390  0.55230  0.83110  Biso   1.000  C
  C145     1.0000 0.12390  0.94770  0.33110  Biso   1.000  C
  C146     1.0000 0.87610  0.94770  0.16890  Biso   1.000  C
  C147     1.0000 0.62390  0.44770  0.33110  Biso   1.000  C
  C148     1.0000 0.37610  0.44770  0.16890  Biso   1.000  C
  H153     1.0000 0.88060  0.99800  0.67740  Biso   1.000  H
  H154     1.0000 0.11940  0.99800  0.82260  Biso   1.000  H
  H155     1.0000 0.38060  0.49800  0.67740  Biso   1.000  H
  H156     1.0000 0.61940  0.49800  0.82260  Biso   1.000  H
  H157     1.0000 0.11940  0.00200  0.32260  Biso   1.000  H
  H158     1.0000 0.88060  0.00200  0.17740  Biso   1.000  H
  H159     1.0000 0.61940  0.50200  0.32260  Biso   1.000  H
  H160     1.0000 0.38060  0.50200  0.17740  Biso   1.000  H
  C149     1.0000 0.80190  0.47370  0.96160  Biso   1.000  C
  C150     1.0000 0.19810  0.47370  0.53840  Biso   1.000  C
  C151     1.0000 0.30190  0.97370  0.96160  Biso   1.000  C
  C152     1.0000 0.69810  0.97370  0.53840  Biso   1.000  C
  C153     1.0000 0.19810  0.52630  0.03840  Biso   1.000  C
  C154     1.0000 0.80190  0.52630  0.46160  Biso   1.000  C
  C155     1.0000 0.69810  0.02630  0.03840  Biso   1.000  C
  C156     1.0000 0.30190  0.02630  0.46160  Biso   1.000  C
  H161     1.0000 0.79150  0.52620  0.94410  Biso   1.000  H
  H162     1.0000 0.20850  0.52620  0.55590  Biso   1.000  H
  H163     1.0000 0.29150  0.02620  0.94410  Biso   1.000  H
  H164     1.0000 0.70850  0.02620  0.55590  Biso   1.000  H
  H165     1.0000 0.20850  0.47380  0.05590  Biso   1.000  H
  H166     1.0000 0.79150  0.47380  0.44410  Biso   1.000  H
  H167     1.0000 0.70850  0.97380  0.05590  Biso   1.000  H
  H168     1.0000 0.29150  0.97380  0.44410  Biso   1.000  H
  C157     1.0000 0.12380  0.67920  0.56430  Biso   1.000  C
  C158     1.0000 0.87620  0.67920  0.93570  Biso   1.000  C
  C159     1.0000 0.62380  0.17920  0.56430  Biso   1.000  C
  C160     1.0000 0.37620  0.17920  0.93570  Biso   1.000  C
  C161     1.0000 0.87620  0.32080  0.43570  Biso   1.000  C
  C162     1.0000 0.12380  0.32080  0.06430  Biso   1.000  C
  C163     1.0000 0.37620  0.82080  0.43570  Biso   1.000  C
  C164     1.0000 0.62380  0.82080  0.06430  Biso   1.000  C
  H169     1.0000 0.09970  0.72930  0.54750  Biso   1.000  H
  H170     1.0000 0.90030  0.72930  0.95250  Biso   1.000  H
  H171     1.0000 0.59970  0.22930  0.54750  Biso   1.000  H
  H172     1.0000 0.40030  0.22930  0.95250  Biso   1.000  H
  H173     1.0000 0.90030  0.27070  0.45250  Biso   1.000  H
  H174     1.0000 0.09970  0.27070  0.04750  Biso   1.000  H
  H175     1.0000 0.40030  0.77070  0.45250  Biso   1.000  H
  H176     1.0000 0.59970  0.77070  0.04750  Biso   1.000  H
  H177     1.0000 0.11640  0.65340  0.50490  Biso   1.000  H
  H178     1.0000 0.88360  0.65340  0.99510  Biso   1.000  H
  H179     1.0000 0.61640  0.15340  0.50490  Biso   1.000  H
  H180     1.0000 0.38360  0.15340  0.99510  Biso   1.000  H
  H181     1.0000 0.88360  0.34660  0.49510  Biso   1.000  H
  H182     1.0000 0.11640  0.34660  0.00490  Biso   1.000  H
  H183     1.0000 0.38360  0.84660  0.49510  Biso   1.000  H
  H184     1.0000 0.61640  0.84660  0.00490  Biso   1.000  H
  C165     1.0000 0.09970  0.63420  0.61200  Biso   1.000  C
  C166     1.0000 0.90030  0.63420  0.88800  Biso   1.000  C
  C167     1.0000 0.59970  0.13420  0.61200  Biso   1.000  C
  C168     1.0000 0.40030  0.13420  0.88800  Biso   1.000  C
  C169     1.0000 0.90030  0.36580  0.38800  Biso   1.000  C
  C170     1.0000 0.09970  0.36580  0.11200  Biso   1.000  C
  C171     1.0000 0.40030  0.86580  0.38800  Biso   1.000  C
  C172     1.0000 0.59970  0.86580  0.11200  Biso   1.000  C
  H185     1.0000 0.08960  0.58160  0.58420  Biso   1.000  H
  H186     1.0000 0.91040  0.58160  0.91580  Biso   1.000  H
  H187     1.0000 0.58960  0.08160  0.58420  Biso   1.000  H
  H188     1.0000 0.41040  0.08160  0.91580  Biso   1.000  H
  H189     1.0000 0.91040  0.41840  0.41580  Biso   1.000  H
  H190     1.0000 0.08960  0.41840  0.08420  Biso   1.000  H
  H191     1.0000 0.41040  0.91840  0.41580  Biso   1.000  H
  H192     1.0000 0.58960  0.91840  0.08420  Biso   1.000  H
  H193     1.0000 0.05790  0.65670  0.60730  Biso   1.000  H
  H194     1.0000 0.94210  0.65670  0.89270  Biso   1.000  H
  H195     1.0000 0.55790  0.15670  0.60730  Biso   1.000  H
  H196     1.0000 0.44210  0.15670  0.89270  Biso   1.000  H
  H197     1.0000 0.94210  0.34330  0.39270  Biso   1.000  H
  H198     1.0000 0.05790  0.34330  0.10730  Biso   1.000  H
  H199     1.0000 0.44210  0.84330  0.39270  Biso   1.000  H
  H200     1.0000 0.55790  0.84330  0.10730  Biso   1.000  H
  O1       1.0000 0.15000  0.63100  0.70700  Biso   1.000  O
  O2       1.0000 0.85000  0.63100  0.79300  Biso   1.000  O
  O3       1.0000 0.65000  0.13100  0.70700  Biso   1.000  O
  O4       1.0000 0.35000  0.13100  0.79300  Biso   1.000  O
  O5       1.0000 0.85000  0.36900  0.29300  Biso   1.000  O
  O6       1.0000 0.15000  0.36900  0.20700  Biso   1.000  O
  O7       1.0000 0.35000  0.86900  0.29300  Biso   1.000  O
  O8       1.0000 0.65000  0.86900  0.20700  Biso   1.000  O
  C173     1.0000 0.21600  0.64000  0.71700  Biso   1.000  C
  C174     1.0000 0.78400  0.64000  0.78300  Biso   1.000  C
  C175     1.0000 0.71600  0.14000  0.71700  Biso   1.000  C
  C176     1.0000 0.28400  0.14000  0.78300  Biso   1.000  C
  C177     1.0000 0.78400  0.36000  0.28300  Biso   1.000  C
  C178     1.0000 0.21600  0.36000  0.21700  Biso   1.000  C
  C179     1.0000 0.28400  0.86000  0.28300  Biso   1.000  C
  C180     1.0000 0.71600  0.86000  0.21700  Biso   1.000  C
  H201     1.0000 0.23640  0.59050  0.71400  Biso   1.000  H
  H202     1.0000 0.76360  0.59050  0.78600  Biso   1.000  H
  H203     1.0000 0.73640  0.09050  0.71400  Biso   1.000  H
  H204     1.0000 0.26360  0.09050  0.78600  Biso   1.000  H
  H205     1.0000 0.76360  0.40950  0.28600  Biso   1.000  H
  H206     1.0000 0.23640  0.40950  0.21400  Biso   1.000  H
  H207     1.0000 0.26360  0.90950  0.28600  Biso   1.000  H
  H208     1.0000 0.73640  0.90950  0.21400  Biso   1.000  H
  H209     1.0000 0.24670  0.66830  0.77600  Biso   1.000  H
  H210     1.0000 0.75330  0.66830  0.72400  Biso   1.000  H
  H211     1.0000 0.74670  0.16830  0.77600  Biso   1.000  H
  H212     1.0000 0.25330  0.16830  0.72400  Biso   1.000  H
  H213     1.0000 0.75330  0.33170  0.22400  Biso   1.000  H
  H214     1.0000 0.24670  0.33170  0.27600  Biso   1.000  H
  H215     1.0000 0.25330  0.83170  0.22400  Biso   1.000  H
  H216     1.0000 0.74670  0.83170  0.27600  Biso   1.000  H
  C181     1.0000 0.19330  0.69140  0.62400  Biso   1.000  C
  C182     1.0000 0.80670  0.69140  0.87600  Biso   1.000  C
  C183     1.0000 0.69330  0.19140  0.62400  Biso   1.000  C
  C184     1.0000 0.30670  0.19140  0.87600  Biso   1.000  C
  C185     1.0000 0.80670  0.30860  0.37600  Biso   1.000  C
  C186     1.0000 0.19330  0.30860  0.12400  Biso   1.000  C
  C187     1.0000 0.30670  0.80860  0.37600  Biso   1.000  C
  C188     1.0000 0.69330  0.80860  0.12400  Biso   1.000  C
  H217     1.0000 0.20210  0.74670  0.64080  Biso   1.000  H
  H218     1.0000 0.79790  0.74670  0.85920  Biso   1.000  H
  H219     1.0000 0.70210  0.24670  0.64080  Biso   1.000  H
  H220     1.0000 0.29790  0.24670  0.85920  Biso   1.000  H
  H221     1.0000 0.79790  0.25330  0.35920  Biso   1.000  H
  H222     1.0000 0.20210  0.25330  0.14080  Biso   1.000  H
  H223     1.0000 0.29790  0.75330  0.35920  Biso   1.000  H
  H224     1.0000 0.70210  0.75330  0.14080  Biso   1.000  H
  H225     1.0000 0.21900  0.67620  0.59030  Biso   1.000  H
  H226     1.0000 0.78100  0.67620  0.90970  Biso   1.000  H
  H227     1.0000 0.71900  0.17620  0.59030  Biso   1.000  H
  H228     1.0000 0.28100  0.17620  0.90970  Biso   1.000  H
  H229     1.0000 0.78100  0.32380  0.40970  Biso   1.000  H
  H230     1.0000 0.21900  0.32380  0.09030  Biso   1.000  H
  H231     1.0000 0.28100  0.82380  0.40970  Biso   1.000  H
  H232     1.0000 0.71900  0.82380  0.09030  Biso   1.000  H
  O9       1.0000 0.49500  0.03300  0.19200  Biso   1.000  O
  O10      1.0000 0.50500  0.03300  0.30800  Biso   1.000  O
  O11      1.0000 0.99500  0.53300  0.19200  Biso   1.000  O
  O12      1.0000 0.00500  0.53300  0.30800  Biso   1.000  O
  O13      1.0000 0.50500  0.96700  0.80800  Biso   1.000  O
  O14      1.0000 0.49500  0.96700  0.69200  Biso   1.000  O
  O15      1.0000 0.00500  0.46700  0.80800  Biso   1.000  O
  O16      1.0000 0.99500  0.46700  0.69200  Biso   1.000  O
  O17      1.0000 0.50000  0.93800  0.25000  Biso   1.000  O
  O18      1.0000 0.00000  0.43800  0.25000  Biso   1.000  O
  O19      1.0000 0.50000  0.06200  0.75000  Biso   1.000  O
  O20      1.0000 0.00000  0.56200  0.75000  Biso   1.000  O
