data_image0
_cell_length_a       6.7101
_cell_length_b       5.136
_cell_length_c       11.7164
_cell_angle_alpha    90
_cell_angle_beta     90
_cell_angle_gamma    90

_symmetry_space_group_name_H-M    "P 1"
_symmetry_int_tables_number       1

loop_
  _symmetry_equiv_pos_as_xyz
  'x, y, z'

loop_
  _atom_site_label
  _atom_site_occupancy
  _atom_site_fract_x
  _atom_site_fract_y
  _atom_site_fract_z
  _atom_site_thermal_displace_type
  _atom_site_B_iso_or_equiv
  _atom_site_type_symbol
  Cu1      1.0000 0.50000  0.00000  0.50000  Biso   1.000  Cu
  Cu2      1.0000 0.00000  0.00000  0.00000  Biso   1.000  Cu
  O1       1.0000 0.50000  0.01670  0.67075  Biso   1.000  O
  O2       1.0000 0.00000  0.98330  0.17075  Biso   1.000  O
  O3       1.0000 0.50000  0.98330  0.32925  Biso   1.000  O
  O4       1.0000 0.00000  0.01670  0.82925  Biso   1.000  O
  O5       1.0000 0.50000  0.41440  0.61040  Biso   1.000  O
  O6       1.0000 0.00000  0.58560  0.11040  Biso   1.000  O
  O7       1.0000 0.50000  0.58560  0.38960  Biso   1.000  O
  O8       1.0000 0.00000  0.41440  0.88960  Biso   1.000  O
  O9       1.0000 0.50000  0.33330  0.79270  Biso   1.000  O
  O10      1.0000 0.00000  0.66670  0.29270  Biso   1.000  O
  O11      1.0000 0.50000  0.66670  0.20730  Biso   1.000  O
  O12      1.0000 0.00000  0.33330  0.70730  Biso   1.000  O
  N1       1.0000 0.20550  0.00000  0.50000  Biso   1.000  N
  N2       1.0000 0.29450  0.00000  0.00000  Biso   1.000  N
  N3       1.0000 0.79450  0.00000  0.50000  Biso   1.000  N
  N4       1.0000 0.70550  0.00000  0.00000  Biso   1.000  N
  N5       1.0000 0.50000  0.26300  0.69340  Biso   1.000  N
  N6       1.0000 0.00000  0.73700  0.19340  Biso   1.000  N
  N7       1.0000 0.50000  0.73700  0.30660  Biso   1.000  N
  N8       1.0000 0.00000  0.26300  0.80660  Biso   1.000  N
  C1       1.0000 0.10360  0.16790  0.43523  Biso   1.000  C
  C2       1.0000 0.39640  0.83210  0.93523  Biso   1.000  C
  C3       1.0000 0.10360  0.83210  0.56477  Biso   1.000  C
  C4       1.0000 0.39640  0.16790  0.06477  Biso   1.000  C
  C5       1.0000 0.89640  0.83210  0.56477  Biso   1.000  C
  C6       1.0000 0.60360  0.16790  0.06477  Biso   1.000  C
  C7       1.0000 0.89640  0.16790  0.43523  Biso   1.000  C
  C8       1.0000 0.60360  0.83210  0.93523  Biso   1.000  C
  H1       1.0000 0.17500  0.27700  0.38900  Biso   1.000  H
  H2       1.0000 0.32500  0.72300  0.88900  Biso   1.000  H
  H3       1.0000 0.17500  0.72300  0.61100  Biso   1.000  H
  H4       1.0000 0.32500  0.27700  0.11100  Biso   1.000  H
  H5       1.0000 0.82500  0.72300  0.61100  Biso   1.000  H
  H6       1.0000 0.67500  0.27700  0.11100  Biso   1.000  H
  H7       1.0000 0.82500  0.27700  0.38900  Biso   1.000  H
  H8       1.0000 0.67500  0.72300  0.88900  Biso   1.000  H
