data_image0
_cell_length_a       6.70122
_cell_length_b       5.11854
_cell_length_c       11.6351
_cell_angle_alpha    90
_cell_angle_beta     90
_cell_angle_gamma    90

_symmetry_space_group_name_H-M    "P 1"
_symmetry_int_tables_number       1

loop_
  _symmetry_equiv_pos_as_xyz
  'x, y, z'

loop_
  _atom_site_label
  _atom_site_occupancy
  _atom_site_fract_x
  _atom_site_fract_y
  _atom_site_fract_z
  _atom_site_thermal_displace_type
  _atom_site_B_iso_or_equiv
  _atom_site_type_symbol
  Cu1      1.0000 0.50000  0.50000  0.50000  Biso   1.000  Cu
  Cu2      1.0000 0.00000  0.50000  0.00000  Biso   1.000  Cu
  O1       1.0000 0.50000  0.48763  0.67200  Biso   1.000  O
  O2       1.0000 0.00000  0.51237  0.17200  Biso   1.000  O
  O3       1.0000 0.00000  0.48763  0.82800  Biso   1.000  O
  O4       1.0000 0.50000  0.51237  0.32800  Biso   1.000  O
  O5       1.0000 0.50000  0.08704  0.61141  Biso   1.000  O
  O6       1.0000 0.00000  0.91296  0.11141  Biso   1.000  O
  O7       1.0000 0.00000  0.08704  0.88859  Biso   1.000  O
  O8       1.0000 0.50000  0.91296  0.38859  Biso   1.000  O
  O9       1.0000 0.50000  0.16892  0.79527  Biso   1.000  O
  O10      1.0000 0.00000  0.83108  0.29527  Biso   1.000  O
  O11      1.0000 0.00000  0.16892  0.70473  Biso   1.000  O
  O12      1.0000 0.50000  0.83108  0.20473  Biso   1.000  O
  N1       1.0000 0.50000  0.24036  0.69482  Biso   1.000  N
  N2       1.0000 0.00000  0.75964  0.19482  Biso   1.000  N
  N3       1.0000 0.00000  0.24036  0.80518  Biso   1.000  N
  N4       1.0000 0.50000  0.75964  0.30518  Biso   1.000  N
  N5       1.0000 0.79495  0.50000  0.50000  Biso   1.000  N
  N6       1.0000 0.70505  0.50000  0.00000  Biso   1.000  N
  N7       1.0000 0.20505  0.50000  0.50000  Biso   1.000  N
  N8       1.0000 0.29495  0.50000  0.00000  Biso   1.000  N
  C1       1.0000 0.89626  0.67099  0.56461  Biso   1.000  C
  C2       1.0000 0.60374  0.32901  0.06461  Biso   1.000  C
  C3       1.0000 0.60374  0.67099  0.93539  Biso   1.000  C
  C4       1.0000 0.89626  0.32901  0.43539  Biso   1.000  C
  C5       1.0000 0.10374  0.32901  0.43539  Biso   1.000  C
  C6       1.0000 0.39626  0.67099  0.93539  Biso   1.000  C
  C7       1.0000 0.39626  0.32901  0.06461  Biso   1.000  C
  C8       1.0000 0.10374  0.67099  0.56461  Biso   1.000  C
  H1       1.0000 0.81320  0.80600  0.61530  Biso   1.000  H
  H2       1.0000 0.68680  0.19400  0.11530  Biso   1.000  H
  H3       1.0000 0.68680  0.80600  0.88470  Biso   1.000  H
  H4       1.0000 0.81320  0.19400  0.38470  Biso   1.000  H
  H5       1.0000 0.18680  0.19400  0.38470  Biso   1.000  H
  H6       1.0000 0.31320  0.80600  0.88470  Biso   1.000  H
  H7       1.0000 0.31320  0.19400  0.11530  Biso   1.000  H
  H8       1.0000 0.18680  0.80600  0.61530  Biso   1.000  H
