data_image0
_cell_length_a       9.734
_cell_length_b       9.729
_cell_length_c       8.132
_cell_angle_alpha    90
_cell_angle_beta     120.855
_cell_angle_gamma    90

_symmetry_space_group_name_H-M    "P 1"
_symmetry_int_tables_number       1

loop_
  _symmetry_equiv_pos_as_xyz
  'x, y, z'

loop_
  _atom_site_label
  _atom_site_occupancy
  _atom_site_fract_x
  _atom_site_fract_y
  _atom_site_fract_z
  _atom_site_thermal_displace_type
  _atom_site_B_iso_or_equiv
  _atom_site_type_symbol
  Cu1      1.0000 0.50000  0.50000  0.50000  Biso   1.000  Cu
  Cu2      1.0000 0.00000  0.00000  0.50000  Biso   1.000  Cu
  N1       1.0000 0.64951  0.34969  0.50410  Biso   1.000  N
  N2       1.0000 0.14951  0.84969  0.50410  Biso   1.000  N
  N3       1.0000 0.35049  0.34969  0.49590  Biso   1.000  N
  N4       1.0000 0.85049  0.84969  0.49590  Biso   1.000  N
  N5       1.0000 0.35049  0.65031  0.49590  Biso   1.000  N
  N6       1.0000 0.85049  0.15031  0.49590  Biso   1.000  N
  N7       1.0000 0.64951  0.65031  0.50410  Biso   1.000  N
  N8       1.0000 0.14951  0.15031  0.50410  Biso   1.000  N
  C1       1.0000 0.79760  0.33056  0.65120  Biso   1.000  C
  C2       1.0000 0.29760  0.83056  0.65120  Biso   1.000  C
  C3       1.0000 0.20240  0.33056  0.34880  Biso   1.000  C
  C4       1.0000 0.70240  0.83056  0.34880  Biso   1.000  C
  C5       1.0000 0.20240  0.66944  0.34880  Biso   1.000  C
  C6       1.0000 0.70240  0.16944  0.34880  Biso   1.000  C
  C7       1.0000 0.79760  0.66944  0.65120  Biso   1.000  C
  C8       1.0000 0.29760  0.16944  0.65120  Biso   1.000  C
  H1       1.0000 0.83600  0.38200  0.75500  Biso   1.000  H
  H2       1.0000 0.33600  0.88200  0.75500  Biso   1.000  H
  H3       1.0000 0.16400  0.38200  0.24500  Biso   1.000  H
  H4       1.0000 0.66400  0.88200  0.24500  Biso   1.000  H
  H5       1.0000 0.16400  0.61800  0.24500  Biso   1.000  H
  H6       1.0000 0.66400  0.11800  0.24500  Biso   1.000  H
  H7       1.0000 0.83600  0.61800  0.75500  Biso   1.000  H
  H8       1.0000 0.33600  0.11800  0.75500  Biso   1.000  H
  C9       1.0000 0.60210  0.26743  0.35310  Biso   1.000  C
  C10      1.0000 0.10210  0.76743  0.35310  Biso   1.000  C
  C11      1.0000 0.39790  0.26743  0.64690  Biso   1.000  C
  C12      1.0000 0.89790  0.76743  0.64690  Biso   1.000  C
  C13      1.0000 0.39790  0.73257  0.64690  Biso   1.000  C
  C14      1.0000 0.89790  0.23257  0.64690  Biso   1.000  C
  C15      1.0000 0.60210  0.73257  0.35310  Biso   1.000  C
  C16      1.0000 0.10210  0.23257  0.35310  Biso   1.000  C
  H9       1.0000 0.49600  0.28100  0.23700  Biso   1.000  H
  H10      1.0000 0.99600  0.78100  0.23700  Biso   1.000  H
  H11      1.0000 0.50400  0.28100  0.76300  Biso   1.000  H
  H12      1.0000 0.00400  0.78100  0.76300  Biso   1.000  H
  H13      1.0000 0.50400  0.71900  0.76300  Biso   1.000  H
  H14      1.0000 0.00400  0.21900  0.76300  Biso   1.000  H
  H15      1.0000 0.49600  0.71900  0.23700  Biso   1.000  H
  H16      1.0000 0.99600  0.21900  0.23700  Biso   1.000  H
  O1       1.0000 0.36470  0.50000  0.16210  Biso   1.000  O
  O2       1.0000 0.86470  0.00000  0.16210  Biso   1.000  O
  O3       1.0000 0.63530  0.50000  0.83790  Biso   1.000  O
  O4       1.0000 0.13530  0.00000  0.83790  Biso   1.000  O
  O5       1.0000 0.10050  0.50000  0.91710  Biso   1.000  O
  O6       1.0000 0.60050  0.00000  0.91710  Biso   1.000  O
  O7       1.0000 0.89950  0.50000  0.08290  Biso   1.000  O
  O8       1.0000 0.39950  0.00000  0.08290  Biso   1.000  O
  Cl1      1.0000 0.25961  0.48000  0.96100  Biso   1.000  Cl
  Cl2      1.0000 0.75961  0.98000  0.96100  Biso   1.000  Cl
  Cl3      1.0000 0.74039  0.48000  0.03900  Biso   1.000  Cl
  Cl4      1.0000 0.24039  0.98000  0.03900  Biso   1.000  Cl
  Cl5      1.0000 0.74039  0.52000  0.03900  Biso   1.000  Cl
  Cl6      1.0000 0.24039  0.02000  0.03900  Biso   1.000  Cl
  Cl7      1.0000 0.25961  0.52000  0.96100  Biso   1.000  Cl
  Cl8      1.0000 0.75961  0.02000  0.96100  Biso   1.000  Cl
  O9       1.0000 0.27670  0.34040  0.92850  Biso   1.000  O
  O10      1.0000 0.77670  0.84040  0.92850  Biso   1.000  O
  O11      1.0000 0.72330  0.34040  0.07150  Biso   1.000  O
  O12      1.0000 0.22330  0.84040  0.07150  Biso   1.000  O
  O13      1.0000 0.72330  0.65960  0.07150  Biso   1.000  O
  O14      1.0000 0.22330  0.15960  0.07150  Biso   1.000  O
  O15      1.0000 0.27670  0.65960  0.92850  Biso   1.000  O
  O16      1.0000 0.77670  0.15960  0.92850  Biso   1.000  O
  O17      1.0000 0.29830  0.56670  0.85460  Biso   1.000  O
  O18      1.0000 0.79830  0.06670  0.85460  Biso   1.000  O
  O19      1.0000 0.70170  0.56670  0.14540  Biso   1.000  O
  O20      1.0000 0.20170  0.06670  0.14540  Biso   1.000  O
  O21      1.0000 0.70170  0.43330  0.14540  Biso   1.000  O
  O22      1.0000 0.20170  0.93330  0.14540  Biso   1.000  O
  O23      1.0000 0.29830  0.43330  0.85460  Biso   1.000  O
  O24      1.0000 0.79830  0.93330  0.85460  Biso   1.000  O
