data_image0
_cell_length_a       14.123
_cell_length_b       9.781
_cell_length_c       8.984
_cell_angle_alpha    90
_cell_angle_beta     147.12
_cell_angle_gamma    90

_symmetry_space_group_name_H-M    "P 1"
_symmetry_int_tables_number       1

loop_
  _symmetry_equiv_pos_as_xyz
  'x, y, z'

loop_
  _atom_site_label
  _atom_site_occupancy
  _atom_site_fract_x
  _atom_site_fract_y
  _atom_site_fract_z
  _atom_site_thermal_displace_type
  _atom_site_B_iso_or_equiv
  _atom_site_type_symbol
  Cu1      1.0000 0.00000  0.00000  0.00000  Biso   1.000  Cu
  Cu2      1.0000 0.50000  0.50000  0.00000  Biso   1.000  Cu
  N1       1.0000 0.14570  0.15000  0.29520  Biso   1.000  N
  N2       1.0000 0.64570  0.65000  0.29520  Biso   1.000  N
  N3       1.0000 0.85430  0.15000  0.70480  Biso   1.000  N
  N4       1.0000 0.35430  0.65000  0.70480  Biso   1.000  N
  N5       1.0000 0.85430  0.85000  0.70480  Biso   1.000  N
  N6       1.0000 0.35430  0.35000  0.70480  Biso   1.000  N
  N7       1.0000 0.14570  0.85000  0.29520  Biso   1.000  N
  N8       1.0000 0.64570  0.35000  0.29520  Biso   1.000  N
  C1       1.0000 0.24950  0.23250  0.35190  Biso   1.000  C
  C2       1.0000 0.74950  0.73250  0.35190  Biso   1.000  C
  C3       1.0000 0.75050  0.23250  0.64810  Biso   1.000  C
  C4       1.0000 0.25050  0.73250  0.64810  Biso   1.000  C
  C5       1.0000 0.75050  0.76750  0.64810  Biso   1.000  C
  C6       1.0000 0.25050  0.26750  0.64810  Biso   1.000  C
  C7       1.0000 0.24950  0.76750  0.35190  Biso   1.000  C
  C8       1.0000 0.74950  0.26750  0.35190  Biso   1.000  C
  C9       1.0000 0.14590  0.16990  0.44330  Biso   1.000  C
  C10      1.0000 0.64590  0.66990  0.44330  Biso   1.000  C
  C11      1.0000 0.85410  0.16990  0.55670  Biso   1.000  C
  C12      1.0000 0.35410  0.66990  0.55670  Biso   1.000  C
  C13      1.0000 0.85410  0.83010  0.55670  Biso   1.000  C
  C14      1.0000 0.35410  0.33010  0.55670  Biso   1.000  C
  C15      1.0000 0.14590  0.83010  0.44330  Biso   1.000  C
  C16      1.0000 0.64590  0.33010  0.44330  Biso   1.000  C
  Cl1      1.0000 0.70160  0.00000  0.94190  Biso   1.000  Cl
  Cl2      1.0000 0.20160  0.50000  0.94190  Biso   1.000  Cl
  Cl3      1.0000 0.29840  0.00000  0.05810  Biso   1.000  Cl
  Cl4      1.0000 0.79840  0.50000  0.05810  Biso   1.000  Cl
  O1       1.0000 0.81560  0.00000  0.21440  Biso   1.000  O
  O2       1.0000 0.31560  0.50000  0.21440  Biso   1.000  O
  O3       1.0000 0.18440  0.00000  0.78560  Biso   1.000  O
  O4       1.0000 0.68440  0.50000  0.78560  Biso   1.000  O
  O5       1.0000 0.79820  0.00000  0.93390  Biso   1.000  O
  O6       1.0000 0.29820  0.50000  0.93390  Biso   1.000  O
  O7       1.0000 0.20180  0.00000  0.06610  Biso   1.000  O
  O8       1.0000 0.70180  0.50000  0.06610  Biso   1.000  O
  H1       1.0000 0.25300  0.22000  0.24800  Biso   1.000  H
  H2       1.0000 0.75300  0.72000  0.24800  Biso   1.000  H
  H3       1.0000 0.74700  0.22000  0.75200  Biso   1.000  H
  H4       1.0000 0.24700  0.72000  0.75200  Biso   1.000  H
  H5       1.0000 0.74700  0.78000  0.75200  Biso   1.000  H
  H6       1.0000 0.24700  0.28000  0.75200  Biso   1.000  H
  H7       1.0000 0.25300  0.78000  0.24800  Biso   1.000  H
  H8       1.0000 0.75300  0.28000  0.24800  Biso   1.000  H
  H9       1.0000 0.06800  0.12600  0.41300  Biso   1.000  H
  H10      1.0000 0.56800  0.62600  0.41300  Biso   1.000  H
  H11      1.0000 0.93200  0.12600  0.58700  Biso   1.000  H
  H12      1.0000 0.43200  0.62600  0.58700  Biso   1.000  H
  H13      1.0000 0.93200  0.87400  0.58700  Biso   1.000  H
  H14      1.0000 0.43200  0.37400  0.58700  Biso   1.000  H
  H15      1.0000 0.06800  0.87400  0.41300  Biso   1.000  H
  H16      1.0000 0.56800  0.37400  0.41300  Biso   1.000  H
