data_image0
_cell_length_a       6.712
_cell_length_b       5.142
_cell_length_c       11.732
_cell_angle_alpha    90
_cell_angle_beta     90
_cell_angle_gamma    90

_symmetry_space_group_name_H-M    "P 1"
_symmetry_int_tables_number       1

loop_
  _symmetry_equiv_pos_as_xyz
  'x, y, z'

loop_
  _atom_site_label
  _atom_site_occupancy
  _atom_site_fract_x
  _atom_site_fract_y
  _atom_site_fract_z
  _atom_site_thermal_displace_type
  _atom_site_B_iso_or_equiv
  _atom_site_type_symbol
  Cu1      1.0000 0.00000  0.00000  0.00000  Biso   1.000  Cu
  Cu2      1.0000 0.50000  0.00000  0.50000  Biso   1.000  Cu
  C1       1.0000 0.39670  0.16650  0.93520  Biso   1.000  C
  C2       1.0000 0.10330  0.83350  0.43520  Biso   1.000  C
  C3       1.0000 0.39670  0.83350  0.06480  Biso   1.000  C
  C4       1.0000 0.10330  0.16650  0.56480  Biso   1.000  C
  C5       1.0000 0.60330  0.83350  0.06480  Biso   1.000  C
  C6       1.0000 0.89670  0.16650  0.56480  Biso   1.000  C
  C7       1.0000 0.60330  0.16650  0.93520  Biso   1.000  C
  C8       1.0000 0.89670  0.83350  0.43520  Biso   1.000  C
  H1       1.0000 0.32400  0.28800  0.89360  Biso   1.000  H
  H2       1.0000 0.17600  0.71200  0.39360  Biso   1.000  H
  H3       1.0000 0.32400  0.71200  0.10640  Biso   1.000  H
  H4       1.0000 0.17600  0.28800  0.60640  Biso   1.000  H
  H5       1.0000 0.67600  0.71200  0.10640  Biso   1.000  H
  H6       1.0000 0.82400  0.28800  0.60640  Biso   1.000  H
  H7       1.0000 0.67600  0.28800  0.89360  Biso   1.000  H
  H8       1.0000 0.82400  0.71200  0.39360  Biso   1.000  H
  N1       1.0000 0.29570  0.00000  0.00000  Biso   1.000  N
  N2       1.0000 0.20430  0.00000  0.50000  Biso   1.000  N
  N3       1.0000 0.70430  0.00000  0.00000  Biso   1.000  N
  N4       1.0000 0.79570  0.00000  0.50000  Biso   1.000  N
  N5       1.0000 0.00000  0.26260  0.19360  Biso   1.000  N
  N6       1.0000 0.50000  0.73740  0.69360  Biso   1.000  N
  N7       1.0000 0.00000  0.73740  0.80640  Biso   1.000  N
  N8       1.0000 0.50000  0.26260  0.30640  Biso   1.000  N
  O1       1.0000 0.00000  0.01770  0.17110  Biso   1.000  O
  O2       1.0000 0.50000  0.98230  0.67110  Biso   1.000  O
  O3       1.0000 0.00000  0.98230  0.82890  Biso   1.000  O
  O4       1.0000 0.50000  0.01770  0.32890  Biso   1.000  O
  O5       1.0000 0.00000  0.41380  0.11030  Biso   1.000  O
  O6       1.0000 0.50000  0.58620  0.61030  Biso   1.000  O
  O7       1.0000 0.00000  0.58620  0.88970  Biso   1.000  O
  O8       1.0000 0.50000  0.41380  0.38970  Biso   1.000  O
  O9       1.0000 0.00000  0.33350  0.29230  Biso   1.000  O
  O10      1.0000 0.50000  0.66650  0.79230  Biso   1.000  O
  O11      1.0000 0.00000  0.66650  0.70770  Biso   1.000  O
  O12      1.0000 0.50000  0.33350  0.20770  Biso   1.000  O
