data_image0
_cell_length_a       14.072
_cell_length_b       9.786
_cell_length_c       9.781
_cell_angle_alpha    90
_cell_angle_beta     96.458
_cell_angle_gamma    90

_symmetry_space_group_name_H-M    "P 1"
_symmetry_int_tables_number       1

loop_
  _symmetry_equiv_pos_as_xyz
  'x, y, z'

loop_
  _atom_site_label
  _atom_site_occupancy
  _atom_site_fract_x
  _atom_site_fract_y
  _atom_site_fract_z
  _atom_site_thermal_displace_type
  _atom_site_B_iso_or_equiv
  _atom_site_type_symbol
  Cu1      1.0000 0.00000  0.74987  0.25000  Biso   1.000  Cu
  Cu2      1.0000 0.50000  0.24987  0.25000  Biso   1.000  Cu
  Cu3      1.0000 0.00000  0.25013  0.75000  Biso   1.000  Cu
  Cu4      1.0000 0.50000  0.75013  0.75000  Biso   1.000  Cu
  Cl1      1.0000 0.73026  0.72149  0.22168  Biso   1.000  Cl
  Cl2      1.0000 0.23026  0.22149  0.22168  Biso   1.000  Cl
  Cl3      1.0000 0.26974  0.72149  0.27832  Biso   1.000  Cl
  Cl4      1.0000 0.76974  0.22149  0.27832  Biso   1.000  Cl
  Cl5      1.0000 0.26974  0.27851  0.77832  Biso   1.000  Cl
  Cl6      1.0000 0.76974  0.77851  0.77832  Biso   1.000  Cl
  Cl7      1.0000 0.73026  0.27851  0.72168  Biso   1.000  Cl
  Cl8      1.0000 0.23026  0.77851  0.72168  Biso   1.000  Cl
  O1       1.0000 0.83040  0.75820  0.21310  Biso   1.000  O
  O2       1.0000 0.33040  0.25820  0.21310  Biso   1.000  O
  O3       1.0000 0.16960  0.75820  0.28690  Biso   1.000  O
  O4       1.0000 0.66960  0.25820  0.28690  Biso   1.000  O
  O5       1.0000 0.16960  0.24180  0.78690  Biso   1.000  O
  O6       1.0000 0.66960  0.74180  0.78690  Biso   1.000  O
  O7       1.0000 0.83040  0.24180  0.71310  Biso   1.000  O
  O8       1.0000 0.33040  0.74180  0.71310  Biso   1.000  O
  O9       1.0000 0.70780  0.75640  0.35700  Biso   1.000  O
  O10      1.0000 0.20780  0.25640  0.35700  Biso   1.000  O
  O11      1.0000 0.29220  0.75640  0.14300  Biso   1.000  O
  O12      1.0000 0.79220  0.25640  0.14300  Biso   1.000  O
  O13      1.0000 0.29220  0.24360  0.64300  Biso   1.000  O
  O14      1.0000 0.79220  0.74360  0.64300  Biso   1.000  O
  O15      1.0000 0.70780  0.24360  0.85700  Biso   1.000  O
  O16      1.0000 0.20780  0.74360  0.85700  Biso   1.000  O
  O17      1.0000 0.72140  0.57550  0.20210  Biso   1.000  O
  O18      1.0000 0.22140  0.07550  0.20210  Biso   1.000  O
  O19      1.0000 0.27860  0.57550  0.29790  Biso   1.000  O
  O20      1.0000 0.77860  0.07550  0.29790  Biso   1.000  O
  O21      1.0000 0.27860  0.42450  0.79790  Biso   1.000  O
  O22      1.0000 0.77860  0.92450  0.79790  Biso   1.000  O
  O23      1.0000 0.72140  0.42450  0.70210  Biso   1.000  O
  O24      1.0000 0.22140  0.92450  0.70210  Biso   1.000  O
  O25      1.0000 0.66980  0.79300  0.11960  Biso   1.000  O
  O26      1.0000 0.16980  0.29300  0.11960  Biso   1.000  O
  O27      1.0000 0.33020  0.79300  0.38040  Biso   1.000  O
  O28      1.0000 0.83020  0.29300  0.38040  Biso   1.000  O
  O29      1.0000 0.33020  0.20700  0.88040  Biso   1.000  O
  O30      1.0000 0.83020  0.70700  0.88040  Biso   1.000  O
  O31      1.0000 0.66980  0.20700  0.61960  Biso   1.000  O
  O32      1.0000 0.16980  0.70700  0.61960  Biso   1.000  O
  N1       1.0000 0.00130  0.90070  0.10120  Biso   1.000  N
  N2       1.0000 0.50130  0.40070  0.10120  Biso   1.000  N
  N3       1.0000 0.99870  0.90070  0.39880  Biso   1.000  N
  N4       1.0000 0.49870  0.40070  0.39880  Biso   1.000  N
  N5       1.0000 0.99870  0.09930  0.89880  Biso   1.000  N
  N6       1.0000 0.49870  0.59930  0.89880  Biso   1.000  N
  N7       1.0000 0.00130  0.09930  0.60120  Biso   1.000  N
  N8       1.0000 0.50130  0.59930  0.60120  Biso   1.000  N
  C1       1.0000 0.92370  0.97820  0.06790  Biso   1.000  C
  C2       1.0000 0.42370  0.47820  0.06790  Biso   1.000  C
  C3       1.0000 0.07630  0.97820  0.43210  Biso   1.000  C
  C4       1.0000 0.57630  0.47820  0.43210  Biso   1.000  C
  C5       1.0000 0.07630  0.02180  0.93210  Biso   1.000  C
  C6       1.0000 0.57630  0.52180  0.93210  Biso   1.000  C
  C7       1.0000 0.92370  0.02180  0.56790  Biso   1.000  C
  C8       1.0000 0.42370  0.52180  0.56790  Biso   1.000  C
  H1       1.0000 0.86900  0.96700  0.12000  Biso   1.000  H
  H2       1.0000 0.36900  0.46700  0.12000  Biso   1.000  H
  H3       1.0000 0.13100  0.96700  0.38000  Biso   1.000  H
  H4       1.0000 0.63100  0.46700  0.38000  Biso   1.000  H
  H5       1.0000 0.13100  0.03300  0.88000  Biso   1.000  H
  H6       1.0000 0.63100  0.53300  0.88000  Biso   1.000  H
  H7       1.0000 0.86900  0.03300  0.62000  Biso   1.000  H
  H8       1.0000 0.36900  0.53300  0.62000  Biso   1.000  H
  C9       1.0000 0.07800  0.92280  0.03370  Biso   1.000  C
  C10      1.0000 0.57800  0.42280  0.03370  Biso   1.000  C
  C11      1.0000 0.92200  0.92280  0.46630  Biso   1.000  C
  C12      1.0000 0.42200  0.42280  0.46630  Biso   1.000  C
  C13      1.0000 0.92200  0.07720  0.96630  Biso   1.000  C
  C14      1.0000 0.42200  0.57720  0.96630  Biso   1.000  C
  C15      1.0000 0.07800  0.07720  0.53370  Biso   1.000  C
  C16      1.0000 0.57800  0.57720  0.53370  Biso   1.000  C
  H9       1.0000 0.13200  0.87500  0.05500  Biso   1.000  H
  H10      1.0000 0.63200  0.37500  0.05500  Biso   1.000  H
  H11      1.0000 0.86800  0.87500  0.44500  Biso   1.000  H
  H12      1.0000 0.36800  0.37500  0.44500  Biso   1.000  H
  H13      1.0000 0.86800  0.12500  0.94500  Biso   1.000  H
  H14      1.0000 0.36800  0.62500  0.94500  Biso   1.000  H
  H15      1.0000 0.13200  0.12500  0.55500  Biso   1.000  H
  H16      1.0000 0.63200  0.62500  0.55500  Biso   1.000  H
  N9       1.0000 0.00245  0.59830  0.10260  Biso   1.000  N
  N10      1.0000 0.50245  0.09830  0.10260  Biso   1.000  N
  N11      1.0000 0.99755  0.59830  0.39740  Biso   1.000  N
  N12      1.0000 0.49755  0.09830  0.39740  Biso   1.000  N
  N13      1.0000 0.99755  0.40170  0.89740  Biso   1.000  N
  N14      1.0000 0.49755  0.90170  0.89740  Biso   1.000  N
  N15      1.0000 0.00245  0.40170  0.60260  Biso   1.000  N
  N16      1.0000 0.50245  0.90170  0.60260  Biso   1.000  N
  C17      1.0000 0.92760  0.51330  0.07810  Biso   1.000  C
  C18      1.0000 0.42760  0.01330  0.07810  Biso   1.000  C
  C19      1.0000 0.07240  0.51330  0.42190  Biso   1.000  C
  C20      1.0000 0.57240  0.01330  0.42190  Biso   1.000  C
  C21      1.0000 0.07240  0.48670  0.92190  Biso   1.000  C
  C22      1.0000 0.57240  0.98670  0.92190  Biso   1.000  C
  C23      1.0000 0.92760  0.48670  0.57810  Biso   1.000  C
  C24      1.0000 0.42760  0.98670  0.57810  Biso   1.000  C
  H17      1.0000 0.87500  0.52000  0.12900  Biso   1.000  H
  H18      1.0000 0.37500  0.02000  0.12900  Biso   1.000  H
  H19      1.0000 0.12500  0.52000  0.37100  Biso   1.000  H
  H20      1.0000 0.62500  0.02000  0.37100  Biso   1.000  H
  H21      1.0000 0.12500  0.48000  0.87100  Biso   1.000  H
  H22      1.0000 0.62500  0.98000  0.87100  Biso   1.000  H
  H23      1.0000 0.87500  0.48000  0.62900  Biso   1.000  H
  H24      1.0000 0.37500  0.98000  0.62900  Biso   1.000  H
  C25      1.0000 0.07470  0.58450  0.02470  Biso   1.000  C
  C26      1.0000 0.57470  0.08450  0.02470  Biso   1.000  C
  C27      1.0000 0.92530  0.58450  0.47530  Biso   1.000  C
  C28      1.0000 0.42530  0.08450  0.47530  Biso   1.000  C
  C29      1.0000 0.92530  0.41550  0.97530  Biso   1.000  C
  C30      1.0000 0.42530  0.91550  0.97530  Biso   1.000  C
  C31      1.0000 0.07470  0.41550  0.52470  Biso   1.000  C
  C32      1.0000 0.57470  0.91550  0.52470  Biso   1.000  C
  H25      1.0000 0.12800  0.64100  0.04100  Biso   1.000  H
  H26      1.0000 0.62800  0.14100  0.04100  Biso   1.000  H
  H27      1.0000 0.87200  0.64100  0.45900  Biso   1.000  H
  H28      1.0000 0.37200  0.14100  0.45900  Biso   1.000  H
  H29      1.0000 0.87200  0.35900  0.95900  Biso   1.000  H
  H30      1.0000 0.37200  0.85900  0.95900  Biso   1.000  H
  H31      1.0000 0.12800  0.35900  0.54100  Biso   1.000  H
  H32      1.0000 0.62800  0.85900  0.54100  Biso   1.000  H
