data_image0
_cell_length_a       13.884
_cell_length_b       13.646
_cell_length_c       6.403
_cell_angle_alpha    90
_cell_angle_beta     90
_cell_angle_gamma    90

_symmetry_space_group_name_H-M    "P 1"
_symmetry_int_tables_number       1

loop_
  _symmetry_equiv_pos_as_xyz
  'x, y, z'

loop_
  _atom_site_label
  _atom_site_occupancy
  _atom_site_fract_x
  _atom_site_fract_y
  _atom_site_fract_z
  _atom_site_thermal_displace_type
  _atom_site_B_iso_or_equiv
  _atom_site_type_symbol
  Cu1      1.0000 0.50000  0.38730  0.17750  Biso   1.000  Cu
  Cu2      1.0000 0.00000  0.88730  0.17750  Biso   1.000  Cu
  Cu3      1.0000 0.50000  0.61270  0.67750  Biso   1.000  Cu
  Cu4      1.0000 0.00000  0.11270  0.67750  Biso   1.000  Cu
  C1       1.0000 0.30900  0.34680  0.34410  Biso   1.000  C
  C2       1.0000 0.80900  0.84680  0.34410  Biso   1.000  C
  C3       1.0000 0.69100  0.34680  0.34410  Biso   1.000  C
  C4       1.0000 0.19100  0.84680  0.34410  Biso   1.000  C
  C5       1.0000 0.30900  0.65320  0.84410  Biso   1.000  C
  C6       1.0000 0.80900  0.15320  0.84410  Biso   1.000  C
  C7       1.0000 0.69100  0.65320  0.84410  Biso   1.000  C
  C8       1.0000 0.19100  0.15320  0.84410  Biso   1.000  C
  C9       1.0000 0.20770  0.33350  0.36300  Biso   1.000  C
  C10      1.0000 0.70770  0.83350  0.36300  Biso   1.000  C
  C11      1.0000 0.79230  0.33350  0.36300  Biso   1.000  C
  C12      1.0000 0.29230  0.83350  0.36300  Biso   1.000  C
  C13      1.0000 0.20770  0.66650  0.86300  Biso   1.000  C
  C14      1.0000 0.70770  0.16650  0.86300  Biso   1.000  C
  C15      1.0000 0.79230  0.66650  0.86300  Biso   1.000  C
  C16      1.0000 0.29230  0.16650  0.86300  Biso   1.000  C
  C17      1.0000 0.15910  0.37080  0.21280  Biso   1.000  C
  C18      1.0000 0.65910  0.87080  0.21280  Biso   1.000  C
  C19      1.0000 0.84090  0.37080  0.21280  Biso   1.000  C
  C20      1.0000 0.34090  0.87080  0.21280  Biso   1.000  C
  C21      1.0000 0.15910  0.62920  0.71280  Biso   1.000  C
  C22      1.0000 0.65910  0.12920  0.71280  Biso   1.000  C
  C23      1.0000 0.84090  0.62920  0.71280  Biso   1.000  C
  C24      1.0000 0.34090  0.12920  0.71280  Biso   1.000  C
  C25      1.0000 0.20270  0.40770  0.02600  Biso   1.000  C
  C26      1.0000 0.70270  0.90770  0.02600  Biso   1.000  C
  C27      1.0000 0.79730  0.40770  0.02600  Biso   1.000  C
  C28      1.0000 0.29730  0.90770  0.02600  Biso   1.000  C
  C29      1.0000 0.20270  0.59230  0.52600  Biso   1.000  C
  C30      1.0000 0.70270  0.09230  0.52600  Biso   1.000  C
  C31      1.0000 0.79730  0.59230  0.52600  Biso   1.000  C
  C32      1.0000 0.29730  0.09230  0.52600  Biso   1.000  C
  C33      1.0000 0.30080  0.41660  0.01790  Biso   1.000  C
  C34      1.0000 0.80080  0.91660  0.01790  Biso   1.000  C
  C35      1.0000 0.69920  0.41660  0.01790  Biso   1.000  C
  C36      1.0000 0.19920  0.91660  0.01790  Biso   1.000  C
  C37      1.0000 0.30080  0.58340  0.51790  Biso   1.000  C
  C38      1.0000 0.80080  0.08340  0.51790  Biso   1.000  C
  C39      1.0000 0.69920  0.58340  0.51790  Biso   1.000  C
  C40      1.0000 0.19920  0.08340  0.51790  Biso   1.000  C
  N1       1.0000 0.50000  0.25430  0.30030  Biso   1.000  N
  N2       1.0000 0.00000  0.75430  0.30030  Biso   1.000  N
  N3       1.0000 0.50000  0.74570  0.80030  Biso   1.000  N
  N4       1.0000 0.00000  0.24570  0.80030  Biso   1.000  N
  N5       1.0000 0.50000  0.18230  0.21140  Biso   1.000  N
  N6       1.0000 0.00000  0.68230  0.21140  Biso   1.000  N
  N7       1.0000 0.50000  0.81770  0.71140  Biso   1.000  N
  N8       1.0000 0.00000  0.31770  0.71140  Biso   1.000  N
  N9       1.0000 0.50000  0.11200  0.13530  Biso   1.000  N
  N10      1.0000 0.00000  0.61200  0.13530  Biso   1.000  N
  N11      1.0000 0.50000  0.88800  0.63530  Biso   1.000  N
  N12      1.0000 0.00000  0.38800  0.63530  Biso   1.000  N
  N13      1.0000 0.50000  0.52500  0.06620  Biso   1.000  N
  N14      1.0000 0.00000  0.02500  0.06620  Biso   1.000  N
  N15      1.0000 0.50000  0.47500  0.56620  Biso   1.000  N
  N16      1.0000 0.00000  0.97500  0.56620  Biso   1.000  N
  N17      1.0000 0.50000  0.59390  0.18920  Biso   1.000  N
  N18      1.0000 0.00000  0.09390  0.18920  Biso   1.000  N
  N19      1.0000 0.50000  0.40610  0.68920  Biso   1.000  N
  N20      1.0000 0.00000  0.90610  0.68920  Biso   1.000  N
  N21      1.0000 0.50000  0.66300  0.30280  Biso   1.000  N
  N22      1.0000 0.00000  0.16300  0.30280  Biso   1.000  N
  N23      1.0000 0.50000  0.33700  0.80280  Biso   1.000  N
  N24      1.0000 0.00000  0.83700  0.80280  Biso   1.000  N
  N25      1.0000 0.35300  0.38460  0.17540  Biso   1.000  N
  N26      1.0000 0.85300  0.88460  0.17540  Biso   1.000  N
  N27      1.0000 0.64700  0.38460  0.17540  Biso   1.000  N
  N28      1.0000 0.14700  0.88460  0.17540  Biso   1.000  N
  N29      1.0000 0.35300  0.61540  0.67540  Biso   1.000  N
  N30      1.0000 0.85300  0.11540  0.67540  Biso   1.000  N
  N31      1.0000 0.64700  0.61540  0.67540  Biso   1.000  N
  N32      1.0000 0.14700  0.11540  0.67540  Biso   1.000  N
