data_image0
_cell_length_a       15.4223
_cell_length_b       19.5085
_cell_length_c       28.1607
_cell_angle_alpha    100.656
_cell_angle_beta     105.671
_cell_angle_gamma    102.75

_symmetry_space_group_name_H-M    "P 1"
_symmetry_int_tables_number       1

loop_
  _symmetry_equiv_pos_as_xyz
  'x, y, z'

loop_
  _atom_site_label
  _atom_site_occupancy
  _atom_site_fract_x
  _atom_site_fract_y
  _atom_site_fract_z
  _atom_site_thermal_displace_type
  _atom_site_B_iso_or_equiv
  _atom_site_type_symbol
  Br1      1.0000 0.84923  0.10832  0.55790  Biso   1.000  Br
  Br2      1.0000 0.15077  0.89168  0.44210  Biso   1.000  Br
  Br3      1.0000 0.66648  0.99472  0.40202  Biso   1.000  Br
  Br4      1.0000 0.33352  0.00528  0.59798  Biso   1.000  Br
  Br5      1.0000 0.13219  0.49506  0.09955  Biso   1.000  Br
  Br6      1.0000 0.86781  0.50494  0.90045  Biso   1.000  Br
  Cu1      1.0000 0.76162  0.10944  0.46645  Biso   1.000  Cu
  Cu2      1.0000 0.23838  0.89056  0.53355  Biso   1.000  Cu
  Cu3      1.0000 0.21988  0.43022  0.03545  Biso   1.000  Cu
  Cu4      1.0000 0.78012  0.56978  0.96455  Biso   1.000  Cu
  O1       1.0000 0.14040  0.77640  0.17650  Biso   1.000  O
  O2       1.0000 0.85960  0.22360  0.82350  Biso   1.000  O
  O3       1.0000 0.08560  0.80470  0.25656  Biso   1.000  O
  O4       1.0000 0.91440  0.19530  0.74344  Biso   1.000  O
  O5       1.0000 0.16210  0.12720  0.38920  Biso   1.000  O
  O6       1.0000 0.83790  0.87280  0.61080  Biso   1.000  O
  O7       1.0000 0.23080  0.22940  0.35200  Biso   1.000  O
  O8       1.0000 0.76920  0.77060  0.64800  Biso   1.000  O
  O9       1.0000 0.36610  0.17160  0.15440  Biso   1.000  O
  O10      1.0000 0.63390  0.82840  0.84560  Biso   1.000  O
  O11      1.0000 0.34410  0.03610  0.10190  Biso   1.000  O
  O12      1.0000 0.65590  0.96390  0.89810  Biso   1.000  O
  O13      1.0000 0.82880  0.44190  0.39945  Biso   1.000  O
  O14      1.0000 0.17120  0.55810  0.60055  Biso   1.000  O
  O15      1.0000 0.82010  0.44050  0.30650  Biso   1.000  O
  O16      1.0000 0.17990  0.55950  0.69350  Biso   1.000  O
  O17      1.0000 0.62600  0.67430  0.20770  Biso   1.000  O
  O18      1.0000 0.37400  0.32570  0.79230  Biso   1.000  O
  O19      1.0000 0.58250  0.77660  0.26100  Biso   1.000  O
  O20      1.0000 0.41750  0.22340  0.73900  Biso   1.000  O
  O21      1.0000 0.62890  0.80170  0.49380  Biso   1.000  O
  O22      1.0000 0.37110  0.19830  0.50620  Biso   1.000  O
  O23      1.0000 0.67330  0.69350  0.52500  Biso   1.000  O
  O24      1.0000 0.32670  0.30650  0.47500  Biso   1.000  O
  O25      1.0000 0.21530  0.51320  0.99570  Biso   1.000  O
  O26      1.0000 0.78470  0.48680  0.00430  Biso   1.000  O
  N1       1.0000 0.90530  0.63720  0.01570  Biso   1.000  N
  N2       1.0000 0.09470  0.36280  0.98430  Biso   1.000  N
  N3       1.0000 0.88010  0.10220  0.44700  Biso   1.000  N
  N4       1.0000 0.11990  0.89780  0.55300  Biso   1.000  N
  N5       1.0000 0.23850  0.34850  0.07240  Biso   1.000  N
  N6       1.0000 0.76150  0.65150  0.92760  Biso   1.000  N
  N7       1.0000 0.78240  0.21790  0.46120  Biso   1.000  N
  N8       1.0000 0.21760  0.78210  0.53880  Biso   1.000  N
  N9       1.0000 0.34860  0.49020  0.08060  Biso   1.000  N
  N10      1.0000 0.65140  0.50980  0.91940  Biso   1.000  N
  N11      1.0000 0.36690  0.88930  0.52550  Biso   1.000  N
  N12      1.0000 0.63310  0.11070  0.47450  Biso   1.000  N
  C1       1.0000 0.45130  0.96250  0.26260  Biso   1.000  C
  C2       1.0000 0.54870  0.03750  0.73740  Biso   1.000  C
  H1       1.0000 0.49650  0.98460  0.29750  Biso   1.000  H
  H2       1.0000 0.50350  0.01540  0.70250  Biso   1.000  H
  H3       1.0000 0.47880  0.93020  0.24350  Biso   1.000  H
  H4       1.0000 0.52120  0.06980  0.75650  Biso   1.000  H
  C3       1.0000 0.35910  0.91760  0.26540  Biso   1.000  C
  C4       1.0000 0.64090  0.08240  0.73460  Biso   1.000  C
  C5       1.0000 0.29730  0.86390  0.22150  Biso   1.000  C
  C6       1.0000 0.70270  0.13610  0.77850  Biso   1.000  C
  H5       1.0000 0.31670  0.85180  0.19250  Biso   1.000  H
  H6       1.0000 0.68330  0.14820  0.80750  Biso   1.000  H
  C7       1.0000 0.20560  0.82750  0.22050  Biso   1.000  C
  C8       1.0000 0.79440  0.17250  0.77950  Biso   1.000  C
  C9       1.0000 0.17560  0.84170  0.26190  Biso   1.000  C
  C10      1.0000 0.82440  0.15830  0.73810  Biso   1.000  C
  C11      1.0000 0.23910  0.89280  0.30760  Biso   1.000  C
  C12      1.0000 0.76090  0.10720  0.69240  Biso   1.000  C
  H7       1.0000 0.22060  0.90110  0.33720  Biso   1.000  H
  H8       1.0000 0.77940  0.09890  0.66280  Biso   1.000  H
  C13      1.0000 0.32870  0.93100  0.30930  Biso   1.000  C
  C14      1.0000 0.67130  0.06900  0.69070  Biso   1.000  C
  C15      1.0000 0.38670  0.99090  0.35830  Biso   1.000  C
  C16      1.0000 0.61330  0.00910  0.64170  Biso   1.000  C
  H9       1.0000 0.37900  0.97370  0.38820  Biso   1.000  H
  H10      1.0000 0.62100  0.02630  0.61180  Biso   1.000  H
  H11      1.0000 0.45410  0.00190  0.36130  Biso   1.000  H
  H12      1.0000 0.54590  0.99810  0.63870  Biso   1.000  H
  C17      1.0000 0.35630  0.05850  0.35800  Biso   1.000  C
  C18      1.0000 0.64370  0.94150  0.64200  Biso   1.000  C
  C19      1.0000 0.27730  0.06210  0.37640  Biso   1.000  C
  C20      1.0000 0.72270  0.93790  0.62360  Biso   1.000  C
  H13      1.0000 0.25160  0.02460  0.39020  Biso   1.000  H
  H14      1.0000 0.74840  0.97540  0.60980  Biso   1.000  H
  C21      1.0000 0.24020  0.11900  0.37390  Biso   1.000  C
  C22      1.0000 0.75980  0.88100  0.62610  Biso   1.000  C
  C23      1.0000 0.27200  0.17640  0.35300  Biso   1.000  C
  C24      1.0000 0.72800  0.82360  0.64700  Biso   1.000  C
  C25      1.0000 0.35490  0.17600  0.33880  Biso   1.000  C
  C26      1.0000 0.64510  0.82400  0.66120  Biso   1.000  C
  H15      1.0000 0.38310  0.21610  0.32810  Biso   1.000  H
  H16      1.0000 0.61690  0.78390  0.67190  Biso   1.000  H
  C27      1.0000 0.39590  0.11790  0.34040  Biso   1.000  C
  C28      1.0000 0.60410  0.88210  0.65960  Biso   1.000  C
  C29      1.0000 0.47850  0.11770  0.32010  Biso   1.000  C
  C30      1.0000 0.52150  0.88230  0.67990  Biso   1.000  C
  H17      1.0000 0.52230  0.16740  0.33160  Biso   1.000  H
  H18      1.0000 0.47770  0.83260  0.66840  Biso   1.000  H
  H19      1.0000 0.51280  0.08510  0.33470  Biso   1.000  H
  H20      1.0000 0.48720  0.91490  0.66530  Biso   1.000  H
  C31      1.0000 0.44770  0.09270  0.26250  Biso   1.000  C
  C32      1.0000 0.55230  0.90730  0.73750  Biso   1.000  C
  C33      1.0000 0.42460  0.14190  0.23340  Biso   1.000  C
  C34      1.0000 0.57540  0.85810  0.76660  Biso   1.000  C
  H21      1.0000 0.43290  0.19040  0.25130  Biso   1.000  H
  H22      1.0000 0.56710  0.80960  0.74870  Biso   1.000  H
  C35      1.0000 0.39200  0.12470  0.18240  Biso   1.000  C
  C36      1.0000 0.60800  0.87530  0.81760  Biso   1.000  C
  C37      1.0000 0.37800  0.05160  0.15460  Biso   1.000  C
  C38      1.0000 0.62200  0.94840  0.84540  Biso   1.000  C
  C39      1.0000 0.40310  0.00160  0.18260  Biso   1.000  C
  C40      1.0000 0.59690  0.99840  0.81740  Biso   1.000  C
  H23      1.0000 0.39790  0.95370  0.16490  Biso   1.000  H
  H24      1.0000 0.60210  0.04630  0.83510  Biso   1.000  H
  C41      1.0000 0.43570  0.02240  0.23630  Biso   1.000  C
  C42      1.0000 0.56430  0.97760  0.76370  Biso   1.000  C
  C43      1.0000 0.16280  0.77120  0.12960  Biso   1.000  C
  C44      1.0000 0.83720  0.22880  0.87040  Biso   1.000  C
  H25      1.0000 0.21440  0.74840  0.13060  Biso   1.000  H
  H26      1.0000 0.78560  0.25160  0.86940  Biso   1.000  H
  H27      1.0000 0.18170  0.81990  0.12360  Biso   1.000  H
  H28      1.0000 0.81830  0.18010  0.87640  Biso   1.000  H
  C45      1.0000 0.07270  0.72390  0.08850  Biso   1.000  C
  C46      1.0000 0.92730  0.27610  0.91150  Biso   1.000  C
  C47      1.0000 0.99610  0.75110  0.07320  Biso   1.000  C
  C48      1.0000 0.00390  0.24890  0.92680  Biso   1.000  C
  H29      1.0000 0.00070  0.80020  0.08780  Biso   1.000  H
  H30      1.0000 0.99930  0.19980  0.91220  Biso   1.000  H
  C49      1.0000 0.91260  0.70580  0.03620  Biso   1.000  C
  C50      1.0000 0.08740  0.29420  0.96380  Biso   1.000  C
  H31      1.0000 0.86070  0.72440  0.02570  Biso   1.000  H
  H32      1.0000 0.13930  0.27560  0.97430  Biso   1.000  H
  C51      1.0000 0.97990  0.60730  0.02770  Biso   1.000  C
  C52      1.0000 0.02010  0.39270  0.97230  Biso   1.000  C
  H33      1.0000 0.97440  0.55890  0.01070  Biso   1.000  H
  H34      1.0000 0.02560  0.44110  0.98930  Biso   1.000  H
  C53      1.0000 0.12090  0.07050  0.40780  Biso   1.000  C
  C54      1.0000 0.87910  0.92950  0.59220  Biso   1.000  C
  H35      1.0000 0.16820  0.06670  0.43810  Biso   1.000  H
  H36      1.0000 0.83180  0.93330  0.56190  Biso   1.000  H
  H37      1.0000 0.10100  0.02390  0.38130  Biso   1.000  H
  H38      1.0000 0.89900  0.97610  0.61870  Biso   1.000  H
  C55      1.0000 0.03770  0.08260  0.42200  Biso   1.000  C
  C56      1.0000 0.96230  0.91740  0.57800  Biso   1.000  C
  C57      1.0000 0.98700  0.03260  0.44040  Biso   1.000  C
  C58      1.0000 0.01300  0.96740  0.55960  Biso   1.000  C
  H39      1.0000 0.00620  0.99090  0.44590  Biso   1.000  H
  H40      1.0000 0.99380  0.00910  0.55410  Biso   1.000  H
  C59      1.0000 0.90970  0.04360  0.45060  Biso   1.000  C
  C60      1.0000 0.09030  0.95640  0.54940  Biso   1.000  C
  H41      1.0000 0.87370  0.00680  0.46110  Biso   1.000  H
  H42      1.0000 0.12630  0.99320  0.53890  Biso   1.000  H
  C61      1.0000 0.92960  0.15090  0.42940  Biso   1.000  C
  C62      1.0000 0.07040  0.84910  0.57060  Biso   1.000  C
  H43      1.0000 0.90970  0.19300  0.42600  Biso   1.000  H
  H44      1.0000 0.09030  0.80700  0.57400  Biso   1.000  H
  C63      1.0000 0.00780  0.14420  0.41580  Biso   1.000  C
  C64      1.0000 0.99220  0.85580  0.58420  Biso   1.000  C
  H45      1.0000 0.03990  0.17990  0.40290  Biso   1.000  H
  H46      1.0000 0.96010  0.82010  0.59710  Biso   1.000  H
  C65      1.0000 0.29940  0.19670  0.16230  Biso   1.000  C
  C66      1.0000 0.70060  0.80330  0.83770  Biso   1.000  C
  H47      1.0000 0.31940  0.22390  0.19870  Biso   1.000  H
  H48      1.0000 0.68060  0.77610  0.80130  Biso   1.000  H
  H49      1.0000 0.24370  0.15540  0.15600  Biso   1.000  H
  H50      1.0000 0.75630  0.84460  0.84400  Biso   1.000  H
  C67      1.0000 0.27040  0.24820  0.12820  Biso   1.000  C
  C68      1.0000 0.72960  0.75180  0.87180  Biso   1.000  C
  C69      1.0000 0.19660  0.27310  0.12330  Biso   1.000  C
  C70      1.0000 0.80340  0.72690  0.87670  Biso   1.000  C
  H51      1.0000 0.15200  0.25470  0.13890  Biso   1.000  H
  H52      1.0000 0.84800  0.74530  0.86110  Biso   1.000  H
  C71      1.0000 0.18070  0.32390  0.09720  Biso   1.000  C
  C72      1.0000 0.81930  0.67610  0.90280  Biso   1.000  C
  H53      1.0000 0.12820  0.34200  0.09670  Biso   1.000  H
  H54      1.0000 0.87180  0.65800  0.90330  Biso   1.000  H
  C73      1.0000 0.31580  0.32800  0.07610  Biso   1.000  C
  C74      1.0000 0.68420  0.67200  0.92390  Biso   1.000  C
  H55      1.0000 0.36110  0.35070  0.06240  Biso   1.000  H
  H56      1.0000 0.63890  0.64930  0.93760  Biso   1.000  H
  C75      1.0000 0.33110  0.27270  0.10020  Biso   1.000  C
  C76      1.0000 0.66890  0.72730  0.89980  Biso   1.000  C
  H57      1.0000 0.38050  0.25190  0.09800  Biso   1.000  H
  H58      1.0000 0.61950  0.74810  0.90200  Biso   1.000  H
  C77      1.0000 0.04370  0.83850  0.29280  Biso   1.000  C
  C78      1.0000 0.95630  0.16150  0.70720  Biso   1.000  C
  H59      1.0000 0.05870  0.82130  0.32370  Biso   1.000  H
  H60      1.0000 0.94130  0.17870  0.67630  Biso   1.000  H
  H61      1.0000 0.97530  0.82490  0.27680  Biso   1.000  H
  H62      1.0000 0.02470  0.17510  0.72320  Biso   1.000  H
  H63      1.0000 0.06920  0.89150  0.30170  Biso   1.000  H
  H64      1.0000 0.93080  0.10850  0.69830  Biso   1.000  H
  C79      1.0000 0.26280  0.28550  0.32600  Biso   1.000  C
  C80      1.0000 0.73720  0.71450  0.67400  Biso   1.000  C
  H65      1.0000 0.32790  0.31390  0.34540  Biso   1.000  H
  H66      1.0000 0.67210  0.68610  0.65460  Biso   1.000  H
  H67      1.0000 0.22240  0.31790  0.32400  Biso   1.000  H
  H68      1.0000 0.77760  0.68210  0.67600  Biso   1.000  H
  H69      1.0000 0.25920  0.26140  0.29140  Biso   1.000  H
  H70      1.0000 0.74080  0.73860  0.70860  Biso   1.000  H
  C81      1.0000 0.32330  0.95830  0.07360  Biso   1.000  C
  C82      1.0000 0.67670  0.04170  0.92640  Biso   1.000  C
  H71      1.0000 0.36970  0.95370  0.05630  Biso   1.000  H
  H72      1.0000 0.63030  0.04630  0.94370  Biso   1.000  H
  H73      1.0000 0.26020  0.94230  0.04830  Biso   1.000  H
  H74      1.0000 0.73980  0.05770  0.95170  Biso   1.000  H
  H75      1.0000 0.32620  0.92790  0.09780  Biso   1.000  H
  H76      1.0000 0.67380  0.07210  0.90220  Biso   1.000  H
  C83      1.0000 0.94140  0.71320  0.45660  Biso   1.000  C
  C84      1.0000 0.05860  0.28680  0.54340  Biso   1.000  C
  H77      1.0000 0.98530  0.75140  0.44880  Biso   1.000  H
  H78      1.0000 0.01470  0.24860  0.55120  Biso   1.000  H
  H79      1.0000 0.97580  0.70430  0.48900  Biso   1.000  H
  H80      1.0000 0.02420  0.29570  0.51100  Biso   1.000  H
  C85      1.0000 0.91040  0.64370  0.41410  Biso   1.000  C
  C86      1.0000 0.08960  0.35630  0.58590  Biso   1.000  C
  C87      1.0000 0.88700  0.57630  0.42740  Biso   1.000  C
  C88      1.0000 0.11300  0.42370  0.57260  Biso   1.000  C
  H81      1.0000 0.89250  0.57650  0.46190  Biso   1.000  H
  H82      1.0000 0.10750  0.42350  0.53810  Biso   1.000  H
  C89      1.0000 0.85610  0.51050  0.39030  Biso   1.000  C
  C90      1.0000 0.14390  0.48950  0.60970  Biso   1.000  C
  C91      1.0000 0.84900  0.50880  0.34080  Biso   1.000  C
  C92      1.0000 0.15100  0.49120  0.65920  Biso   1.000  C
  C93      1.0000 0.87500  0.57330  0.32720  Biso   1.000  C
  C94      1.0000 0.12500  0.42670  0.67280  Biso   1.000  C
  H83      1.0000 0.87250  0.57180  0.29300  Biso   1.000  H
  H84      1.0000 0.12750  0.42820  0.70700  Biso   1.000  H
  C95      1.0000 0.90510  0.64110  0.36390  Biso   1.000  C
  C96      1.0000 0.09490  0.35890  0.63610  Biso   1.000  C
  C97      1.0000 0.92640  0.70950  0.34360  Biso   1.000  C
  C98      1.0000 0.07360  0.29050  0.65640  Biso   1.000  C
  H85      1.0000 0.97460  0.74960  0.37140  Biso   1.000  H
  H86      1.0000 0.02540  0.25040  0.62860  Biso   1.000  H
  H87      1.0000 0.95260  0.69860  0.31560  Biso   1.000  H
  H88      1.0000 0.04740  0.30140  0.68440  Biso   1.000  H
  C99      1.0000 0.83950  0.73460  0.32400  Biso   1.000  C
  C100     1.0000 0.16050  0.26540  0.67600  Biso   1.000  C
  C101     1.0000 0.77580  0.69530  0.27380  Biso   1.000  C
  C102     1.0000 0.22420  0.30470  0.72620  Biso   1.000  C
  H89      1.0000 0.79070  0.65760  0.25380  Biso   1.000  H
  H90      1.0000 0.20930  0.34240  0.74620  Biso   1.000  H
  C103     1.0000 0.69330  0.71210  0.25470  Biso   1.000  C
  C104     1.0000 0.30670  0.28790  0.74530  Biso   1.000  C
  C105     1.0000 0.84750  0.44300  0.45250  Biso   1.000  C
  C106     1.0000 0.15250  0.55700  0.54750  Biso   1.000  C
  H91      1.0000 0.80850  0.46880  0.46730  Biso   1.000  H
  H92      1.0000 0.19150  0.53120  0.53270  Biso   1.000  H
  H93      1.0000 0.91450  0.46780  0.47210  Biso   1.000  H
  H94      1.0000 0.08550  0.53220  0.52790  Biso   1.000  H
  C107     1.0000 0.73050  0.80580  0.33130  Biso   1.000  C
  C108     1.0000 0.26950  0.19420  0.66870  Biso   1.000  C
  H95      1.0000 0.71440  0.84360  0.35050  Biso   1.000  H
  H96      1.0000 0.28560  0.15640  0.64950  Biso   1.000  H
  C109     1.0000 0.81650  0.79030  0.35240  Biso   1.000  C
  C110     1.0000 0.18350  0.20970  0.64760  Biso   1.000  C
  C111     1.0000 0.87260  0.83050  0.40780  Biso   1.000  C
  C112     1.0000 0.12740  0.16950  0.59220  Biso   1.000  C
  H97      1.0000 0.93830  0.82860  0.41490  Biso   1.000  H
  H98      1.0000 0.06170  0.17140  0.58510  Biso   1.000  H
  H99      1.0000 0.87320  0.88230  0.41350  Biso   1.000  H
  H100     1.0000 0.12680  0.11770  0.58650  Biso   1.000  H
  C113     1.0000 0.83100  0.79740  0.44390  Biso   1.000  C
  C114     1.0000 0.16900  0.20260  0.55610  Biso   1.000  C
  C115     1.0000 0.75580  0.81890  0.45350  Biso   1.000  C
  C116     1.0000 0.24420  0.18110  0.54650  Biso   1.000  C
  H101     1.0000 0.73930  0.85810  0.44130  Biso   1.000  H
  H102     1.0000 0.26070  0.14190  0.55870  Biso   1.000  H
  C117     1.0000 0.70220  0.78390  0.48140  Biso   1.000  C
  C118     1.0000 0.29780  0.21610  0.51860  Biso   1.000  C
  C119     1.0000 0.72840  0.72600  0.50050  Biso   1.000  C
  C120     1.0000 0.27160  0.27400  0.49950  Biso   1.000  C
  C121     1.0000 0.80760  0.70830  0.49240  Biso   1.000  C
  C122     1.0000 0.19240  0.29170  0.50760  Biso   1.000  C
  H103     1.0000 0.82830  0.67220  0.50700  Biso   1.000  H
  H104     1.0000 0.17170  0.32780  0.49300  Biso   1.000  H
  C123     1.0000 0.85740  0.74110  0.46390  Biso   1.000  C
  C124     1.0000 0.14260  0.25890  0.53610  Biso   1.000  C
  C125     1.0000 0.82220  0.36190  0.45430  Biso   1.000  C
  C126     1.0000 0.17780  0.63810  0.54570  Biso   1.000  C
  C127     1.0000 0.84780  0.34610  0.50170  Biso   1.000  C
  C128     1.0000 0.15220  0.65390  0.49830  Biso   1.000  C
  H105     1.0000 0.87980  0.38400  0.53220  Biso   1.000  H
  H106     1.0000 0.12020  0.61600  0.46780  Biso   1.000  H
  C129     1.0000 0.82560  0.27370  0.50330  Biso   1.000  C
  C130     1.0000 0.17440  0.72630  0.49670  Biso   1.000  C
  H107     1.0000 0.84180  0.26310  0.53560  Biso   1.000  H
  H108     1.0000 0.15820  0.73690  0.46440  Biso   1.000  H
  C131     1.0000 0.75840  0.23350  0.41520  Biso   1.000  C
  C132     1.0000 0.24160  0.76650  0.58480  Biso   1.000  C
  H109     1.0000 0.72810  0.19500  0.38490  Biso   1.000  H
  H110     1.0000 0.27190  0.80500  0.61510  Biso   1.000  H
  C133     1.0000 0.77810  0.30680  0.41200  Biso   1.000  C
  C134     1.0000 0.22190  0.69320  0.58800  Biso   1.000  C
  H111     1.0000 0.75990  0.31700  0.37960  Biso   1.000  H
  H112     1.0000 0.24010  0.68300  0.62040  Biso   1.000  H
  C135     1.0000 0.63350  0.60650  0.17960  Biso   1.000  C
  C136     1.0000 0.36650  0.39350  0.82040  Biso   1.000  C
  H113     1.0000 0.65830  0.57850  0.20340  Biso   1.000  H
  H114     1.0000 0.34170  0.42150  0.79660  Biso   1.000  H
  H115     1.0000 0.67590  0.61630  0.15930  Biso   1.000  H
  H116     1.0000 0.32410  0.38370  0.84070  Biso   1.000  H
  C137     1.0000 0.53750  0.56600  0.14600  Biso   1.000  C
  C138     1.0000 0.46250  0.43400  0.85400  Biso   1.000  C
  C139     1.0000 0.46420  0.54020  0.16470  Biso   1.000  C
  C140     1.0000 0.53580  0.45980  0.83530  Biso   1.000  C
  H117     1.0000 0.47590  0.54820  0.20050  Biso   1.000  H
  H118     1.0000 0.52410  0.45180  0.79950  Biso   1.000  H
  C141     1.0000 0.37830  0.50460  0.13240  Biso   1.000  C
  C142     1.0000 0.62170  0.49540  0.86760  Biso   1.000  C
  H119     1.0000 0.33240  0.48710  0.14730  Biso   1.000  H
  H120     1.0000 0.66760  0.51290  0.85270  Biso   1.000  H
  C143     1.0000 0.41890  0.51500  0.06260  Biso   1.000  C
  C144     1.0000 0.58110  0.48500  0.93740  Biso   1.000  C
  H121     1.0000 0.40460  0.50540  0.02660  Biso   1.000  H
  H122     1.0000 0.59540  0.49460  0.97340  Biso   1.000  H
  C145     1.0000 0.50820  0.55260  0.09180  Biso   1.000  C
  C146     1.0000 0.49180  0.44740  0.90820  Biso   1.000  C
  H123     1.0000 0.55230  0.57030  0.07590  Biso   1.000  H
  H124     1.0000 0.44770  0.42970  0.92410  Biso   1.000  H
  C147     1.0000 0.61100  0.86930  0.48050  Biso   1.000  C
  C148     1.0000 0.38900  0.13070  0.51950  Biso   1.000  C
  H125     1.0000 0.59490  0.86350  0.44320  Biso   1.000  H
  H126     1.0000 0.40510  0.13650  0.55680  Biso   1.000  H
  H127     1.0000 0.66710  0.91170  0.49820  Biso   1.000  H
  H128     1.0000 0.33290  0.08830  0.50180  Biso   1.000  H
  C149     1.0000 0.52720  0.87950  0.49850  Biso   1.000  C
  C150     1.0000 0.47280  0.12050  0.50150  Biso   1.000  C
  C151     1.0000 0.49300  0.83690  0.52860  Biso   1.000  C
  C152     1.0000 0.50700  0.16310  0.47140  Biso   1.000  C
  H129     1.0000 0.52590  0.80440  0.54050  Biso   1.000  H
  H130     1.0000 0.47410  0.19560  0.45950  Biso   1.000  H
  C153     1.0000 0.41210  0.84090  0.54130  Biso   1.000  C
  C154     1.0000 0.58790  0.15910  0.45870  Biso   1.000  C
  H131     1.0000 0.38920  0.81040  0.56050  Biso   1.000  H
  H132     1.0000 0.61080  0.18960  0.43950  Biso   1.000  H
  C155     1.0000 0.39990  0.93150  0.49590  Biso   1.000  C
  C156     1.0000 0.60010  0.06850  0.50410  Biso   1.000  C
  H133     1.0000 0.36640  0.96340  0.48330  Biso   1.000  H
  H134     1.0000 0.63360  0.03660  0.51670  Biso   1.000  H
  C157     1.0000 0.48080  0.92780  0.48450  Biso   1.000  C
  C158     1.0000 0.51920  0.07220  0.51550  Biso   1.000  C
  H135     1.0000 0.50440  0.95990  0.46630  Biso   1.000  H
  H136     1.0000 0.49560  0.04010  0.53370  Biso   1.000  H
  C159     1.0000 0.70060  0.63780  0.54740  Biso   1.000  C
  C160     1.0000 0.29940  0.36220  0.45260  Biso   1.000  C
  H137     1.0000 0.70300  0.59870  0.52090  Biso   1.000  H
  H138     1.0000 0.29700  0.40130  0.47910  Biso   1.000  H
  H139     1.0000 0.65460  0.61810  0.56320  Biso   1.000  H
  H140     1.0000 0.34540  0.38190  0.43680  Biso   1.000  H
  H141     1.0000 0.76270  0.65870  0.57350  Biso   1.000  H
  H142     1.0000 0.23730  0.34130  0.42650  Biso   1.000  H
  C161     1.0000 0.55330  0.82460  0.29470  Biso   1.000  C
  C162     1.0000 0.44670  0.17540  0.70530  Biso   1.000  C
  H143     1.0000 0.59000  0.87500  0.30030  Biso   1.000  H
  H144     1.0000 0.41000  0.12500  0.69970  Biso   1.000  H
  H145     1.0000 0.56350  0.81190  0.32740  Biso   1.000  H
  H146     1.0000 0.43650  0.18810  0.67260  Biso   1.000  H
  H147     1.0000 0.48640  0.81970  0.27930  Biso   1.000  H
  H148     1.0000 0.51360  0.18030  0.72070  Biso   1.000  H
  C163     1.0000 0.84690  0.43780  0.26040  Biso   1.000  C
  C164     1.0000 0.15310  0.56220  0.73960  Biso   1.000  C
  H149     1.0000 0.82650  0.38730  0.23970  Biso   1.000  H
  H150     1.0000 0.17350  0.61270  0.76030  Biso   1.000  H
  H151     1.0000 0.91530  0.45670  0.27000  Biso   1.000  H
  H152     1.0000 0.08470  0.54330  0.73000  Biso   1.000  H
  H153     1.0000 0.81690  0.46750  0.24060  Biso   1.000  H
  H154     1.0000 0.18310  0.53250  0.75940  Biso   1.000  H
  C165     1.0000 0.06260  0.65050  0.06530  Biso   1.000  C
  C166     1.0000 0.93740  0.34950  0.93470  Biso   1.000  C
  H155     1.0000 0.11330  0.63040  0.07570  Biso   1.000  H
  H156     1.0000 0.88670  0.36960  0.92430  Biso   1.000  H
  C167     1.0000 0.66860  0.76610  0.28210  Biso   1.000  C
  C168     1.0000 0.33140  0.23390  0.71790  Biso   1.000  C
  S1       1.0000 0.19520  0.49120  0.93630  Biso   1.000  S
  S2       1.0000 0.80480  0.50880  0.06370  Biso   1.000  S
  C169     1.0000 0.11570  0.55660  0.91300  Biso   1.000  C
  C170     1.0000 0.88430  0.44340  0.08700  Biso   1.000  C
  H157     1.0000 0.05990  0.54710  0.92380  Biso   1.000  H
  H158     1.0000 0.94010  0.45290  0.07620  Biso   1.000  H
  H159     1.0000 0.09630  0.54660  0.87570  Biso   1.000  H
  H160     1.0000 0.90370  0.45340  0.12430  Biso   1.000  H
  H161     1.0000 0.15260  0.60770  0.92830  Biso   1.000  H
  H162     1.0000 0.84740  0.39230  0.07170  Biso   1.000  H
  C171     1.0000 0.29890  0.53280  0.90450  Biso   1.000  C
  C172     1.0000 0.70110  0.46720  0.09550  Biso   1.000  C
  H163     1.0000 0.34850  0.50850  0.91140  Biso   1.000  H
  H164     1.0000 0.65150  0.49150  0.08860  Biso   1.000  H
  H165     1.0000 0.32600  0.58520  0.92000  Biso   1.000  H
  H166     1.0000 0.67400  0.41480  0.08000  Biso   1.000  H
  H167     1.0000 0.27010  0.52380  0.86760  Biso   1.000  H
  H168     1.0000 0.72990  0.47620  0.13240  Biso   1.000  H
  C173     1.0000 0.80500  0.44130  0.25280  Biso   1.000  C
  C174     1.0000 0.19500  0.55870  0.74720  Biso   1.000  C
  H169     1.0000 0.78640  0.39130  0.23160  Biso   1.000  H
  H170     1.0000 0.21360  0.60870  0.76840  Biso   1.000  H
  H171     1.0000 0.86330  0.46910  0.24940  Biso   1.000  H
  H172     1.0000 0.13670  0.53090  0.75060  Biso   1.000  H
  H173     1.0000 0.75520  0.46420  0.24160  Biso   1.000  H
  H174     1.0000 0.24480  0.53580  0.75840  Biso   1.000  H
  N13      1.0000 0.34600  0.87870  0.50300  Biso   1.000  N
  N14      1.0000 0.65400  0.12130  0.49700  Biso   1.000  N
  C175     1.0000 0.58230  0.83800  0.45670  Biso   1.000  C
  C176     1.0000 0.41770  0.16200  0.54330  Biso   1.000  C
  H175     1.0000 0.55950  0.80620  0.42150  Biso   1.000  H
  H176     1.0000 0.44050  0.19380  0.57850  Biso   1.000  H
  H177     1.0000 0.62590  0.88450  0.45800  Biso   1.000  H
  H178     1.0000 0.37410  0.11550  0.54200  Biso   1.000  H
  C177     1.0000 0.49910  0.85150  0.47420  Biso   1.000  C
  C178     1.0000 0.50090  0.14850  0.52580  Biso   1.000  C
  C179     1.0000 0.49550  0.85070  0.52260  Biso   1.000  C
  C180     1.0000 0.50450  0.14930  0.47740  Biso   1.000  C
  H179     1.0000 0.54530  0.84150  0.54650  Biso   1.000  H
  H180     1.0000 0.45470  0.15850  0.45350  Biso   1.000  H
  C181     1.0000 0.41860  0.86360  0.53660  Biso   1.000  C
  C182     1.0000 0.58140  0.13640  0.46340  Biso   1.000  C
  H181     1.0000 0.41640  0.86190  0.56980  Biso   1.000  H
  H182     1.0000 0.58360  0.13810  0.43020  Biso   1.000  H
  C183     1.0000 0.35360  0.88060  0.45680  Biso   1.000  C
  C184     1.0000 0.64640  0.11940  0.54320  Biso   1.000  C
  H183     1.0000 0.30460  0.89100  0.43310  Biso   1.000  H
  H184     1.0000 0.69540  0.10900  0.56690  Biso   1.000  H
  C185     1.0000 0.42770  0.86860  0.44190  Biso   1.000  C
  C186     1.0000 0.57230  0.13140  0.55810  Biso   1.000  C
  H185     1.0000 0.42970  0.87220  0.40900  Biso   1.000  H
  H186     1.0000 0.57030  0.12780  0.59100  Biso   1.000  H
  S3       1.0000 0.54830  0.63109  0.33506  Biso   1.000  S
  S4       1.0000 0.45170  0.36891  0.66494  Biso   1.000  S
  O27      1.0000 0.49410  0.56550  0.28530  Biso   1.000  O
  O28      1.0000 0.50590  0.43450  0.71470  Biso   1.000  O
  C187     1.0000 0.65290  0.61600  0.35980  Biso   1.000  C
  C188     1.0000 0.34710  0.38400  0.64020  Biso   1.000  C
  H187     1.0000 0.69140  0.62490  0.33780  Biso   1.000  H
  H188     1.0000 0.30860  0.37510  0.66220  Biso   1.000  H
  H189     1.0000 0.64260  0.56540  0.36200  Biso   1.000  H
  H190     1.0000 0.35740  0.43460  0.63800  Biso   1.000  H
  H191     1.0000 0.68540  0.64890  0.39410  Biso   1.000  H
  H192     1.0000 0.31460  0.35110  0.60590  Biso   1.000  H
  C189     1.0000 0.49660  0.61100  0.38230  Biso   1.000  C
  C190     1.0000 0.50340  0.38900  0.61770  Biso   1.000  C
  H193     1.0000 0.43330  0.61710  0.37340  Biso   1.000  H
  H194     1.0000 0.56670  0.38290  0.62660  Biso   1.000  H
  H195     1.0000 0.53540  0.64430  0.41570  Biso   1.000  H
  H196     1.0000 0.46460  0.35570  0.58430  Biso   1.000  H
  H197     1.0000 0.49290  0.56070  0.38380  Biso   1.000  H
  H198     1.0000 0.50710  0.43930  0.61620  Biso   1.000  H
  S5       1.0000 0.42610  0.57680  0.55080  Biso   1.000  S
  S6       1.0000 0.57390  0.42320  0.44920  Biso   1.000  S
  O29      1.0000 0.41070  0.58650  0.49440  Biso   1.000  O
  O30      1.0000 0.58930  0.41350  0.50560  Biso   1.000  O
  C191     1.0000 0.44980  0.66870  0.56880  Biso   1.000  C
  C192     1.0000 0.55020  0.33130  0.43120  Biso   1.000  C
  H199     1.0000 0.42530  0.68230  0.59670  Biso   1.000  H
  H200     1.0000 0.57470  0.31770  0.40330  Biso   1.000  H
  H201     1.0000 0.42000  0.68580  0.53970  Biso   1.000  H
  H202     1.0000 0.58000  0.31420  0.46030  Biso   1.000  H
  H203     1.0000 0.51800  0.69100  0.58040  Biso   1.000  H
  H204     1.0000 0.48200  0.30900  0.41960  Biso   1.000  H
  C193     1.0000 0.51050  0.55430  0.57940  Biso   1.000  C
  C194     1.0000 0.48950  0.44570  0.42060  Biso   1.000  C
  H205     1.0000 0.55010  0.54580  0.55770  Biso   1.000  H
  H206     1.0000 0.44990  0.45420  0.44230  Biso   1.000  H
  H207     1.0000 0.48980  0.50970  0.58960  Biso   1.000  H
  H208     1.0000 0.51020  0.49030  0.41040  Biso   1.000  H
  H209     1.0000 0.55030  0.59350  0.61050  Biso   1.000  H
  H210     1.0000 0.44970  0.40650  0.38950  Biso   1.000  H
  S7       1.0000 0.93710  0.63037  0.20734  Biso   1.000  S
  S8       1.0000 0.06290  0.36963  0.79266  Biso   1.000  S
  O31      1.0000 0.85440  0.56730  0.19470  Biso   1.000  O
  O32      1.0000 0.14560  0.43270  0.80530  Biso   1.000  O
  C195     1.0000 0.90370  0.69080  0.16860  Biso   1.000  C
  C196     1.0000 0.09630  0.30920  0.83140  Biso   1.000  C
  H211     1.0000 0.85380  0.70840  0.17740  Biso   1.000  H
  H212     1.0000 0.14620  0.29160  0.82260  Biso   1.000  H
  H213     1.0000 0.88080  0.66440  0.13240  Biso   1.000  H
  H214     1.0000 0.11920  0.33560  0.86760  Biso   1.000  H
  H215     1.0000 0.95830  0.73230  0.17500  Biso   1.000  H
  H216     1.0000 0.04170  0.26770  0.82500  Biso   1.000  H
  C197     1.0000 0.02410  0.60710  0.18520  Biso   1.000  C
  C198     1.0000 0.97590  0.39290  0.81480  Biso   1.000  C
  H217     1.0000 0.04930  0.57410  0.20360  Biso   1.000  H
  H218     1.0000 0.95070  0.42590  0.79640  Biso   1.000  H
  H219     1.0000 0.07470  0.65120  0.19080  Biso   1.000  H
  H220     1.0000 0.92530  0.34880  0.80920  Biso   1.000  H
  H221     1.0000 0.99740  0.58290  0.14860  Biso   1.000  H
  H222     1.0000 0.00260  0.41710  0.85140  Biso   1.000  H
  S9       1.0000 0.72680  0.30820  0.61760  Biso   1.000  S
  S10      1.0000 0.27320  0.69180  0.38240  Biso   1.000  S
  O33      1.0000 0.72000  0.36900  0.65880  Biso   1.000  O
  O34      1.0000 0.28000  0.63100  0.34120  Biso   1.000  O
  C199     1.0000 0.82880  0.29930  0.64780  Biso   1.000  C
  C200     1.0000 0.17120  0.70070  0.35220  Biso   1.000  C
  H223     1.0000 0.87850  0.34340  0.65230  Biso   1.000  H
  H224     1.0000 0.12150  0.65660  0.34770  Biso   1.000  H
  H225     1.0000 0.83990  0.25730  0.62780  Biso   1.000  H
  H226     1.0000 0.16010  0.74270  0.37220  Biso   1.000  H
  H227     1.0000 0.82910  0.29190  0.68130  Biso   1.000  H
  H228     1.0000 0.17090  0.70810  0.31870  Biso   1.000  H
  C201     1.0000 0.66800  0.22640  0.61860  Biso   1.000  C
  C202     1.0000 0.33200  0.77360  0.38140  Biso   1.000  C
  H229     1.0000 0.60090  0.21790  0.60180  Biso   1.000  H
  H230     1.0000 0.39910  0.78210  0.39820  Biso   1.000  H
  H231     1.0000 0.67940  0.22380  0.65410  Biso   1.000  H
  H232     1.0000 0.32060  0.77620  0.34590  Biso   1.000  H
  H233     1.0000 0.69000  0.18920  0.60060  Biso   1.000  H
  H234     1.0000 0.31000  0.81080  0.39940  Biso   1.000  H
