data_image0
_cell_length_a       13.112
_cell_length_b       15.798
_cell_length_c       27.462
_cell_angle_alpha    91.53
_cell_angle_beta     92.919
_cell_angle_gamma    110.716

_symmetry_space_group_name_H-M    "P 1"
_symmetry_int_tables_number       1

loop_
  _symmetry_equiv_pos_as_xyz
  'x, y, z'

loop_
  _atom_site_label
  _atom_site_occupancy
  _atom_site_fract_x
  _atom_site_fract_y
  _atom_site_fract_z
  _atom_site_thermal_displace_type
  _atom_site_B_iso_or_equiv
  _atom_site_type_symbol
  W1       1.0000 0.22168  0.21613  0.63926  Biso   1.000  W
  W2       1.0000 0.77832  0.78387  0.36074  Biso   1.000  W
  W3       1.0000 0.34174  0.40120  0.71379  Biso   1.000  W
  W4       1.0000 0.65826  0.59880  0.28621  Biso   1.000  W
  W5       1.0000 0.18207  0.53654  0.75572  Biso   1.000  W
  W6       1.0000 0.81793  0.46346  0.24428  Biso   1.000  W
  W7       1.0000 0.86471  0.14841  0.71729  Biso   1.000  W
  W8       1.0000 0.13529  0.85159  0.28271  Biso   1.000  W
  W9       1.0000 0.91616  0.47401  0.71952  Biso   1.000  W
  W10      1.0000 0.08384  0.52599  0.28048  Biso   1.000  W
  W11      1.0000 0.25014  0.53884  0.62684  Biso   1.000  W
  W12      1.0000 0.74986  0.46116  0.37316  Biso   1.000  W
  W13      1.0000 0.98453  0.47724  0.59075  Biso   1.000  W
  W14      1.0000 0.01547  0.52276  0.40925  Biso   1.000  W
  W15      1.0000 0.13036  0.35444  0.55304  Biso   1.000  W
  W16      1.0000 0.86964  0.64556  0.44696  Biso   1.000  W
  W17      1.0000 0.78261  0.27103  0.63649  Biso   1.000  W
  W18      1.0000 0.21739  0.72897  0.36351  Biso   1.000  W
  W19      1.0000 0.92914  0.14796  0.60037  Biso   1.000  W
  W20      1.0000 0.07086  0.85204  0.39963  Biso   1.000  W
  W21      1.0000 0.15706  0.21349  0.75633  Biso   1.000  W
  W22      1.0000 0.84294  0.78651  0.24367  Biso   1.000  W
  W23      1.0000 0.99958  0.35091  0.79954  Biso   1.000  W
  W24      1.0000 0.00042  0.64909  0.20046  Biso   1.000  W
  W25      1.0000 0.21132  0.92230  0.99064  Biso   1.000  W
  W26      1.0000 0.78868  0.07770  0.00936  Biso   1.000  W
  W27      1.0000 0.64059  0.88662  0.93297  Biso   1.000  W
  W28      1.0000 0.35941  0.11338  0.06703  Biso   1.000  W
  W29      1.0000 0.34989  0.89577  0.09913  Biso   1.000  W
  W30      1.0000 0.65011  0.10423  0.90087  Biso   1.000  W
  W31      1.0000 0.35126  0.80580  0.92578  Biso   1.000  W
  W32      1.0000 0.64874  0.19420  0.07422  Biso   1.000  W
  W33      1.0000 0.49546  0.78510  0.03380  Biso   1.000  W
  W34      1.0000 0.50454  0.21490  0.96620  Biso   1.000  W
  W35      1.0000 0.63870  0.97935  0.11032  Biso   1.000  W
  W36      1.0000 0.36130  0.02065  0.88968  Biso   1.000  W
  Cu1      1.0000 0.30540  0.30535  0.17276  Biso   1.000  Cu
  Cu2      1.0000 0.69460  0.69465  0.82724  Biso   1.000  Cu
  Cu3      1.0000 0.50000  0.00000  0.50000  Biso   1.000  Cu
  Si1      1.0000 0.50000  0.00000  0.00000  Biso   1.000  Si
  Si2      1.0000 0.06250  0.34470  0.67590  Biso   1.000  Si
  Si3      1.0000 0.93750  0.65530  0.32410  Biso   1.000  Si
  O1       1.0000 0.32540  0.43750  0.21930  Biso   1.000  O
  O2       1.0000 0.67460  0.56250  0.78070  Biso   1.000  O
  O3       1.0000 0.81840  0.36390  0.68820  Biso   1.000  O
  O4       1.0000 0.18160  0.63610  0.31180  Biso   1.000  O
  O5       1.0000 0.24610  0.46990  0.56830  Biso   1.000  O
  O6       1.0000 0.75390  0.53010  0.43170  Biso   1.000  O
  O7       1.0000 0.88700  0.27050  0.18700  Biso   1.000  O
  O8       1.0000 0.11300  0.72950  0.81300  Biso   1.000  O
  O9       1.0000 0.90610  0.41840  0.78340  Biso   1.000  O
  O10      1.0000 0.09390  0.58160  0.21660  Biso   1.000  O
  O11      1.0000 0.28550  0.21880  0.49650  Biso   1.000  O
  O12      1.0000 0.71450  0.78120  0.50350  Biso   1.000  O
  O13      1.0000 0.89750  0.24440  0.76230  Biso   1.000  O
  O14      1.0000 0.10250  0.75560  0.23770  Biso   1.000  O
  O15      1.0000 0.45450  0.12230  0.55980  Biso   1.000  O
  O16      1.0000 0.54550  0.87770  0.44020  Biso   1.000  O
  O17      1.0000 0.75380  0.18530  0.68610  Biso   1.000  O
  O18      1.0000 0.24620  0.81470  0.31390  Biso   1.000  O
  O19      1.0000 0.15950  0.30670  0.68960  Biso   1.000  O
  O20      1.0000 0.84050  0.69330  0.31040  Biso   1.000  O
  O21      1.0000 0.32590  0.47020  0.66070  Biso   1.000  O
  O22      1.0000 0.67410  0.52980  0.33930  Biso   1.000  O
  O23      1.0000 0.86930  0.08590  0.65620  Biso   1.000  O
  O24      1.0000 0.13070  0.91410  0.34380  Biso   1.000  O
  O25      1.0000 0.35450  0.63610  0.61520  Biso   1.000  O
  O26      1.0000 0.64550  0.36390  0.38480  Biso   1.000  O
  O27      1.0000 0.27370  0.46820  0.75160  Biso   1.000  O
  O28      1.0000 0.72630  0.53180  0.24840  Biso   1.000  O
  O29      1.0000 0.20580  0.16250  0.70330  Biso   1.000  O
  O30      1.0000 0.79420  0.83750  0.29670  Biso   1.000  O
  O31      1.0000 0.47640  0.45420  0.73190  Biso   1.000  O
  O32      1.0000 0.52360  0.54580  0.26810  Biso   1.000  O
  O33      1.0000 0.86660  0.36560  0.59830  Biso   1.000  O
  O34      1.0000 0.13340  0.63440  0.40170  Biso   1.000  O
  O35      1.0000 0.03360  0.41930  0.54180  Biso   1.000  O
  O36      1.0000 0.96640  0.58070  0.45820  Biso   1.000  O
  O37      1.0000 0.09530  0.40830  0.62810  Biso   1.000  O
  O38      1.0000 0.90470  0.59170  0.37190  Biso   1.000  O
  O39      1.0000 0.34870  0.31150  0.66790  Biso   1.000  O
  O40      1.0000 0.65130  0.68850  0.33210  Biso   1.000  O
  O41      1.0000 0.29560  0.30730  0.75870  Biso   1.000  O
  O42      1.0000 0.70440  0.69270  0.24130  Biso   1.000  O
  O43      1.0000 0.16100  0.33030  0.49610  Biso   1.000  O
  O44      1.0000 0.83900  0.66970  0.50390  Biso   1.000  O
  O45      1.0000 0.96320  0.32750  0.85850  Biso   1.000  O
  O46      1.0000 0.03680  0.67250  0.14150  Biso   1.000  O
  O47      1.0000 0.11560  0.46430  0.80880  Biso   1.000  O
  O48      1.0000 0.88440  0.53570  0.19120  Biso   1.000  O
  O49      1.0000 0.95300  0.25970  0.66390  Biso   1.000  O
  O50      1.0000 0.04700  0.74030  0.33610  Biso   1.000  O
  O51      1.0000 0.10130  0.29060  0.79340  Biso   1.000  O
  O52      1.0000 0.89870  0.70940  0.20660  Biso   1.000  O
  O53      1.0000 0.28480  0.15530  0.60860  Biso   1.000  O
  O54      1.0000 0.71520  0.84470  0.39140  Biso   1.000  O
  O55      1.0000 0.00510  0.24960  0.56410  Biso   1.000  O
  O56      1.0000 0.99490  0.75040  0.43590  Biso   1.000  O
  O57      1.0000 0.80530  0.18410  0.59430  Biso   1.000  O
  O58      1.0000 0.19470  0.81590  0.40570  Biso   1.000  O
  O59      1.0000 0.01070  0.15060  0.73390  Biso   1.000  O
  O60      1.0000 0.98930  0.84940  0.26610  Biso   1.000  O
  O61      1.0000 0.83130  0.53340  0.72780  Biso   1.000  O
  O62      1.0000 0.16870  0.46660  0.27220  Biso   1.000  O
  O63      1.0000 0.96130  0.50920  0.65510  Biso   1.000  O
  O64      1.0000 0.03870  0.49080  0.34490  Biso   1.000  O
  O65      1.0000 0.21400  0.56840  0.68860  Biso   1.000  O
  O66      1.0000 0.78600  0.43160  0.31140  Biso   1.000  O
  O67      1.0000 0.12990  0.56620  0.59790  Biso   1.000  O
  O68      1.0000 0.87010  0.43380  0.40210  Biso   1.000  O
  O69      1.0000 0.26430  0.63060  0.78760  Biso   1.000  O
  O70      1.0000 0.73570  0.36940  0.21240  Biso   1.000  O
  O71      1.0000 0.91900  0.53370  0.55730  Biso   1.000  O
  O72      1.0000 0.08100  0.46630  0.44270  Biso   1.000  O
  O73      1.0000 0.04970  0.56480  0.74740  Biso   1.000  O
  O74      1.0000 0.95030  0.43520  0.25260  Biso   1.000  O
  O75      1.0000 0.04280  0.40620  0.72170  Biso   1.000  O
  O76      1.0000 0.95720  0.59380  0.27830  Biso   1.000  O
  O77      1.0000 0.21180  0.29780  0.59080  Biso   1.000  O
  O78      1.0000 0.78820  0.70220  0.40920  Biso   1.000  O
  O79      1.0000 0.78840  0.06000  0.74990  Biso   1.000  O
  O80      1.0000 0.21160  0.94000  0.25010  Biso   1.000  O
  O81      1.0000 0.07110  0.15140  0.62300  Biso   1.000  O
  O82      1.0000 0.92890  0.84860  0.37700  Biso   1.000  O
  O83      1.0000 0.89740  0.05890  0.55650  Biso   1.000  O
  O84      1.0000 0.10260  0.94110  0.44350  Biso   1.000  O
  O85      1.0000 0.17770  0.14690  0.80110  Biso   1.000  O
  O86      1.0000 0.82230  0.85310  0.19890  Biso   1.000  O
  O87      1.0000 0.65170  0.26190  0.61850  Biso   1.000  O
  O88      1.0000 0.34830  0.73810  0.38150  Biso   1.000  O
  O89      1.0000 0.24200  0.87030  0.04650  Biso   1.000  O
  O90      1.0000 0.75800  0.12970  0.95350  Biso   1.000  O
  O91      1.0000 0.75800  0.96720  0.97700  Biso   1.000  O
  O92      1.0000 0.24200  0.03280  0.02300  Biso   1.000  O
  O93      1.0000 0.62000  0.01340  0.96570  Biso   1.000  O
  O94      1.0000 0.38000  0.98660  0.03430  Biso   1.000  O
  O95      1.0000 0.60380  0.86220  0.07930  Biso   1.000  O
  O96      1.0000 0.39620  0.13780  0.92070  Biso   1.000  O
  O97      1.0000 0.49220  0.94770  0.12980  Biso   1.000  O
  O98      1.0000 0.50780  0.05230  0.87020  Biso   1.000  O
  O99      1.0000 0.49530  0.82310  0.90560  Biso   1.000  O
  O100     1.0000 0.50470  0.17690  0.09440  Biso   1.000  O
  O101     1.0000 0.39600  0.94960  0.96030  Biso   1.000  O
  O102     1.0000 0.60400  0.05040  0.03970  Biso   1.000  O
  O103     1.0000 0.34950  0.90170  0.88430  Biso   1.000  O
  O104     1.0000 0.65050  0.09830  0.11570  Biso   1.000  O
  O105     1.0000 0.38710  0.80490  0.07340  Biso   1.000  O
  O106     1.0000 0.61290  0.19510  0.92660  Biso   1.000  O
  O107     1.0000 0.59710  0.80440  0.98670  Biso   1.000  O
  O108     1.0000 0.40290  0.19560  0.01330  Biso   1.000  O
  O109     1.0000 0.07680  0.88490  0.98580  Biso   1.000  O
  O110     1.0000 0.92320  0.11510  0.01420  Biso   1.000  O
  O111     1.0000 0.49240  0.68410  0.05070  Biso   1.000  O
  O112     1.0000 0.50760  0.31590  0.94930  Biso   1.000  O
  O113     1.0000 0.70060  0.96720  0.16370  Biso   1.000  O
  O114     1.0000 0.29940  0.03280  0.83630  Biso   1.000  O
  O115     1.0000 0.27710  0.84750  0.14700  Biso   1.000  O
  O116     1.0000 0.72290  0.15250  0.85300  Biso   1.000  O
  O117     1.0000 0.70680  0.83180  0.89860  Biso   1.000  O
  O118     1.0000 0.29320  0.16820  0.10140  Biso   1.000  O
  O119     1.0000 0.50840  0.09870  0.01900  Biso   1.000  O
  O120     1.0000 0.49160  0.90130  0.98100  Biso   1.000  O
  O121     1.0000 0.38940  0.74830  0.98100  Biso   1.000  O
  O122     1.0000 0.61060  0.25170  0.01900  Biso   1.000  O
  O123     1.0000 0.24500  0.98610  0.93190  Biso   1.000  O
  O124     1.0000 0.75500  0.01390  0.06810  Biso   1.000  O
  O125     1.0000 0.23880  0.82850  0.96040  Biso   1.000  O
  O126     1.0000 0.76120  0.17150  0.03960  Biso   1.000  O
  O127     1.0000 0.27690  0.71500  0.89060  Biso   1.000  O
  O128     1.0000 0.72310  0.28500  0.10940  Biso   1.000  O
  O129     1.0000 0.50800  0.93550  0.04310  Biso   1.000  O
  O130     1.0000 0.49200  0.06450  0.95690  Biso   1.000  O
  O131     1.0000 0.34700  0.01490  0.10700  Biso   1.000  O
  O132     1.0000 0.65300  0.98510  0.89300  Biso   1.000  O
  N1       1.0000 0.60020  0.44280  0.57950  Biso   1.000  N
  N2       1.0000 0.39980  0.55720  0.42050  Biso   1.000  N
  N3       1.0000 0.48080  0.35280  0.52740  Biso   1.000  N
  N4       1.0000 0.51920  0.64720  0.47260  Biso   1.000  N
  N5       1.0000 0.57310  0.96610  0.55740  Biso   1.000  N
  N6       1.0000 0.42690  0.03390  0.44260  Biso   1.000  N
  N7       1.0000 0.67770  0.91620  0.60550  Biso   1.000  N
  N8       1.0000 0.32230  0.08380  0.39450  Biso   1.000  N
  N9       1.0000 0.79780  0.18590  0.46520  Biso   1.000  N
  N10      1.0000 0.20220  0.81410  0.53480  Biso   1.000  N
  N11      1.0000 0.63210  0.10500  0.48780  Biso   1.000  N
  N12      1.0000 0.36790  0.89500  0.51220  Biso   1.000  N
  N13      1.0000 0.19000  0.20980  0.20800  Biso   1.000  N
  N14      1.0000 0.81000  0.79020  0.79200  Biso   1.000  N
  N15      1.0000 0.02990  0.12860  0.23450  Biso   1.000  N
  N16      1.0000 0.97010  0.87140  0.76550  Biso   1.000  N
  N17      1.0000 0.18310  0.32630  0.13190  Biso   1.000  N
  N18      1.0000 0.81690  0.67370  0.86810  Biso   1.000  N
  N19      1.0000 0.05800  0.38050  0.10720  Biso   1.000  N
  N20      1.0000 0.94200  0.61950  0.89280  Biso   1.000  N
  N21      1.0000 0.41740  0.37050  0.12620  Biso   1.000  N
  N22      1.0000 0.58260  0.62950  0.87380  Biso   1.000  N
  N23      1.0000 0.57960  0.43200  0.09370  Biso   1.000  N
  N24      1.0000 0.42040  0.56800  0.90630  Biso   1.000  N
  N25      1.0000 0.08900  0.92300  0.13910  Biso   1.000  N
  N26      1.0000 0.91100  0.07700  0.86090  Biso   1.000  N
  N27      1.0000 0.95040  0.89480  0.08770  Biso   1.000  N
  N28      1.0000 0.04960  0.10520  0.91230  Biso   1.000  N
  N29      1.0000 0.37700  0.65200  0.16800  Biso   1.000  N
  N30      1.0000 0.62300  0.34800  0.83200  Biso   1.000  N
  N31      1.0000 0.46710  0.74940  0.23240  Biso   1.000  N
  N32      1.0000 0.53290  0.25060  0.76760  Biso   1.000  N
  N33      1.0000 0.42010  0.27990  0.21570  Biso   1.000  N
  N34      1.0000 0.57990  0.72010  0.78430  Biso   1.000  N
  N35      1.0000 0.53880  0.22590  0.24460  Biso   1.000  N
  N36      1.0000 0.46120  0.77410  0.75540  Biso   1.000  N
  C1       1.0000 0.35900  0.68900  0.21630  Biso   1.000  C
  C2       1.0000 0.64100  0.31100  0.78370  Biso   1.000  C
  H1       1.0000 0.29390  0.67550  0.23200  Biso   1.000  H
  H2       1.0000 0.70610  0.32450  0.76800  Biso   1.000  H
  C3       1.0000 0.57200  0.39700  0.50310  Biso   1.000  C
  C4       1.0000 0.42800  0.60300  0.49690  Biso   1.000  C
  H3       1.0000 0.57920  0.39160  0.46980  Biso   1.000  H
  H4       1.0000 0.42080  0.60840  0.53020  Biso   1.000  H
  C5       1.0000 0.63900  0.19070  0.48010  Biso   1.000  C
  C6       1.0000 0.36100  0.80930  0.51990  Biso   1.000  C
  H5       1.0000 0.58350  0.21340  0.48430  Biso   1.000  H
  H6       1.0000 0.41650  0.78660  0.51570  Biso   1.000  H
  C7       1.0000 0.73700  0.23800  0.46550  Biso   1.000  C
  C8       1.0000 0.26300  0.76200  0.53450  Biso   1.000  C
  H7       1.0000 0.75990  0.29800  0.45680  Biso   1.000  H
  H8       1.0000 0.24010  0.70200  0.54320  Biso   1.000  H
  C9       1.0000 0.45330  0.93190  0.24320  Biso   1.000  C
  C10      1.0000 0.54670  0.06810  0.75680  Biso   1.000  C
  H9       1.0000 0.38800  0.89340  0.22770  Biso   1.000  H
  H10      1.0000 0.61200  0.10660  0.77230  Biso   1.000  H
  C11      1.0000 0.98800  0.97910  0.09770  Biso   1.000  C
  C12      1.0000 0.01200  0.02090  0.90230  Biso   1.000  C
  H11      1.0000 0.96010  0.02040  0.08440  Biso   1.000  H
  H12      1.0000 0.03990  0.97960  0.91560  Biso   1.000  H
  C13      1.0000 0.92500  0.41900  0.01210  Biso   1.000  C
  C14      1.0000 0.07500  0.58100  0.98790  Biso   1.000  C
  H13      1.0000 0.87150  0.36490  0.01870  Biso   1.000  H
  H14      1.0000 0.12850  0.63510  0.98130  Biso   1.000  H
  C15      1.0000 0.48800  0.80180  0.28150  Biso   1.000  C
  C16      1.0000 0.51200  0.19820  0.71850  Biso   1.000  C
  H15      1.0000 0.54910  0.79430  0.29990  Biso   1.000  H
  H16      1.0000 0.45090  0.20570  0.70010  Biso   1.000  H
  H17      1.0000 0.42400  0.77980  0.30030  Biso   1.000  H
  H18      1.0000 0.57600  0.22020  0.69970  Biso   1.000  H
  C17      1.0000 0.47600  0.69800  0.16110  Biso   1.000  C
  C18      1.0000 0.52400  0.30200  0.83890  Biso   1.000  C
  H19      1.0000 0.50980  0.69030  0.13340  Biso   1.000  H
  H20      1.0000 0.49020  0.30970  0.86660  Biso   1.000  H
  C19      1.0000 0.51200  0.89500  0.27190  Biso   1.000  C
  C20      1.0000 0.48800  0.10500  0.72810  Biso   1.000  C
  C21      1.0000 0.79000  0.59530  0.03710  Biso   1.000  C
  C22      1.0000 0.21000  0.40470  0.96290  Biso   1.000  C
  H21      1.0000 0.79870  0.55520  0.01380  Biso   1.000  H
  H22      1.0000 0.20130  0.44480  0.98620  Biso   1.000  H
  C23      1.0000 0.52400  0.75700  0.19530  Biso   1.000  C
  C24      1.0000 0.47600  0.24300  0.80470  Biso   1.000  C
  H23      1.0000 0.59290  0.80040  0.19340  Biso   1.000  H
  H24      1.0000 0.40710  0.19960  0.80660  Biso   1.000  H
  C25      1.0000 0.49700  0.41640  0.05710  Biso   1.000  C
  C26      1.0000 0.50300  0.58360  0.94290  Biso   1.000  C
  H25      1.0000 0.50470  0.42760  0.02420  Biso   1.000  H
  H26      1.0000 0.49530  0.57240  0.97580  Biso   1.000  H
  C27      1.0000 0.40100  0.38080  0.08020  Biso   1.000  C
  C28      1.0000 0.59900  0.61920  0.91980  Biso   1.000  C
  H27      1.0000 0.33150  0.36600  0.06460  Biso   1.000  H
  H28      1.0000 0.66850  0.63400  0.93540  Biso   1.000  H
  C29      1.0000 0.99800  0.43910  0.09900  Biso   1.000  C
  C30      1.0000 0.00200  0.56090  0.90100  Biso   1.000  C
  H29      1.0000 0.92370  0.40790  0.10720  Biso   1.000  H
  H30      1.0000 0.07630  0.59210  0.89280  Biso   1.000  H
  H31      1.0000 0.02940  0.49190  0.12120  Biso   1.000  H
  H32      1.0000 0.97060  0.50810  0.87880  Biso   1.000  H
  C31      1.0000 0.08000  0.00200  0.13210  Biso   1.000  C
  C32      1.0000 0.92000  0.99800  0.86790  Biso   1.000  C
  H33      1.0000 0.12220  0.05880  0.14610  Biso   1.000  H
  H34      1.0000 0.87780  0.94120  0.85390  Biso   1.000  H
  C33      1.0000 0.01700  0.86100  0.11410  Biso   1.000  C
  C34      1.0000 0.98300  0.13900  0.88590  Biso   1.000  C
  H35      1.0000 0.00940  0.80060  0.11370  Biso   1.000  H
  H36      1.0000 0.99060  0.19940  0.88630  Biso   1.000  H
  C35      1.0000 0.64800  0.44960  0.53660  Biso   1.000  C
  C36      1.0000 0.35200  0.55040  0.46340  Biso   1.000  C
  H37      1.0000 0.72030  0.48400  0.53120  Biso   1.000  H
  H38      1.0000 0.27970  0.51600  0.46880  Biso   1.000  H
  C37      1.0000 0.49400  0.38400  0.57220  Biso   1.000  C
  C38      1.0000 0.50600  0.61600  0.42780  Biso   1.000  C
  H39      1.0000 0.44140  0.37010  0.59520  Biso   1.000  H
  H40      1.0000 0.55860  0.62990  0.40480  Biso   1.000  H
  C39      1.0000 0.72800  0.10670  0.47720  Biso   1.000  C
  C40      1.0000 0.27200  0.89330  0.52280  Biso   1.000  C
  H41      1.0000 0.74710  0.05530  0.47800  Biso   1.000  H
  H42      1.0000 0.25290  0.94470  0.52200  Biso   1.000  H
  C41      1.0000 0.06800  0.55100  0.03630  Biso   1.000  C
  C42      1.0000 0.93200  0.44900  0.96370  Biso   1.000  C
  H43      1.0000 0.11530  0.58950  0.06050  Biso   1.000  H
  H44      1.0000 0.88470  0.41050  0.93950  Biso   1.000  H
  C43      1.0000 0.48400  0.02150  0.23560  Biso   1.000  C
  C44      1.0000 0.51600  0.97850  0.76440  Biso   1.000  C
  H45      1.0000 0.43930  0.04120  0.21490  Biso   1.000  H
  H46      1.0000 0.56070  0.95880  0.78510  Biso   1.000  H
  C45      1.0000 0.20090  0.14040  0.23270  Biso   1.000  C
  C46      1.0000 0.79910  0.85960  0.76730  Biso   1.000  C
  H47      1.0000 0.26590  0.12990  0.23810  Biso   1.000  H
  H48      1.0000 0.73410  0.87010  0.76190  Biso   1.000  H
  C47      1.0000 0.90370  0.20000  0.44990  Biso   1.000  C
  C48      1.0000 0.09630  0.80000  0.55010  Biso   1.000  C
  H49      1.0000 0.94830  0.26280  0.45790  Biso   1.000  H
  H50      1.0000 0.05170  0.73720  0.54210  Biso   1.000  H
  H51      1.0000 0.93420  0.16340  0.46950  Biso   1.000  H
  H52      1.0000 0.06580  0.83660  0.53050  Biso   1.000  H
  C49      1.0000 0.60400  0.95780  0.29960  Biso   1.000  C
  C50      1.0000 0.39600  0.04220  0.70040  Biso   1.000  C
  H53      1.0000 0.64320  0.93730  0.32250  Biso   1.000  H
  H54      1.0000 0.35680  0.06270  0.67750  Biso   1.000  H
  C51      1.0000 0.55100  0.97120  0.60540  Biso   1.000  C
  C52      1.0000 0.44900  0.02880  0.39460  Biso   1.000  C
  H55      1.0000 0.49780  0.99300  0.61600  Biso   1.000  H
  H56      1.0000 0.50220  0.00700  0.38400  Biso   1.000  H
  C53      1.0000 0.03340  0.29440  0.08350  Biso   1.000  C
  C54      1.0000 0.96660  0.70560  0.91650  Biso   1.000  C
  H57      1.0000 0.97510  0.26600  0.06090  Biso   1.000  H
  H58      1.0000 0.02490  0.73400  0.93910  Biso   1.000  H
  C55      1.0000 0.99700  0.46960  0.04970  Biso   1.000  C
  C56      1.0000 0.00300  0.53040  0.95030  Biso   1.000  C
  C57      1.0000 0.62200  0.71920  0.61090  Biso   1.000  C
  C58      1.0000 0.37800  0.28080  0.38910  Biso   1.000  C
  H59      1.0000 0.56770  0.74260  0.60220  Biso   1.000  H
  H60      1.0000 0.43230  0.25740  0.39780  Biso   1.000  H
  C59      1.0000 0.86180  0.85030  0.05140  Biso   1.000  C
  C60      1.0000 0.13820  0.14970  0.94860  Biso   1.000  C
  H61      1.0000 0.80770  0.87910  0.05270  Biso   1.000  H
  H62      1.0000 0.19230  0.12090  0.94730  Biso   1.000  H
  H63      1.0000 0.88990  0.85800  0.01920  Biso   1.000  H
  H64      1.0000 0.11010  0.14200  0.98080  Biso   1.000  H
  C61      1.0000 0.59550  0.62700  0.61330  Biso   1.000  C
  C62      1.0000 0.40450  0.37300  0.38670  Biso   1.000  C
  H65      1.0000 0.52370  0.58840  0.60640  Biso   1.000  H
  H66      1.0000 0.47630  0.41160  0.39360  Biso   1.000  H
  C63      1.0000 0.63400  0.04870  0.29220  Biso   1.000  C
  C64      1.0000 0.36600  0.95130  0.70780  Biso   1.000  C
  H67      1.0000 0.69340  0.08860  0.31090  Biso   1.000  H
  H68      1.0000 0.30660  0.91140  0.68910  Biso   1.000  H
  C65      1.0000 0.76000  0.87800  0.61960  Biso   1.000  C
  C66      1.0000 0.24000  0.12200  0.38040  Biso   1.000  C
  H69      1.0000 0.81760  0.89850  0.59720  Biso   1.000  H
  H70      1.0000 0.18240  0.10150  0.40280  Biso   1.000  H
  H71      1.0000 0.79150  0.90420  0.65170  Biso   1.000  H
  H72      1.0000 0.20850  0.09580  0.34830  Biso   1.000  H
  C67      1.0000 0.67740  0.58990  0.62620  Biso   1.000  C
  C68      1.0000 0.32260  0.41010  0.37380  Biso   1.000  C
  C69      1.0000 0.48310  0.23500  0.20390  Biso   1.000  C
  C70      1.0000 0.51690  0.76500  0.79610  Biso   1.000  C
  H73      1.0000 0.48820  0.21310  0.17270  Biso   1.000  H
  H74      1.0000 0.51180  0.78690  0.82730  Biso   1.000  H
  C71      1.0000 0.90990  0.06520  0.33790  Biso   1.000  C
  C72      1.0000 0.09010  0.93480  0.66210  Biso   1.000  C
  H75      1.0000 0.91150  0.00770  0.33120  Biso   1.000  H
  H76      1.0000 0.08850  0.99230  0.66880  Biso   1.000  H
  C73      1.0000 0.10600  0.08980  0.24790  Biso   1.000  C
  C74      1.0000 0.89400  0.91020  0.75210  Biso   1.000  C
  H77      1.0000 0.09250  0.03710  0.26490  Biso   1.000  H
  H78      1.0000 0.90750  0.96290  0.73510  Biso   1.000  H
  C75      1.0000 0.90600  0.09520  0.38360  Biso   1.000  C
  C76      1.0000 0.09400  0.90480  0.61640  Biso   1.000  C
  H79      1.0000 0.89430  0.05280  0.40750  Biso   1.000  H
  H80      1.0000 0.10570  0.94720  0.59250  Biso   1.000  H
  C77      1.0000 0.50630  0.26070  0.28410  Biso   1.000  C
  C78      1.0000 0.49370  0.73930  0.71590  Biso   1.000  C
  H81      1.0000 0.52810  0.26050  0.31690  Biso   1.000  H
  H82      1.0000 0.47190  0.73950  0.68310  Biso   1.000  H
  C79      1.0000 0.08800  0.20130  0.21210  Biso   1.000  C
  C80      1.0000 0.91200  0.79870  0.78790  Biso   1.000  C
  H83      1.0000 0.05870  0.24290  0.20020  Biso   1.000  H
  H84      1.0000 0.94130  0.75710  0.79980  Biso   1.000  H
  C81      1.0000 0.91300  0.09920  0.24770  Biso   1.000  C
  C82      1.0000 0.08700  0.90080  0.75230  Biso   1.000  C
  H85      1.0000 0.87810  0.03410  0.24250  Biso   1.000  H
  H86      1.0000 0.12190  0.96590  0.75750  Biso   1.000  H
  H87      1.0000 0.87330  0.12800  0.22730  Biso   1.000  H
  H88      1.0000 0.12670  0.87200  0.77270  Biso   1.000  H
  C83      1.0000 0.71400  0.62680  0.10950  Biso   1.000  C
  C84      1.0000 0.28600  0.37320  0.89050  Biso   1.000  C
  H89      1.0000 0.67470  0.60630  0.13670  Biso   1.000  H
  H90      1.0000 0.32530  0.39370  0.86330  Biso   1.000  H
  C85      1.0000 0.83300  0.68940  0.03300  Biso   1.000  C
  C86      1.0000 0.16700  0.31060  0.96700  Biso   1.000  C
  H91      1.0000 0.88430  0.71190  0.00990  Biso   1.000  H
  H92      1.0000 0.11570  0.28810  0.99010  Biso   1.000  H
  C87      1.0000 0.78100  0.64980  0.63590  Biso   1.000  C
  C88      1.0000 0.21900  0.35020  0.36410  Biso   1.000  C
  H93      1.0000 0.83740  0.62860  0.64330  Biso   1.000  H
  H94      1.0000 0.16260  0.37140  0.35670  Biso   1.000  H
  C89      1.0000 0.43340  0.29630  0.26380  Biso   1.000  C
  C90      1.0000 0.56660  0.70370  0.73620  Biso   1.000  C
  H95      1.0000 0.39800  0.32770  0.28140  Biso   1.000  H
  H96      1.0000 0.60200  0.67230  0.71860  Biso   1.000  H
  C91      1.0000 0.62100  0.18410  0.24620  Biso   1.000  C
  C92      1.0000 0.37900  0.81590  0.75380  Biso   1.000  C
  H97      1.0000 0.65390  0.19010  0.21500  Biso   1.000  H
  H98      1.0000 0.34610  0.80990  0.78500  Biso   1.000  H
  H99      1.0000 0.67860  0.21670  0.27080  Biso   1.000  H
  H100     1.0000 0.32140  0.78330  0.72920  Biso   1.000  H
  C93      1.0000 0.91490  0.21490  0.31280  Biso   1.000  C
  C94      1.0000 0.08510  0.78510  0.68720  Biso   1.000  C
  H101     1.0000 0.91820  0.25670  0.28910  Biso   1.000  H
  H102     1.0000 0.08180  0.74330  0.71090  Biso   1.000  H
  C95      1.0000 0.52600  0.40340  0.13360  Biso   1.000  C
  C96      1.0000 0.47400  0.59660  0.86640  Biso   1.000  C
  H103     1.0000 0.56120  0.40630  0.16410  Biso   1.000  H
  H104     1.0000 0.43880  0.59370  0.83590  Biso   1.000  H
  C97      1.0000 0.80330  0.74350  0.63470  Biso   1.000  C
  C98      1.0000 0.19670  0.25650  0.36530  Biso   1.000  C
  H105     1.0000 0.87370  0.78340  0.64350  Biso   1.000  H
  H106     1.0000 0.12630  0.21660  0.35650  Biso   1.000  H
  C99      1.0000 0.75400  0.71960  0.10120  Biso   1.000  C
  C100     1.0000 0.24600  0.28040  0.89880  Biso   1.000  C
  H107     1.0000 0.74460  0.76120  0.12360  Biso   1.000  H
  H108     1.0000 0.25540  0.23880  0.87640  Biso   1.000  H
  C101     1.0000 0.91300  0.23650  0.36110  Biso   1.000  C
  C102     1.0000 0.08700  0.76350  0.63890  Biso   1.000  C
  H109     1.0000 0.90850  0.29270  0.36930  Biso   1.000  H
  H110     1.0000 0.09150  0.70730  0.63070  Biso   1.000  H
  C103     1.0000 0.91670  0.18090  0.39910  Biso   1.000  C
  C104     1.0000 0.08330  0.81910  0.60090  Biso   1.000  C
  C105     1.0000 0.73280  0.56600  0.07830  Biso   1.000  C
  C106     1.0000 0.26720  0.43400  0.92170  Biso   1.000  C
  C107     1.0000 0.65400  0.49050  0.62810  Biso   1.000  C
  C108     1.0000 0.34600  0.50950  0.37190  Biso   1.000  C
  H111     1.0000 0.72100  0.47960  0.63530  Biso   1.000  H
  H112     1.0000 0.27900  0.52040  0.36470  Biso   1.000  H
  H113     1.0000 0.60530  0.46620  0.65390  Biso   1.000  H
  H114     1.0000 0.39470  0.53380  0.34610  Biso   1.000  H
  C109     1.0000 0.64800  0.92550  0.56030  Biso   1.000  C
  C110     1.0000 0.35200  0.07450  0.43970  Biso   1.000  C
  H115     1.0000 0.67520  0.90640  0.53320  Biso   1.000  H
  H116     1.0000 0.32480  0.09360  0.46680  Biso   1.000  H
  C111     1.0000 0.14870  0.39450  0.13430  Biso   1.000  C
  C112     1.0000 0.85130  0.60550  0.86570  Biso   1.000  C
  H117     1.0000 0.18480  0.44750  0.15310  Biso   1.000  H
  H118     1.0000 0.81520  0.55250  0.84690  Biso   1.000  H
  C113     1.0000 0.80600  0.74800  0.05930  Biso   1.000  C
  C114     1.0000 0.19400  0.25200  0.94070  Biso   1.000  C
  C115     1.0000 0.72720  0.77640  0.62160  Biso   1.000  C
  C116     1.0000 0.27280  0.22360  0.37840  Biso   1.000  C
  C117     1.0000 0.69200  0.46740  0.09020  Biso   1.000  C
  C118     1.0000 0.30800  0.53260  0.90980  Biso   1.000  C
  H119     1.0000 0.72740  0.46070  0.12090  Biso   1.000  H
  H120     1.0000 0.27260  0.53930  0.87910  Biso   1.000  H
  H121     1.0000 0.71150  0.43280  0.06510  Biso   1.000  H
  H122     1.0000 0.28850  0.56720  0.93490  Biso   1.000  H
  C119     1.0000 0.91170  0.12590  0.29980  Biso   1.000  C
  C120     1.0000 0.08830  0.87410  0.70020  Biso   1.000  C
  C121     1.0000 0.57850  0.08510  0.25750  Biso   1.000  C
  C122     1.0000 0.42150  0.91490  0.74250  Biso   1.000  C
  C123     1.0000 0.61200  0.94160  0.63520  Biso   1.000  C
  C124     1.0000 0.38800  0.05840  0.36480  Biso   1.000  C
  H123     1.0000 0.61120  0.93880  0.66900  Biso   1.000  H
  H124     1.0000 0.38880  0.06120  0.33100  Biso   1.000  H
  C125     1.0000 0.10890  0.26110  0.09940  Biso   1.000  C
  C126     1.0000 0.89110  0.73890  0.90060  Biso   1.000  C
  H125     1.0000 0.11170  0.20480  0.09040  Biso   1.000  H
  H126     1.0000 0.88830  0.79520  0.90960  Biso   1.000  H
