data_image0
_cell_length_a       8.324
_cell_length_b       8.324
_cell_length_c       45.18
_cell_angle_alpha    90
_cell_angle_beta     90
_cell_angle_gamma    120

_symmetry_space_group_name_H-M    "P 1"
_symmetry_int_tables_number       1

loop_
  _symmetry_equiv_pos_as_xyz
  'x, y, z'

loop_
  _atom_site_label
  _atom_site_occupancy
  _atom_site_fract_x
  _atom_site_fract_y
  _atom_site_fract_z
  _atom_site_thermal_displace_type
  _atom_site_B_iso_or_equiv
  _atom_site_type_symbol
  Cu1      1.0000 0.55732  0.14512  0.85012  Biso   1.000  Cu
  Cu2      1.0000 0.85488  0.41220  0.51678  Biso   1.000  Cu
  Cu3      1.0000 0.58780  0.44268  0.18345  Biso   1.000  Cu
  Cu4      1.0000 0.44268  0.85488  0.35012  Biso   1.000  Cu
  Cu5      1.0000 0.14512  0.58780  0.01678  Biso   1.000  Cu
  Cu6      1.0000 0.41220  0.55732  0.68345  Biso   1.000  Cu
  Cl1      1.0000 0.49651  0.35235  0.82652  Biso   1.000  Cl
  Cl2      1.0000 0.64765  0.14416  0.49319  Biso   1.000  Cl
  Cl3      1.0000 0.85584  0.50349  0.15985  Biso   1.000  Cl
  Cl4      1.0000 0.50349  0.64765  0.32652  Biso   1.000  Cl
  Cl5      1.0000 0.35235  0.85584  0.99319  Biso   1.000  Cl
  Cl6      1.0000 0.14416  0.49651  0.65985  Biso   1.000  Cl
  Cl7      1.0000 0.52837  0.98050  0.89240  Biso   1.000  Cl
  Cl8      1.0000 0.01950  0.54787  0.55907  Biso   1.000  Cl
  Cl9      1.0000 0.45213  0.47163  0.22573  Biso   1.000  Cl
  Cl10     1.0000 0.47163  0.01950  0.39240  Biso   1.000  Cl
  Cl11     1.0000 0.98050  0.45213  0.05907  Biso   1.000  Cl
  Cl12     1.0000 0.54787  0.52837  0.72573  Biso   1.000  Cl
  O1       1.0000 0.79560  0.21970  0.72406  Biso   1.000  O
  O2       1.0000 0.78030  0.57590  0.39073  Biso   1.000  O
  O3       1.0000 0.42410  0.20440  0.05739  Biso   1.000  O
  O4       1.0000 0.20440  0.78030  0.22406  Biso   1.000  O
  O5       1.0000 0.21970  0.42410  0.89073  Biso   1.000  O
  O6       1.0000 0.57590  0.79560  0.55739  Biso   1.000  O
  N1       1.0000 0.31800  0.93010  0.83485  Biso   1.000  N
  N2       1.0000 0.06990  0.38790  0.50152  Biso   1.000  N
  N3       1.0000 0.61210  0.68200  0.16818  Biso   1.000  N
  N4       1.0000 0.68200  0.06990  0.33485  Biso   1.000  N
  N5       1.0000 0.93010  0.61210  0.00152  Biso   1.000  N
  N6       1.0000 0.38790  0.31800  0.66818  Biso   1.000  N
  N7       1.0000 0.62520  0.90870  0.80459  Biso   1.000  N
  N8       1.0000 0.09130  0.71650  0.47126  Biso   1.000  N
  N9       1.0000 0.28350  0.37480  0.13792  Biso   1.000  N
  N10      1.0000 0.37480  0.09130  0.30459  Biso   1.000  N
  N11      1.0000 0.90870  0.28350  0.97126  Biso   1.000  N
  N12      1.0000 0.71650  0.62520  0.63792  Biso   1.000  N
  N13      1.0000 0.70460  0.08410  0.81441  Biso   1.000  N
  N14      1.0000 0.91590  0.62050  0.48108  Biso   1.000  N
  N15      1.0000 0.37950  0.29540  0.14774  Biso   1.000  N
  N16      1.0000 0.29540  0.91590  0.31441  Biso   1.000  N
  N17      1.0000 0.08410  0.37950  0.98108  Biso   1.000  N
  N18      1.0000 0.62050  0.70460  0.64774  Biso   1.000  N
  N19      1.0000 0.81900  0.19240  0.79393  Biso   1.000  N
  N20      1.0000 0.80760  0.62660  0.46060  Biso   1.000  N
  N21      1.0000 0.37340  0.18100  0.12726  Biso   1.000  N
  N22      1.0000 0.18100  0.80760  0.29393  Biso   1.000  N
  N23      1.0000 0.19240  0.37340  0.96060  Biso   1.000  N
  N24      1.0000 0.62660  0.81900  0.62726  Biso   1.000  N
  N25      1.0000 0.63030  0.06410  0.71798  Biso   1.000  N
  N26      1.0000 0.93590  0.56620  0.38465  Biso   1.000  N
  N27      1.0000 0.43380  0.36970  0.05131  Biso   1.000  N
  N28      1.0000 0.36970  0.93590  0.21798  Biso   1.000  N
  N29      1.0000 0.06410  0.43380  0.88465  Biso   1.000  N
  N30      1.0000 0.56620  0.63030  0.55131  Biso   1.000  N
  N31      1.0000 0.62830  0.93790  0.69988  Biso   1.000  N
  N32      1.0000 0.06210  0.69040  0.36655  Biso   1.000  N
  N33      1.0000 0.30960  0.37170  0.03321  Biso   1.000  N
  N34      1.0000 0.37170  0.06210  0.19988  Biso   1.000  N
  N35      1.0000 0.93790  0.30960  0.86655  Biso   1.000  N
  N36      1.0000 0.69040  0.62830  0.53321  Biso   1.000  N
  N37      1.0000 0.45630  0.79970  0.69950  Biso   1.000  N
  N38      1.0000 0.20030  0.65660  0.36617  Biso   1.000  N
  N39      1.0000 0.34340  0.54370  0.03283  Biso   1.000  N
  N40      1.0000 0.54370  0.20030  0.19950  Biso   1.000  N
  N41      1.0000 0.79970  0.34340  0.86617  Biso   1.000  N
  N42      1.0000 0.65660  0.45630  0.53283  Biso   1.000  N
  C1       1.0000 0.16370  0.93810  0.83687  Biso   1.000  C
  C2       1.0000 0.06190  0.22560  0.50354  Biso   1.000  C
  C3       1.0000 0.77440  0.83630  0.17020  Biso   1.000  C
  C4       1.0000 0.83630  0.06190  0.33687  Biso   1.000  C
  C5       1.0000 0.93810  0.77440  0.00354  Biso   1.000  C
  C6       1.0000 0.22560  0.16370  0.67020  Biso   1.000  C
  H1       1.0000 0.16990  0.04500  0.84500  Biso   1.000  H
  H2       1.0000 0.95500  0.12490  0.51167  Biso   1.000  H
  H3       1.0000 0.87510  0.83010  0.17833  Biso   1.000  H
  H4       1.0000 0.83010  0.95500  0.34500  Biso   1.000  H
  H5       1.0000 0.04500  0.87510  0.01167  Biso   1.000  H
  H6       1.0000 0.12490  0.16990  0.67833  Biso   1.000  H
  C7       1.0000 0.99180  0.79390  0.82743  Biso   1.000  C
  C8       1.0000 0.20610  0.19790  0.49410  Biso   1.000  C
  C9       1.0000 0.80210  0.00820  0.16076  Biso   1.000  C
  C10      1.0000 0.00820  0.20610  0.32743  Biso   1.000  C
  C11      1.0000 0.79390  0.80210  0.99410  Biso   1.000  C
  C12      1.0000 0.19790  0.99180  0.66076  Biso   1.000  C
  H7       1.0000 0.88460  0.80400  0.82910  Biso   1.000  H
  H8       1.0000 0.19600  0.08060  0.49577  Biso   1.000  H
  H9       1.0000 0.91940  0.11540  0.16243  Biso   1.000  H
  H10      1.0000 0.11540  0.19600  0.32910  Biso   1.000  H
  H11      1.0000 0.80400  0.91940  0.99577  Biso   1.000  H
  H12      1.0000 0.08060  0.88460  0.66243  Biso   1.000  H
  C13      1.0000 0.98200  0.63710  0.81561  Biso   1.000  C
  C14      1.0000 0.36290  0.34490  0.48228  Biso   1.000  C
  C15      1.0000 0.65510  0.01800  0.14894  Biso   1.000  C
  C16      1.0000 0.01800  0.36290  0.31561  Biso   1.000  C
  C17      1.0000 0.63710  0.65510  0.98228  Biso   1.000  C
  C18      1.0000 0.34490  0.98200  0.64894  Biso   1.000  C
  H13      1.0000 0.86810  0.53900  0.80890  Biso   1.000  H
  H14      1.0000 0.46100  0.32910  0.47557  Biso   1.000  H
  H15      1.0000 0.67090  0.13190  0.14223  Biso   1.000  H
  H16      1.0000 0.13190  0.46100  0.30890  Biso   1.000  H
  H17      1.0000 0.53900  0.67090  0.97557  Biso   1.000  H
  H18      1.0000 0.32910  0.86810  0.64223  Biso   1.000  H
  C19      1.0000 0.13950  0.62520  0.81373  Biso   1.000  C
  C20      1.0000 0.37480  0.51430  0.48040  Biso   1.000  C
  C21      1.0000 0.48570  0.86050  0.14706  Biso   1.000  C
  C22      1.0000 0.86050  0.37480  0.31373  Biso   1.000  C
  C23      1.0000 0.62520  0.48570  0.98040  Biso   1.000  C
  C24      1.0000 0.51430  0.13950  0.64706  Biso   1.000  C
  H19      1.0000 0.13540  0.51870  0.80580  Biso   1.000  H
  H20      1.0000 0.48130  0.61670  0.47247  Biso   1.000  H
  H21      1.0000 0.38330  0.86460  0.13913  Biso   1.000  H
  H22      1.0000 0.86460  0.48130  0.30580  Biso   1.000  H
  H23      1.0000 0.51870  0.38330  0.97247  Biso   1.000  H
  H24      1.0000 0.61670  0.13540  0.63913  Biso   1.000  H
  C25      1.0000 0.30750  0.77440  0.82379  Biso   1.000  C
  C26      1.0000 0.22560  0.53310  0.49046  Biso   1.000  C
  C27      1.0000 0.46690  0.69250  0.15712  Biso   1.000  C
  C28      1.0000 0.69250  0.22560  0.32379  Biso   1.000  C
  C29      1.0000 0.77440  0.46690  0.99046  Biso   1.000  C
  C30      1.0000 0.53310  0.30750  0.65712  Biso   1.000  C
  C31      1.0000 0.48200  0.76230  0.82302  Biso   1.000  C
  C32      1.0000 0.23770  0.71970  0.48969  Biso   1.000  C
  C33      1.0000 0.28030  0.51800  0.15635  Biso   1.000  C
  C34      1.0000 0.51800  0.23770  0.32302  Biso   1.000  C
  C35      1.0000 0.76230  0.28030  0.98969  Biso   1.000  C
  C36      1.0000 0.71970  0.48200  0.65635  Biso   1.000  C
  H25      1.0000 0.52940  0.77300  0.84320  Biso   1.000  H
  H26      1.0000 0.22700  0.75640  0.50987  Biso   1.000  H
  H27      1.0000 0.24360  0.47060  0.17653  Biso   1.000  H
  H28      1.0000 0.47060  0.22700  0.34320  Biso   1.000  H
  H29      1.0000 0.77300  0.24360  0.00987  Biso   1.000  H
  H30      1.0000 0.75640  0.52940  0.67653  Biso   1.000  H
  H31      1.0000 0.45320  0.64100  0.81520  Biso   1.000  H
  H32      1.0000 0.35900  0.81220  0.48187  Biso   1.000  H
  H33      1.0000 0.18780  0.54680  0.14853  Biso   1.000  H
  H34      1.0000 0.54680  0.35900  0.31520  Biso   1.000  H
  H35      1.0000 0.64100  0.18780  0.98187  Biso   1.000  H
  H36      1.0000 0.81220  0.45320  0.64853  Biso   1.000  H
  C37      1.0000 0.68880  0.90410  0.77724  Biso   1.000  C
  C38      1.0000 0.09590  0.78470  0.44391  Biso   1.000  C
  C39      1.0000 0.21530  0.31120  0.11057  Biso   1.000  C
  C40      1.0000 0.31120  0.09590  0.27724  Biso   1.000  C
  C41      1.0000 0.90410  0.21530  0.94391  Biso   1.000  C
  C42      1.0000 0.78470  0.68880  0.61057  Biso   1.000  C
  H37      1.0000 0.65610  0.79940  0.76540  Biso   1.000  H
  H38      1.0000 0.20060  0.85670  0.43207  Biso   1.000  H
  H39      1.0000 0.14330  0.34390  0.09873  Biso   1.000  H
  H40      1.0000 0.34390  0.20060  0.26540  Biso   1.000  H
  H41      1.0000 0.79940  0.14330  0.93207  Biso   1.000  H
  H42      1.0000 0.85670  0.65610  0.59873  Biso   1.000  H
  C43      1.0000 0.81030  0.08400  0.77072  Biso   1.000  C
  C44      1.0000 0.91600  0.72630  0.43739  Biso   1.000  C
  C45      1.0000 0.27370  0.18970  0.10405  Biso   1.000  C
  C46      1.0000 0.18970  0.91600  0.27072  Biso   1.000  C
  C47      1.0000 0.08400  0.27370  0.93739  Biso   1.000  C
  C48      1.0000 0.72630  0.81030  0.60405  Biso   1.000  C
  C49      1.0000 0.90910  0.16940  0.74276  Biso   1.000  C
  C50      1.0000 0.83060  0.73970  0.40943  Biso   1.000  C
  C51      1.0000 0.26030  0.09090  0.07609  Biso   1.000  C
  C52      1.0000 0.09090  0.83060  0.24276  Biso   1.000  C
  C53      1.0000 0.16940  0.26030  0.90943  Biso   1.000  C
  C54      1.0000 0.73970  0.90910  0.57609  Biso   1.000  C
  H43      1.0000 0.02800  0.28060  0.74720  Biso   1.000  H
  H44      1.0000 0.71940  0.74740  0.41387  Biso   1.000  H
  H45      1.0000 0.25260  0.97200  0.08053  Biso   1.000  H
  H46      1.0000 0.97200  0.71940  0.24720  Biso   1.000  H
  H47      1.0000 0.28060  0.25260  0.91387  Biso   1.000  H
  H48      1.0000 0.74740  0.02800  0.58053  Biso   1.000  H
  H49      1.0000 0.93440  0.08190  0.73210  Biso   1.000  H
  H50      1.0000 0.91810  0.85250  0.39877  Biso   1.000  H
  H51      1.0000 0.14750  0.06560  0.06543  Biso   1.000  H
  H52      1.0000 0.06560  0.91810  0.23210  Biso   1.000  H
  H53      1.0000 0.08190  0.14750  0.89877  Biso   1.000  H
  H54      1.0000 0.85250  0.93440  0.56543  Biso   1.000  H
  C55      1.0000 0.46190  0.01160  0.73036  Biso   1.000  C
  C56      1.0000 0.98840  0.45030  0.39703  Biso   1.000  C
  C57      1.0000 0.54970  0.53810  0.06369  Biso   1.000  C
  C58      1.0000 0.53810  0.98840  0.23036  Biso   1.000  C
  C59      1.0000 0.01160  0.54970  0.89703  Biso   1.000  C
  C60      1.0000 0.45030  0.46190  0.56369  Biso   1.000  C
  C61      1.0000 0.34780  0.83910  0.71774  Biso   1.000  C
  C62      1.0000 0.16090  0.50870  0.38441  Biso   1.000  C
  C63      1.0000 0.49130  0.65220  0.05107  Biso   1.000  C
  C64      1.0000 0.65220  0.16090  0.21774  Biso   1.000  C
  C65      1.0000 0.83910  0.49130  0.88441  Biso   1.000  C
  C66      1.0000 0.50870  0.34780  0.55107  Biso   1.000  C
  C67      1.0000 0.15800  0.73740  0.72480  Biso   1.000  C
  C68      1.0000 0.26260  0.42060  0.39147  Biso   1.000  C
  C69      1.0000 0.57940  0.84200  0.05813  Biso   1.000  C
  C70      1.0000 0.84200  0.26260  0.22480  Biso   1.000  C
  C71      1.0000 0.73740  0.57940  0.89147  Biso   1.000  C
  C72      1.0000 0.42060  0.15800  0.55813  Biso   1.000  C
  H55      1.0000 0.07770  0.62160  0.71620  Biso   1.000  H
  H56      1.0000 0.37840  0.45610  0.38287  Biso   1.000  H
  H57      1.0000 0.54390  0.92230  0.04953  Biso   1.000  H
  H58      1.0000 0.92230  0.37840  0.21620  Biso   1.000  H
  H59      1.0000 0.62160  0.54390  0.88287  Biso   1.000  H
  H60      1.0000 0.45610  0.07770  0.54953  Biso   1.000  H
  C73      1.0000 0.09700  0.81800  0.74515  Biso   1.000  C
  C74      1.0000 0.18200  0.27900  0.41182  Biso   1.000  C
  C75      1.0000 0.72100  0.90300  0.07848  Biso   1.000  C
  C76      1.0000 0.90300  0.18200  0.24515  Biso   1.000  C
  C77      1.0000 0.81800  0.72100  0.91182  Biso   1.000  C
  C78      1.0000 0.27900  0.09700  0.57848  Biso   1.000  C
  H61      1.0000 0.97140  0.75500  0.75070  Biso   1.000  H
  H62      1.0000 0.24500  0.21640  0.41737  Biso   1.000  H
  H63      1.0000 0.78360  0.02860  0.08403  Biso   1.000  H
  H64      1.0000 0.02860  0.24500  0.25070  Biso   1.000  H
  H65      1.0000 0.75500  0.78360  0.91737  Biso   1.000  H
  H66      1.0000 0.21640  0.97140  0.58403  Biso   1.000  H
  C79      1.0000 0.21750  0.99200  0.75783  Biso   1.000  C
  C80      1.0000 0.00800  0.22550  0.42450  Biso   1.000  C
  C81      1.0000 0.77450  0.78250  0.09116  Biso   1.000  C
  C82      1.0000 0.78250  0.00800  0.25783  Biso   1.000  C
  C83      1.0000 0.99200  0.77450  0.92450  Biso   1.000  C
  C84      1.0000 0.22550  0.21750  0.59116  Biso   1.000  C
  H67      1.0000 0.16800  0.04090  0.77150  Biso   1.000  H
  H68      1.0000 0.95910  0.12710  0.43817  Biso   1.000  H
  H69      1.0000 0.87290  0.83200  0.10483  Biso   1.000  H
  H70      1.0000 0.83200  0.95910  0.27150  Biso   1.000  H
  H71      1.0000 0.04090  0.87290  0.93817  Biso   1.000  H
  H72      1.0000 0.12710  0.16800  0.60483  Biso   1.000  H
  C85      1.0000 0.40120  0.09310  0.75143  Biso   1.000  C
  C86      1.0000 0.90690  0.30810  0.41810  Biso   1.000  C
  C87      1.0000 0.69190  0.59880  0.08476  Biso   1.000  C
  C88      1.0000 0.59880  0.90690  0.25143  Biso   1.000  C
  C89      1.0000 0.09310  0.69190  0.91810  Biso   1.000  C
  C90      1.0000 0.30810  0.40120  0.58476  Biso   1.000  C
  H73      1.0000 0.48090  0.20800  0.76040  Biso   1.000  H
  H74      1.0000 0.79200  0.27290  0.42707  Biso   1.000  H
  H75      1.0000 0.72710  0.51910  0.09373  Biso   1.000  H
  H76      1.0000 0.51910  0.79200  0.26040  Biso   1.000  H
  H77      1.0000 0.20800  0.72710  0.92707  Biso   1.000  H
  H78      1.0000 0.27290  0.48090  0.59373  Biso   1.000  H
