data_image0
_cell_length_a       16.2227
_cell_length_b       7.6442
_cell_length_c       14.5166
_cell_angle_alpha    90
_cell_angle_beta     98.646
_cell_angle_gamma    90

_symmetry_space_group_name_H-M    "P 1"
_symmetry_int_tables_number       1

loop_
  _symmetry_equiv_pos_as_xyz
  'x, y, z'

loop_
  _atom_site_label
  _atom_site_occupancy
  _atom_site_fract_x
  _atom_site_fract_y
  _atom_site_fract_z
  _atom_site_thermal_displace_type
  _atom_site_B_iso_or_equiv
  _atom_site_type_symbol
  Cu1      1.0000 0.20176  0.52960  0.73133  Biso   1.000  Cu
  Cu2      1.0000 0.79823  0.02960  0.76867  Biso   1.000  Cu
  Cu3      1.0000 0.79823  0.47040  0.26867  Biso   1.000  Cu
  Cu4      1.0000 0.20176  0.97040  0.23133  Biso   1.000  Cu
  Cl1      1.0000 0.12412  0.28539  0.73719  Biso   1.000  Cl
  Cl2      1.0000 0.87588  0.78539  0.76281  Biso   1.000  Cl
  Cl3      1.0000 0.87588  0.71461  0.26281  Biso   1.000  Cl
  Cl4      1.0000 0.12412  0.21461  0.23719  Biso   1.000  Cl
  Cl5      1.0000 0.21515  0.80774  0.79629  Biso   1.000  Cl
  Cl6      1.0000 0.78485  0.30774  0.70371  Biso   1.000  Cl
  Cl7      1.0000 0.78485  0.19226  0.20371  Biso   1.000  Cl
  Cl8      1.0000 0.21515  0.69226  0.29629  Biso   1.000  Cl
  O1       1.0000 0.54398  0.68345  0.58758  Biso   1.000  O
  O2       1.0000 0.45602  0.18345  0.91242  Biso   1.000  O
  O3       1.0000 0.45602  0.31655  0.41242  Biso   1.000  O
  O4       1.0000 0.54398  0.81655  0.08758  Biso   1.000  O
  N1       1.0000 0.11919  0.62002  0.62308  Biso   1.000  N
  N2       1.0000 0.88081  0.12002  0.87692  Biso   1.000  N
  N3       1.0000 0.88081  0.37998  0.37692  Biso   1.000  N
  N4       1.0000 0.11919  0.87998  0.12308  Biso   1.000  N
  N5       1.0000 0.27766  0.55997  0.55027  Biso   1.000  N
  N6       1.0000 0.72234  0.05997  0.94973  Biso   1.000  N
  N7       1.0000 0.72234  0.44003  0.44973  Biso   1.000  N
  N8       1.0000 0.27766  0.94003  0.05027  Biso   1.000  N
  N9       1.0000 0.29946  0.56417  0.64339  Biso   1.000  N
  N10      1.0000 0.70054  0.06417  0.85661  Biso   1.000  N
  N11      1.0000 0.70054  0.43583  0.35661  Biso   1.000  N
  N12      1.0000 0.29946  0.93583  0.14339  Biso   1.000  N
  N13      1.0000 0.37098  0.64584  0.66209  Biso   1.000  N
  N14      1.0000 0.62902  0.14584  0.83791  Biso   1.000  N
  N15      1.0000 0.62902  0.35416  0.33791  Biso   1.000  N
  N16      1.0000 0.37098  0.85416  0.16209  Biso   1.000  N
  N17      1.0000 0.61470  0.78423  0.59394  Biso   1.000  N
  N18      1.0000 0.38530  0.28423  0.90606  Biso   1.000  N
  N19      1.0000 0.38530  0.21577  0.40606  Biso   1.000  N
  N20      1.0000 0.61470  0.71577  0.09394  Biso   1.000  N
  N21      1.0000 0.65001  0.84001  0.67782  Biso   1.000  N
  N22      1.0000 0.34999  0.34001  0.82218  Biso   1.000  N
  N23      1.0000 0.34999  0.15999  0.32218  Biso   1.000  N
  N24      1.0000 0.65001  0.65999  0.17782  Biso   1.000  N
  N25      1.0000 0.71574  0.93074  0.66444  Biso   1.000  N
  N26      1.0000 0.28426  0.43074  0.83556  Biso   1.000  N
  N27      1.0000 0.28426  0.06926  0.33556  Biso   1.000  N
  N28      1.0000 0.71574  0.56926  0.16444  Biso   1.000  N
  C1       1.0000 0.05360  0.71170  0.64409  Biso   1.000  C
  C2       1.0000 0.94640  0.21170  0.85591  Biso   1.000  C
  C3       1.0000 0.94640  0.28830  0.35591  Biso   1.000  C
  C4       1.0000 0.05360  0.78830  0.14409  Biso   1.000  C
  H1       1.0000 0.04850  0.72950  0.70770  Biso   1.000  H
  H2       1.0000 0.95150  0.22950  0.79230  Biso   1.000  H
  H3       1.0000 0.95150  0.27050  0.29230  Biso   1.000  H
  H4       1.0000 0.04850  0.77050  0.20770  Biso   1.000  H
  C5       1.0000 0.99347  0.78100  0.57621  Biso   1.000  C
  C6       1.0000 0.00653  0.28100  0.92379  Biso   1.000  C
  C7       1.0000 0.00653  0.21900  0.42379  Biso   1.000  C
  C8       1.0000 0.99347  0.71900  0.07621  Biso   1.000  C
  H5       1.0000 0.94820  0.84600  0.59320  Biso   1.000  H
  H6       1.0000 0.05180  0.34600  0.90680  Biso   1.000  H
  H7       1.0000 0.05180  0.15400  0.40680  Biso   1.000  H
  H8       1.0000 0.94820  0.65400  0.09320  Biso   1.000  H
  C9       1.0000 0.99996  0.75470  0.48342  Biso   1.000  C
  C10      1.0000 0.00004  0.25470  0.01658  Biso   1.000  C
  C11      1.0000 0.00004  0.24530  0.51658  Biso   1.000  C
  C12      1.0000 0.99996  0.74530  0.98342  Biso   1.000  C
  H9       1.0000 0.95960  0.80200  0.43580  Biso   1.000  H
  H10      1.0000 0.04040  0.30200  0.06420  Biso   1.000  H
  H11      1.0000 0.04040  0.19800  0.56420  Biso   1.000  H
  H12      1.0000 0.95960  0.69800  0.93580  Biso   1.000  H
  C13      1.0000 0.06665  0.65770  0.46107  Biso   1.000  C
  C14      1.0000 0.93335  0.15770  0.03893  Biso   1.000  C
  C15      1.0000 0.93335  0.34230  0.53893  Biso   1.000  C
  C16      1.0000 0.06665  0.84230  0.96107  Biso   1.000  C
  H13      1.0000 0.07220  0.63620  0.39780  Biso   1.000  H
  H14      1.0000 0.92780  0.13620  0.10220  Biso   1.000  H
  H15      1.0000 0.92780  0.36380  0.60220  Biso   1.000  H
  H16      1.0000 0.07220  0.86380  0.89780  Biso   1.000  H
  C17      1.0000 0.12519  0.59260  0.53265  Biso   1.000  C
  C18      1.0000 0.87481  0.09260  0.96735  Biso   1.000  C
  C19      1.0000 0.87481  0.40740  0.46735  Biso   1.000  C
  C20      1.0000 0.12519  0.90740  0.03265  Biso   1.000  C
  C21      1.0000 0.19712  0.48240  0.51109  Biso   1.000  C
  C22      1.0000 0.80288  0.98240  0.98891  Biso   1.000  C
  C23      1.0000 0.80288  0.51760  0.48891  Biso   1.000  C
  C24      1.0000 0.19712  0.01760  0.01109  Biso   1.000  C
  H17      1.0000 0.19280  0.36360  0.53720  Biso   1.000  H
  H18      1.0000 0.80720  0.86360  0.96280  Biso   1.000  H
  H19      1.0000 0.80720  0.63640  0.46280  Biso   1.000  H
  H20      1.0000 0.19280  0.13640  0.03720  Biso   1.000  H
  H21      1.0000 0.19400  0.47120  0.44270  Biso   1.000  H
  H22      1.0000 0.80600  0.97120  0.05730  Biso   1.000  H
  H23      1.0000 0.80600  0.52880  0.55730  Biso   1.000  H
  H24      1.0000 0.19400  0.02880  0.94270  Biso   1.000  H
  C25      1.0000 0.33585  0.63800  0.50771  Biso   1.000  C
  C26      1.0000 0.66415  0.13800  0.99229  Biso   1.000  C
  C27      1.0000 0.66415  0.36200  0.49229  Biso   1.000  C
  C28      1.0000 0.33585  0.86200  0.00771  Biso   1.000  C
  H25      1.0000 0.33590  0.65240  0.44270  Biso   1.000  H
  H26      1.0000 0.66410  0.15240  0.05730  Biso   1.000  H
  H27      1.0000 0.66410  0.34760  0.55730  Biso   1.000  H
  H28      1.0000 0.33590  0.84760  0.94270  Biso   1.000  H
  C29      1.0000 0.39540  0.69240  0.57965  Biso   1.000  C
  C30      1.0000 0.60460  0.19240  0.92035  Biso   1.000  C
  C31      1.0000 0.60460  0.30760  0.42035  Biso   1.000  C
  C32      1.0000 0.39540  0.80760  0.07965  Biso   1.000  C
  C33      1.0000 0.47098  0.79980  0.57594  Biso   1.000  C
  C34      1.0000 0.52902  0.29980  0.92406  Biso   1.000  C
  C35      1.0000 0.52902  0.20020  0.42406  Biso   1.000  C
  C36      1.0000 0.47098  0.70020  0.07594  Biso   1.000  C
  H29      1.0000 0.46630  0.86130  0.51540  Biso   1.000  H
  H30      1.0000 0.53370  0.36130  0.98460  Biso   1.000  H
  H31      1.0000 0.53370  0.13870  0.48460  Biso   1.000  H
  H32      1.0000 0.46630  0.63870  0.01540  Biso   1.000  H
  H33      1.0000 0.47690  0.88850  0.62620  Biso   1.000  H
  H34      1.0000 0.52310  0.38850  0.87380  Biso   1.000  H
  H35      1.0000 0.52310  0.11150  0.37380  Biso   1.000  H
  H36      1.0000 0.47690  0.61150  0.12620  Biso   1.000  H
  C37      1.0000 0.65519  0.83960  0.52329  Biso   1.000  C
  C38      1.0000 0.34481  0.33960  0.97671  Biso   1.000  C
  C39      1.0000 0.34481  0.16040  0.47671  Biso   1.000  C
  C40      1.0000 0.65519  0.66040  0.02329  Biso   1.000  C
  C41      1.0000 0.72243  0.93290  0.57098  Biso   1.000  C
  C42      1.0000 0.27757  0.43290  0.92902  Biso   1.000  C
  C43      1.0000 0.27757  0.06710  0.42902  Biso   1.000  C
  C44      1.0000 0.72243  0.56710  0.07098  Biso   1.000  C
  C45      1.0000 0.78277  0.00790  0.52312  Biso   1.000  C
  C46      1.0000 0.21723  0.50790  0.97688  Biso   1.000  C
  C47      1.0000 0.21723  0.99210  0.47688  Biso   1.000  C
  C48      1.0000 0.78277  0.49210  0.02312  Biso   1.000  C
  H37      1.0000 0.82960  0.06910  0.55490  Biso   1.000  H
  H38      1.0000 0.17040  0.56910  0.94510  Biso   1.000  H
  H39      1.0000 0.17040  0.93090  0.44510  Biso   1.000  H
  H40      1.0000 0.82960  0.43090  0.05490  Biso   1.000  H
  C49      1.0000 0.77058  0.98810  0.42770  Biso   1.000  C
  C50      1.0000 0.22942  0.48810  0.07230  Biso   1.000  C
  C51      1.0000 0.22942  0.01190  0.57230  Biso   1.000  C
  C52      1.0000 0.77058  0.51190  0.92770  Biso   1.000  C
  H41      1.0000 0.81020  0.03640  0.39280  Biso   1.000  H
  H42      1.0000 0.18980  0.53640  0.10720  Biso   1.000  H
  H43      1.0000 0.18980  0.96360  0.60720  Biso   1.000  H
  H44      1.0000 0.81020  0.46360  0.89280  Biso   1.000  H
  C53      1.0000 0.70041  0.89740  0.38004  Biso   1.000  C
  C54      1.0000 0.29959  0.39740  0.11996  Biso   1.000  C
  C55      1.0000 0.29959  0.10260  0.61996  Biso   1.000  C
  C56      1.0000 0.70041  0.60260  0.88004  Biso   1.000  C
  H45      1.0000 0.69390  0.88950  0.31400  Biso   1.000  H
  H46      1.0000 0.30610  0.38950  0.18600  Biso   1.000  H
  H47      1.0000 0.30610  0.11050  0.68600  Biso   1.000  H
  H48      1.0000 0.69390  0.61050  0.81400  Biso   1.000  H
  C57      1.0000 0.64150  0.82030  0.42610  Biso   1.000  C
  C58      1.0000 0.35850  0.32030  0.07390  Biso   1.000  C
  C59      1.0000 0.35850  0.17970  0.57390  Biso   1.000  C
  C60      1.0000 0.64150  0.67970  0.92610  Biso   1.000  C
  H49      1.0000 0.59490  0.75840  0.39430  Biso   1.000  H
  H50      1.0000 0.40510  0.25840  0.10570  Biso   1.000  H
  H51      1.0000 0.40510  0.24160  0.60570  Biso   1.000  H
  H52      1.0000 0.59490  0.74160  0.89430  Biso   1.000  H
  O5       1.0000 0.44756  0.77630  0.84629  Biso   1.000  O
  O6       1.0000 0.55244  0.27630  0.65371  Biso   1.000  O
  O7       1.0000 0.55244  0.22370  0.15371  Biso   1.000  O
  O8       1.0000 0.44756  0.72370  0.34629  Biso   1.000  O
  H53      1.0000 0.42080  0.74100  0.79590  Biso   1.000  H
  H54      1.0000 0.57920  0.24100  0.70410  Biso   1.000  H
  H55      1.0000 0.57920  0.25900  0.20410  Biso   1.000  H
  H56      1.0000 0.42080  0.75900  0.29590  Biso   1.000  H
  H57      1.0000 0.44300  0.88400  0.84000  Biso   1.000  H
  H58      1.0000 0.55700  0.38400  0.66000  Biso   1.000  H
  H59      1.0000 0.55700  0.11600  0.16000  Biso   1.000  H
  H60      1.0000 0.44300  0.61600  0.34000  Biso   1.000  H
