data_image0
_cell_length_a       16.1956
_cell_length_b       8.0533
_cell_length_c       14.7916
_cell_angle_alpha    90
_cell_angle_beta     97.113
_cell_angle_gamma    90

_symmetry_space_group_name_H-M    "P 1"
_symmetry_int_tables_number       1

loop_
  _symmetry_equiv_pos_as_xyz
  'x, y, z'

loop_
  _atom_site_label
  _atom_site_occupancy
  _atom_site_fract_x
  _atom_site_fract_y
  _atom_site_fract_z
  _atom_site_thermal_displace_type
  _atom_site_B_iso_or_equiv
  _atom_site_type_symbol
  Cu1      1.0000 0.20592  0.02376  0.72324  Biso   1.000  Cu
  Cu2      1.0000 0.79408  0.52376  0.77676  Biso   1.000  Cu
  Cu3      1.0000 0.79408  0.97624  0.27676  Biso   1.000  Cu
  Cu4      1.0000 0.20592  0.47624  0.22324  Biso   1.000  Cu
  Br1      1.0000 0.21994  0.30892  0.78567  Biso   1.000  Br
  Br2      1.0000 0.78006  0.80892  0.71433  Biso   1.000  Br
  Br3      1.0000 0.78006  0.69108  0.21433  Biso   1.000  Br
  Br4      1.0000 0.21994  0.19108  0.28567  Biso   1.000  Br
  Br5      1.0000 0.12278  0.77786  0.73369  Biso   1.000  Br
  Br6      1.0000 0.87722  0.27786  0.76631  Biso   1.000  Br
  Br7      1.0000 0.87722  0.22214  0.26631  Biso   1.000  Br
  Br8      1.0000 0.12278  0.72214  0.23369  Biso   1.000  Br
  O1       1.0000 0.54385  0.21060  0.59023  Biso   1.000  O
  O2       1.0000 0.45615  0.71060  0.90977  Biso   1.000  O
  O3       1.0000 0.45615  0.78940  0.40977  Biso   1.000  O
  O4       1.0000 0.54385  0.28940  0.09023  Biso   1.000  O
  N1       1.0000 0.12379  0.10790  0.61891  Biso   1.000  N
  N2       1.0000 0.87621  0.60790  0.88109  Biso   1.000  N
  N3       1.0000 0.87621  0.89210  0.38109  Biso   1.000  N
  N4       1.0000 0.12379  0.39210  0.11891  Biso   1.000  N
  N5       1.0000 0.28316  0.06150  0.54489  Biso   1.000  N
  N6       1.0000 0.71684  0.56150  0.95511  Biso   1.000  N
  N7       1.0000 0.71684  0.93850  0.45511  Biso   1.000  N
  N8       1.0000 0.28316  0.43850  0.04489  Biso   1.000  N
  N9       1.0000 0.30626  0.05320  0.63566  Biso   1.000  N
  N10      1.0000 0.69374  0.55320  0.86434  Biso   1.000  N
  N11      1.0000 0.69374  0.94680  0.36434  Biso   1.000  N
  N12      1.0000 0.30626  0.44680  0.13566  Biso   1.000  N
  N13      1.0000 0.37422  0.13820  0.65511  Biso   1.000  N
  N14      1.0000 0.62578  0.63820  0.84489  Biso   1.000  N
  N15      1.0000 0.62578  0.86180  0.34489  Biso   1.000  N
  N16      1.0000 0.37422  0.36180  0.15511  Biso   1.000  N
  N17      1.0000 0.61360  0.30750  0.60020  Biso   1.000  N
  N18      1.0000 0.38640  0.80750  0.89980  Biso   1.000  N
  N19      1.0000 0.38640  0.69250  0.39980  Biso   1.000  N
  N20      1.0000 0.61360  0.19250  0.10020  Biso   1.000  N
  N21      1.0000 0.64720  0.35370  0.68370  Biso   1.000  N
  N22      1.0000 0.35280  0.85370  0.81630  Biso   1.000  N
  N23      1.0000 0.35280  0.64630  0.31630  Biso   1.000  N
  N24      1.0000 0.64720  0.14630  0.18370  Biso   1.000  N
  N25      1.0000 0.71533  0.43490  0.67342  Biso   1.000  N
  N26      1.0000 0.28467  0.93490  0.82658  Biso   1.000  N
  N27      1.0000 0.28467  0.56510  0.32658  Biso   1.000  N
  N28      1.0000 0.71533  0.06510  0.17342  Biso   1.000  N
  C1       1.0000 0.05780  0.19310  0.64120  Biso   1.000  C
  C2       1.0000 0.94220  0.69310  0.85880  Biso   1.000  C
  C3       1.0000 0.94220  0.80690  0.35880  Biso   1.000  C
  C4       1.0000 0.05780  0.30690  0.14120  Biso   1.000  C
  H1       1.0000 0.05160  0.20690  0.70380  Biso   1.000  H
  H2       1.0000 0.94840  0.70690  0.79620  Biso   1.000  H
  H3       1.0000 0.94840  0.79310  0.29620  Biso   1.000  H
  H4       1.0000 0.05160  0.29310  0.20380  Biso   1.000  H
  C5       1.0000 0.99860  0.26130  0.57630  Biso   1.000  C
  C6       1.0000 0.00140  0.76130  0.92370  Biso   1.000  C
  C7       1.0000 0.00140  0.73870  0.42370  Biso   1.000  C
  C8       1.0000 0.99860  0.23870  0.07630  Biso   1.000  C
  H5       1.0000 0.95290  0.32160  0.59430  Biso   1.000  H
  H6       1.0000 0.04710  0.82160  0.90570  Biso   1.000  H
  H7       1.0000 0.04710  0.67840  0.40570  Biso   1.000  H
  H8       1.0000 0.95290  0.17840  0.09430  Biso   1.000  H
  C9       1.0000 0.00650  0.24090  0.48460  Biso   1.000  C
  C10      1.0000 0.99350  0.74090  0.01540  Biso   1.000  C
  C11      1.0000 0.99350  0.75910  0.51540  Biso   1.000  C
  C12      1.0000 0.00650  0.25910  0.98460  Biso   1.000  C
  H9       1.0000 0.96710  0.28780  0.43880  Biso   1.000  H
  H10      1.0000 0.03290  0.78780  0.06120  Biso   1.000  H
  H11      1.0000 0.03290  0.71220  0.56120  Biso   1.000  H
  H12      1.0000 0.96710  0.21220  0.93880  Biso   1.000  H
  C13      1.0000 0.07380  0.14980  0.46180  Biso   1.000  C
  C14      1.0000 0.92620  0.64980  0.03820  Biso   1.000  C
  C15      1.0000 0.92620  0.85020  0.53820  Biso   1.000  C
  C16      1.0000 0.07380  0.35020  0.96180  Biso   1.000  C
  H13      1.0000 0.08050  0.13180  0.39960  Biso   1.000  H
  H14      1.0000 0.91950  0.63180  0.10040  Biso   1.000  H
  H15      1.0000 0.91950  0.86820  0.60040  Biso   1.000  H
  H16      1.0000 0.08050  0.36820  0.89960  Biso   1.000  H
  C17      1.0000 0.13100  0.08550  0.52980  Biso   1.000  C
  C18      1.0000 0.86900  0.58550  0.97020  Biso   1.000  C
  C19      1.0000 0.86900  0.91450  0.47020  Biso   1.000  C
  C20      1.0000 0.13100  0.41450  0.02980  Biso   1.000  C
  C21      1.0000 0.20450  0.98520  0.50680  Biso   1.000  C
  C22      1.0000 0.79550  0.48520  0.99320  Biso   1.000  C
  C23      1.0000 0.79550  0.01480  0.49320  Biso   1.000  C
  C24      1.0000 0.20450  0.51480  0.00680  Biso   1.000  C
  H17      1.0000 0.20110  0.87140  0.53140  Biso   1.000  H
  H18      1.0000 0.79890  0.37140  0.96860  Biso   1.000  H
  H19      1.0000 0.79890  0.12860  0.46860  Biso   1.000  H
  H20      1.0000 0.20110  0.62860  0.03140  Biso   1.000  H
  H21      1.0000 0.20250  0.97700  0.43980  Biso   1.000  H
  H22      1.0000 0.79750  0.47700  0.06020  Biso   1.000  H
  H23      1.0000 0.79750  0.02300  0.56020  Biso   1.000  H
  H24      1.0000 0.20250  0.52300  0.93980  Biso   1.000  H
  C25      1.0000 0.33810  0.15460  0.50570  Biso   1.000  C
  C26      1.0000 0.66190  0.65460  0.99430  Biso   1.000  C
  C27      1.0000 0.66190  0.84540  0.49430  Biso   1.000  C
  C28      1.0000 0.33810  0.34540  0.00570  Biso   1.000  C
  H25      1.0000 0.33660  0.18100  0.44290  Biso   1.000  H
  H26      1.0000 0.66340  0.68100  0.05710  Biso   1.000  H
  H27      1.0000 0.66340  0.81900  0.55710  Biso   1.000  H
  H28      1.0000 0.33660  0.31900  0.94290  Biso   1.000  H
  C29      1.0000 0.39600  0.20280  0.57550  Biso   1.000  C
  C30      1.0000 0.60400  0.70280  0.92450  Biso   1.000  C
  C31      1.0000 0.60400  0.79720  0.42450  Biso   1.000  C
  C32      1.0000 0.39600  0.29720  0.07550  Biso   1.000  C
  C33      1.0000 0.46890  0.31490  0.57430  Biso   1.000  C
  C34      1.0000 0.53110  0.81490  0.92570  Biso   1.000  C
  C35      1.0000 0.53110  0.68510  0.42570  Biso   1.000  C
  C36      1.0000 0.46890  0.18510  0.07430  Biso   1.000  C
  H29      1.0000 0.46640  0.37190  0.51480  Biso   1.000  H
  H30      1.0000 0.53360  0.87190  0.98520  Biso   1.000  H
  H31      1.0000 0.53360  0.62810  0.48520  Biso   1.000  H
  H32      1.0000 0.46640  0.12810  0.01480  Biso   1.000  H
  H33      1.0000 0.46930  0.40000  0.62270  Biso   1.000  H
  H34      1.0000 0.53070  0.90000  0.87730  Biso   1.000  H
  H35      1.0000 0.53070  0.60000  0.37730  Biso   1.000  H
  H36      1.0000 0.46930  0.10000  0.12270  Biso   1.000  H
  C37      1.0000 0.65960  0.35700  0.53350  Biso   1.000  C
  C38      1.0000 0.34040  0.85700  0.96650  Biso   1.000  C
  C39      1.0000 0.34040  0.64300  0.46650  Biso   1.000  C
  C40      1.0000 0.65960  0.14300  0.03350  Biso   1.000  C
  C41      1.0000 0.72620  0.43830  0.58210  Biso   1.000  C
  C42      1.0000 0.27380  0.93830  0.91790  Biso   1.000  C
  C43      1.0000 0.27380  0.56170  0.41790  Biso   1.000  C
  C44      1.0000 0.72620  0.06170  0.08210  Biso   1.000  C
  C45      1.0000 0.79070  0.50490  0.53820  Biso   1.000  C
  C46      1.0000 0.20930  0.00490  0.96180  Biso   1.000  C
  C47      1.0000 0.20930  0.49510  0.46180  Biso   1.000  C
  C48      1.0000 0.79070  0.99510  0.03820  Biso   1.000  C
  H37      1.0000 0.83740  0.55840  0.57090  Biso   1.000  H
  H38      1.0000 0.16260  0.05840  0.92910  Biso   1.000  H
  H39      1.0000 0.16260  0.44160  0.42910  Biso   1.000  H
  H40      1.0000 0.83740  0.94160  0.07090  Biso   1.000  H
  C49      1.0000 0.78220  0.48790  0.44430  Biso   1.000  C
  C50      1.0000 0.21780  0.98790  0.05570  Biso   1.000  C
  C51      1.0000 0.21780  0.51210  0.55570  Biso   1.000  C
  C52      1.0000 0.78220  0.01210  0.94430  Biso   1.000  C
  H41      1.0000 0.82420  0.53190  0.41170  Biso   1.000  H
  H42      1.0000 0.17580  0.03190  0.08830  Biso   1.000  H
  H43      1.0000 0.17580  0.46810  0.58830  Biso   1.000  H
  H44      1.0000 0.82420  0.96810  0.91170  Biso   1.000  H
  C53      1.0000 0.71340  0.40760  0.39590  Biso   1.000  C
  C54      1.0000 0.28660  0.90760  0.10410  Biso   1.000  C
  C55      1.0000 0.28660  0.59240  0.60410  Biso   1.000  C
  C56      1.0000 0.71340  0.09240  0.89590  Biso   1.000  C
  H45      1.0000 0.71020  0.40040  0.33150  Biso   1.000  H
  H46      1.0000 0.28980  0.90040  0.16850  Biso   1.000  H
  H47      1.0000 0.28980  0.59960  0.66850  Biso   1.000  H
  H48      1.0000 0.71020  0.09960  0.83150  Biso   1.000  H
  C57      1.0000 0.65090  0.33910  0.43820  Biso   1.000  C
  C58      1.0000 0.34910  0.83910  0.06180  Biso   1.000  C
  C59      1.0000 0.34910  0.66090  0.56180  Biso   1.000  C
  C60      1.0000 0.65090  0.16090  0.93820  Biso   1.000  C
  H49      1.0000 0.60480  0.28360  0.40550  Biso   1.000  H
  H50      1.0000 0.39520  0.78360  0.09450  Biso   1.000  H
  H51      1.0000 0.39520  0.71640  0.59450  Biso   1.000  H
  H52      1.0000 0.60480  0.21640  0.90550  Biso   1.000  H
  C61      1.0000 0.46260  0.35520  0.83300  Biso   1.000  C
  C62      1.0000 0.53740  0.85520  0.66700  Biso   1.000  C
  C63      1.0000 0.53740  0.64480  0.16700  Biso   1.000  C
  C64      1.0000 0.46260  0.14480  0.33300  Biso   1.000  C
  H53      1.0000 0.47810  0.40570  0.89300  Biso   1.000  H
  H54      1.0000 0.52190  0.90570  0.60700  Biso   1.000  H
  H55      1.0000 0.52190  0.59430  0.10700  Biso   1.000  H
  H56      1.0000 0.47810  0.09430  0.39300  Biso   1.000  H
  H57      1.0000 0.41200  0.40860  0.80310  Biso   1.000  H
  H58      1.0000 0.58800  0.90860  0.69690  Biso   1.000  H
  H59      1.0000 0.58800  0.59140  0.19690  Biso   1.000  H
  H60      1.0000 0.41200  0.09140  0.30310  Biso   1.000  H
  H61      1.0000 0.50790  0.37020  0.79560  Biso   1.000  H
  H62      1.0000 0.49210  0.87020  0.70440  Biso   1.000  H
  H63      1.0000 0.49210  0.62980  0.20440  Biso   1.000  H
  H64      1.0000 0.50790  0.12980  0.29560  Biso   1.000  H
  O5       1.0000 0.44760  0.18300  0.84363  Biso   1.000  O
  O6       1.0000 0.55240  0.68300  0.65637  Biso   1.000  O
  O7       1.0000 0.55240  0.81700  0.15637  Biso   1.000  O
  O8       1.0000 0.44760  0.31700  0.34363  Biso   1.000  O
  H65      1.0000 0.42150  0.14530  0.79530  Biso   1.000  H
  H66      1.0000 0.57850  0.64530  0.70470  Biso   1.000  H
  H67      1.0000 0.57850  0.85470  0.20470  Biso   1.000  H
  H68      1.0000 0.42150  0.35470  0.29530  Biso   1.000  H
