data_image0
_cell_length_a       6.4367
_cell_length_b       7.623
_cell_length_c       8.0846
_cell_angle_alpha    76.134
_cell_angle_beta     73.456
_cell_angle_gamma    81.476

_symmetry_space_group_name_H-M    "P 1"
_symmetry_int_tables_number       1

loop_
  _symmetry_equiv_pos_as_xyz
  'x, y, z'

loop_
  _atom_site_label
  _atom_site_occupancy
  _atom_site_fract_x
  _atom_site_fract_y
  _atom_site_fract_z
  _atom_site_thermal_displace_type
  _atom_site_B_iso_or_equiv
  _atom_site_type_symbol
  Cu1      1.0000 0.42117  0.65496  0.04379  Biso   1.000  Cu
  Cu2      1.0000 0.57883  0.34504  0.95621  Biso   1.000  Cu
  O1       1.0000 0.67370  0.76540  0.86740  Biso   1.000  O
  O2       1.0000 0.32630  0.23460  0.13260  Biso   1.000  O
  O3       1.0000 0.40530  0.41790  0.78150  Biso   1.000  O
  O4       1.0000 0.59470  0.58210  0.21850  Biso   1.000  O
  O5       1.0000 0.80660  0.49670  0.79800  Biso   1.000  O
  O6       1.0000 0.19340  0.50330  0.20200  Biso   1.000  O
  O7       1.0000 0.28080  0.68840  0.85040  Biso   1.000  O
  O8       1.0000 0.71920  0.31160  0.14960  Biso   1.000  O
  O9       1.0000 0.24700  0.88700  0.13610  Biso   1.000  O
  O10      1.0000 0.75300  0.11300  0.86390  Biso   1.000  O
  C1       1.0000 0.81250  0.66410  0.77860  Biso   1.000  C
  C2       1.0000 0.18750  0.33590  0.22140  Biso   1.000  C
  C3       1.0000 0.99650  0.75180  0.63320  Biso   1.000  C
  C4       1.0000 0.00350  0.24820  0.36680  Biso   1.000  C
  H1       1.0000 0.02740  0.85630  0.66340  Biso   1.000  H
  H2       1.0000 0.97260  0.14370  0.33660  Biso   1.000  H
  H3       1.0000 0.95160  0.78990  0.52700  Biso   1.000  H
  H4       1.0000 0.04840  0.21010  0.47300  Biso   1.000  H
  C5       1.0000 0.20290  0.62360  0.60220  Biso   1.000  C
  C6       1.0000 0.79710  0.37640  0.39780  Biso   1.000  C
  H5       1.0000 0.30680  0.67960  0.50130  Biso   1.000  H
  H6       1.0000 0.69320  0.32040  0.49870  Biso   1.000  H
  H7       1.0000 0.16990  0.51630  0.57830  Biso   1.000  H
  H8       1.0000 0.83010  0.48370  0.42170  Biso   1.000  H
  C7       1.0000 0.30150  0.57310  0.75690  Biso   1.000  C
  C8       1.0000 0.69850  0.42690  0.24310  Biso   1.000  C
  H9       1.0000 0.13900  0.88900  0.16500  Biso   1.000  H
  H10      1.0000 0.86100  0.11100  0.83500  Biso   1.000  H
  H11      1.0000 0.26800  0.98500  0.12700  Biso   1.000  H
  H12      1.0000 0.73200  0.01500  0.87300  Biso   1.000  H
  O11      1.0000 0.20360  0.11220  0.74540  Biso   1.000  O
  O12      1.0000 0.79640  0.88780  0.25460  Biso   1.000  O
  H13      1.0000 0.27200  0.19800  0.77100  Biso   1.000  H
  H14      1.0000 0.72800  0.80200  0.22900  Biso   1.000  H
  H15      1.0000 0.25900  0.01600  0.78200  Biso   1.000  H
  H16      1.0000 0.74100  0.98400  0.21800  Biso   1.000  H
