data_image0
_cell_length_a       6.4728
_cell_length_b       7.641
_cell_length_c       8.1048
_cell_angle_alpha    76.03
_cell_angle_beta     73.37
_cell_angle_gamma    81.33

_symmetry_space_group_name_H-M    "P 1"
_symmetry_int_tables_number       1

loop_
  _symmetry_equiv_pos_as_xyz
  'x, y, z'

loop_
  _atom_site_label
  _atom_site_occupancy
  _atom_site_fract_x
  _atom_site_fract_y
  _atom_site_fract_z
  _atom_site_thermal_displace_type
  _atom_site_B_iso_or_equiv
  _atom_site_type_symbol
  Cu1      1.0000 0.57880  0.84506  0.95600  Biso   1.000  Cu
  Cu2      1.0000 0.42120  0.15494  0.04400  Biso   1.000  Cu
  O1       1.0000 0.80840  0.99590  0.79610  Biso   1.000  O
  O2       1.0000 0.19160  0.00410  0.20390  Biso   1.000  O
  O3       1.0000 0.67320  0.26540  0.86740  Biso   1.000  O
  O4       1.0000 0.32680  0.73460  0.13260  Biso   1.000  O
  O5       1.0000 0.27990  0.18760  0.85180  Biso   1.000  O
  O6       1.0000 0.72010  0.81240  0.14820  Biso   1.000  O
  O7       1.0000 0.40590  0.91770  0.78230  Biso   1.000  O
  O8       1.0000 0.59410  0.08230  0.21770  Biso   1.000  O
  O9       1.0000 0.75090  0.61320  0.86580  Biso   1.000  O
  O10      1.0000 0.24910  0.38680  0.13420  Biso   1.000  O
  C1       1.0000 0.81310  0.16330  0.77800  Biso   1.000  C
  C2       1.0000 0.18690  0.83670  0.22200  Biso   1.000  C
  C3       1.0000 0.99440  0.25200  0.63430  Biso   1.000  C
  C4       1.0000 0.00560  0.74800  0.36570  Biso   1.000  C
  H1       1.0000 0.02560  0.35770  0.66640  Biso   1.000  H
  H2       1.0000 0.97440  0.64230  0.33360  Biso   1.000  H
  H3       1.0000 0.94860  0.29250  0.52630  Biso   1.000  H
  H4       1.0000 0.05140  0.70750  0.47370  Biso   1.000  H
  C5       1.0000 0.20310  0.12190  0.60160  Biso   1.000  C
  C6       1.0000 0.79690  0.87810  0.39840  Biso   1.000  C
  H5       1.0000 0.16960  0.01250  0.57760  Biso   1.000  H
  H6       1.0000 0.83040  0.98750  0.42240  Biso   1.000  H
  H7       1.0000 0.30860  0.17900  0.49860  Biso   1.000  H
  H8       1.0000 0.69140  0.82100  0.50140  Biso   1.000  H
  C7       1.0000 0.29970  0.07250  0.75620  Biso   1.000  C
  C8       1.0000 0.70030  0.92750  0.24380  Biso   1.000  C
  O11      1.0000 0.20060  0.61010  0.75030  Biso   1.000  O
  O12      1.0000 0.79940  0.38990  0.24970  Biso   1.000  O
  H9       1.0000 0.87100  0.64300  0.83200  Biso   1.000  H
  H10      1.0000 0.12900  0.35700  0.16800  Biso   1.000  H
  H11      1.0000 0.73000  0.53000  0.87000  Biso   1.000  H
  H12      1.0000 0.27000  0.47000  0.13000  Biso   1.000  H
  H13      1.0000 0.25000  0.70200  0.75000  Biso   1.000  H
  H14      1.0000 0.75000  0.29800  0.25000  Biso   1.000  H
  H15      1.0000 0.35200  0.58500  0.66100  Biso   1.000  H
  H16      1.0000 0.64800  0.41500  0.33900  Biso   1.000  H
