data_image0
_cell_length_a       6.4314
_cell_length_b       7.6008
_cell_length_c       8.0445
_cell_angle_alpha    76.149
_cell_angle_beta     73.504
_cell_angle_gamma    81.614

_symmetry_space_group_name_H-M    "P 1"
_symmetry_int_tables_number       1

loop_
  _symmetry_equiv_pos_as_xyz
  'x, y, z'

loop_
  _atom_site_label
  _atom_site_occupancy
  _atom_site_fract_x
  _atom_site_fract_y
  _atom_site_fract_z
  _atom_site_thermal_displace_type
  _atom_site_B_iso_or_equiv
  _atom_site_type_symbol
  O1       1.0000 0.80620  0.99680  0.79760  Biso   1.000  O
  O2       1.0000 0.19380  0.00320  0.20240  Biso   1.000  O
  O3       1.0000 0.67370  0.26570  0.86670  Biso   1.000  O
  O4       1.0000 0.32630  0.73430  0.13330  Biso   1.000  O
  O5       1.0000 0.40450  0.91750  0.78150  Biso   1.000  O
  O6       1.0000 0.59550  0.08250  0.21850  Biso   1.000  O
  O7       1.0000 0.28100  0.18860  0.84960  Biso   1.000  O
  O8       1.0000 0.71900  0.81140  0.15040  Biso   1.000  O
  O9       1.0000 0.75380  0.61280  0.86490  Biso   1.000  O
  O10      1.0000 0.24620  0.38720  0.13510  Biso   1.000  O
  O11      1.0000 0.20130  0.61160  0.74760  Biso   1.000  O
  O12      1.0000 0.79870  0.38840  0.25240  Biso   1.000  O
  Cu1      1.0000 0.57838  0.84494  0.95621  Biso   1.000  Cu
  Cu2      1.0000 0.42162  0.15506  0.04379  Biso   1.000  Cu
  H1       1.0000 0.72600  0.52200  0.85800  Biso   1.000  H
  H2       1.0000 0.27400  0.47800  0.14200  Biso   1.000  H
  H3       1.0000 0.24500  0.68400  0.76000  Biso   1.000  H
  H4       1.0000 0.75500  0.31600  0.24000  Biso   1.000  H
  H5       1.0000 0.87800  0.61600  0.83600  Biso   1.000  H
  H6       1.0000 0.12200  0.38400  0.16400  Biso   1.000  H
  H7       1.0000 0.23900  0.52700  0.78200  Biso   1.000  H
  H8       1.0000 0.76100  0.47300  0.21800  Biso   1.000  H
  C1       1.0000 0.81350  0.16490  0.77740  Biso   1.000  C
  C2       1.0000 0.18650  0.83510  0.22260  Biso   1.000  C
  C3       1.0000 0.99630  0.25230  0.63170  Biso   1.000  C
  C4       1.0000 0.00370  0.74770  0.36830  Biso   1.000  C
  H9       1.0000 0.02850  0.36060  0.66270  Biso   1.000  H
  H10      1.0000 0.97150  0.63940  0.33730  Biso   1.000  H
  H11      1.0000 0.94940  0.29160  0.52180  Biso   1.000  H
  H12      1.0000 0.05060  0.70840  0.47820  Biso   1.000  H
  C5       1.0000 0.20260  0.12430  0.60000  Biso   1.000  C
  C6       1.0000 0.79740  0.87570  0.40000  Biso   1.000  C
  H13      1.0000 0.16850  0.01350  0.57460  Biso   1.000  H
  H14      1.0000 0.83150  0.98650  0.42540  Biso   1.000  H
  H15      1.0000 0.30980  0.18280  0.49560  Biso   1.000  H
  H16      1.0000 0.69020  0.81720  0.50440  Biso   1.000  H
  C7       1.0000 0.30180  0.07270  0.75640  Biso   1.000  C
  C8       1.0000 0.69820  0.92730  0.24360  Biso   1.000  C
