data_image0
_cell_length_a       7.168
_cell_length_b       5.468
_cell_length_c       10.764
_cell_angle_alpha    90
_cell_angle_beta     90
_cell_angle_gamma    90

_symmetry_space_group_name_H-M    "P 1"
_symmetry_int_tables_number       1

loop_
  _symmetry_equiv_pos_as_xyz
  'x, y, z'

loop_
  _atom_site_label
  _atom_site_occupancy
  _atom_site_fract_x
  _atom_site_fract_y
  _atom_site_fract_z
  _atom_site_thermal_displace_type
  _atom_site_B_iso_or_equiv
  _atom_site_type_symbol
  Cu1      1.0000 0.00000  0.00000  0.00000  Biso   1.000  Cu
  Cu2      1.0000 0.50000  0.00000  0.50000  Biso   1.000  Cu
  C1       1.0000 0.33400  0.70310  0.10820  Biso   1.000  C
  C2       1.0000 0.16600  0.29690  0.60820  Biso   1.000  C
  C3       1.0000 0.33400  0.29690  0.89180  Biso   1.000  C
  C4       1.0000 0.16600  0.70310  0.39180  Biso   1.000  C
  C5       1.0000 0.66600  0.29690  0.89180  Biso   1.000  C
  C6       1.0000 0.83400  0.70310  0.39180  Biso   1.000  C
  C7       1.0000 0.66600  0.70310  0.10820  Biso   1.000  C
  C8       1.0000 0.83400  0.29690  0.60820  Biso   1.000  C
  N1       1.0000 0.20080  0.79310  0.07030  Biso   1.000  N
  N2       1.0000 0.29920  0.20690  0.57030  Biso   1.000  N
  N3       1.0000 0.20080  0.20690  0.92970  Biso   1.000  N
  N4       1.0000 0.29920  0.79310  0.42970  Biso   1.000  N
  N5       1.0000 0.79920  0.20690  0.92970  Biso   1.000  N
  N6       1.0000 0.70080  0.79310  0.42970  Biso   1.000  N
  N7       1.0000 0.79920  0.79310  0.07030  Biso   1.000  N
  N8       1.0000 0.70080  0.20690  0.57030  Biso   1.000  N
  C9       1.0000 0.00000  0.60090  0.73330  Biso   1.000  C
  C10      1.0000 0.50000  0.39910  0.23330  Biso   1.000  C
  C11      1.0000 0.00000  0.39910  0.26670  Biso   1.000  C
  C12      1.0000 0.50000  0.60090  0.76670  Biso   1.000  C
  N9       1.0000 0.00000  0.76200  0.80240  Biso   1.000  N
  N10      1.0000 0.50000  0.23800  0.30240  Biso   1.000  N
  N11      1.0000 0.00000  0.23800  0.19760  Biso   1.000  N
  N12      1.0000 0.50000  0.76200  0.69760  Biso   1.000  N
  C13      1.0000 0.50000  0.59830  0.14990  Biso   1.000  C
  C14      1.0000 0.00000  0.40170  0.64990  Biso   1.000  C
  C15      1.0000 0.50000  0.40170  0.85010  Biso   1.000  C
  C16      1.0000 0.00000  0.59830  0.35010  Biso   1.000  C
