data_image0
_cell_length_a       14.714
_cell_length_b       7.981
_cell_length_c       25.341
_cell_angle_alpha    90
_cell_angle_beta     104.629
_cell_angle_gamma    90

_symmetry_space_group_name_H-M    "P 1"
_symmetry_int_tables_number       1

loop_
  _symmetry_equiv_pos_as_xyz
  'x, y, z'

loop_
  _atom_site_label
  _atom_site_occupancy
  _atom_site_fract_x
  _atom_site_fract_y
  _atom_site_fract_z
  _atom_site_thermal_displace_type
  _atom_site_B_iso_or_equiv
  _atom_site_type_symbol
  C1       1.0000 0.84480  0.65910  0.82688  Biso   1.000  C
  C2       1.0000 0.65520  0.15910  0.67312  Biso   1.000  C
  C3       1.0000 0.15520  0.34090  0.17312  Biso   1.000  C
  C4       1.0000 0.34480  0.84090  0.32688  Biso   1.000  C
  H1       1.0000 0.88970  0.61490  0.85620  Biso   1.000  H
  H2       1.0000 0.61030  0.11490  0.64380  Biso   1.000  H
  H3       1.0000 0.11030  0.38510  0.14380  Biso   1.000  H
  H4       1.0000 0.38970  0.88510  0.35620  Biso   1.000  H
  C5       1.0000 0.87260  0.70850  0.78112  Biso   1.000  C
  C6       1.0000 0.62740  0.20850  0.71888  Biso   1.000  C
  C7       1.0000 0.12740  0.29150  0.21888  Biso   1.000  C
  C8       1.0000 0.37260  0.79150  0.28112  Biso   1.000  C
  H5       1.0000 0.93520  0.70060  0.78010  Biso   1.000  H
  H6       1.0000 0.56480  0.20060  0.71990  Biso   1.000  H
  H7       1.0000 0.06480  0.29940  0.21990  Biso   1.000  H
  H8       1.0000 0.43520  0.79940  0.28010  Biso   1.000  H
  C9       1.0000 0.80640  0.76940  0.73735  Biso   1.000  C
  C10      1.0000 0.69360  0.26940  0.76265  Biso   1.000  C
  C11      1.0000 0.19360  0.23060  0.26265  Biso   1.000  C
  C12      1.0000 0.30640  0.73060  0.23735  Biso   1.000  C
  H9       1.0000 0.82290  0.80030  0.70560  Biso   1.000  H
  H10      1.0000 0.67710  0.30030  0.79440  Biso   1.000  H
  H11      1.0000 0.17710  0.19970  0.29440  Biso   1.000  H
  H12      1.0000 0.32290  0.69970  0.20560  Biso   1.000  H
  C13      1.0000 0.71460  0.78420  0.74095  Biso   1.000  C
  C14      1.0000 0.78540  0.28420  0.75905  Biso   1.000  C
  C15      1.0000 0.28540  0.21580  0.25905  Biso   1.000  C
  C16      1.0000 0.21460  0.71580  0.24095  Biso   1.000  C
  H13      1.0000 0.66840  0.82480  0.71160  Biso   1.000  H
  H14      1.0000 0.83160  0.32480  0.78840  Biso   1.000  H
  H15      1.0000 0.33160  0.17520  0.28840  Biso   1.000  H
  H16      1.0000 0.16840  0.67520  0.21160  Biso   1.000  H
  C17      1.0000 0.69210  0.73780  0.78863  Biso   1.000  C
  C18      1.0000 0.80790  0.23780  0.71137  Biso   1.000  C
  C19      1.0000 0.30790  0.26220  0.21137  Biso   1.000  C
  C20      1.0000 0.19210  0.76220  0.28863  Biso   1.000  C
  C21      1.0000 0.59600  0.76150  0.79856  Biso   1.000  C
  C22      1.0000 0.90400  0.26150  0.70144  Biso   1.000  C
  C23      1.0000 0.40400  0.23850  0.20144  Biso   1.000  C
  C24      1.0000 0.09600  0.73850  0.29856  Biso   1.000  C
  H17      1.0000 0.56710  0.65250  0.79920  Biso   1.000  H
  H18      1.0000 0.93290  0.15250  0.70080  Biso   1.000  H
  H19      1.0000 0.43290  0.34750  0.20080  Biso   1.000  H
  H20      1.0000 0.06710  0.84750  0.29920  Biso   1.000  H
  H21      1.0000 0.60300  0.81230  0.83410  Biso   1.000  H
  H22      1.0000 0.89700  0.31230  0.66590  Biso   1.000  H
  H23      1.0000 0.39700  0.18770  0.16590  Biso   1.000  H
  H24      1.0000 0.10300  0.68770  0.33410  Biso   1.000  H
  C25      1.0000 0.47290  0.78620  0.71586  Biso   1.000  C
  C26      1.0000 0.02710  0.28620  0.78414  Biso   1.000  C
  C27      1.0000 0.52710  0.21380  0.28414  Biso   1.000  C
  C28      1.0000 0.97290  0.71380  0.21586  Biso   1.000  C
  C29      1.0000 0.40060  0.88770  0.68640  Biso   1.000  C
  C30      1.0000 0.09940  0.38770  0.81360  Biso   1.000  C
  C31      1.0000 0.59940  0.11230  0.31360  Biso   1.000  C
  C32      1.0000 0.90060  0.61230  0.18640  Biso   1.000  C
  H25      1.0000 0.39660  0.99940  0.69600  Biso   1.000  H
  H26      1.0000 0.10340  0.49940  0.80400  Biso   1.000  H
  H27      1.0000 0.60340  0.00060  0.30400  Biso   1.000  H
  H28      1.0000 0.89660  0.50060  0.19600  Biso   1.000  H
  C33      1.0000 0.33530  0.82070  0.64309  Biso   1.000  C
  C34      1.0000 0.16470  0.32070  0.85691  Biso   1.000  C
  C35      1.0000 0.66470  0.17930  0.35691  Biso   1.000  C
  C36      1.0000 0.83530  0.67930  0.14309  Biso   1.000  C
  H29      1.0000 0.28770  0.88890  0.62310  Biso   1.000  H
  H30      1.0000 0.21230  0.38890  0.87690  Biso   1.000  H
  H31      1.0000 0.71230  0.11110  0.37690  Biso   1.000  H
  H32      1.0000 0.78770  0.61110  0.12310  Biso   1.000  H
  C37      1.0000 0.33860  0.65500  0.62848  Biso   1.000  C
  C38      1.0000 0.16140  0.15500  0.87152  Biso   1.000  C
  C39      1.0000 0.66140  0.34500  0.37152  Biso   1.000  C
  C40      1.0000 0.83860  0.84500  0.12848  Biso   1.000  C
  H33      1.0000 0.29310  0.61140  0.59930  Biso   1.000  H
  H34      1.0000 0.20690  0.11140  0.90070  Biso   1.000  H
  H35      1.0000 0.70690  0.38860  0.40070  Biso   1.000  H
  H36      1.0000 0.79310  0.88860  0.09930  Biso   1.000  H
  C41      1.0000 0.41020  0.55430  0.65756  Biso   1.000  C
  C42      1.0000 0.08980  0.05430  0.84244  Biso   1.000  C
  C43      1.0000 0.58980  0.44570  0.34244  Biso   1.000  C
  C44      1.0000 0.91020  0.94570  0.15756  Biso   1.000  C
  C45      1.0000 0.47830  0.62050  0.70160  Biso   1.000  C
  C46      1.0000 0.02170  0.12050  0.79840  Biso   1.000  C
  C47      1.0000 0.52170  0.37950  0.29840  Biso   1.000  C
  C48      1.0000 0.97830  0.87950  0.20160  Biso   1.000  C
  H37      1.0000 0.52690  0.55310  0.72110  Biso   1.000  H
  H38      1.0000 0.97310  0.05310  0.77890  Biso   1.000  H
  H39      1.0000 0.47310  0.44690  0.27890  Biso   1.000  H
  H40      1.0000 0.02690  0.94690  0.22110  Biso   1.000  H
  C49      1.0000 0.35700  0.30860  0.60380  Biso   1.000  C
  C50      1.0000 0.14300  0.80860  0.89620  Biso   1.000  C
  C51      1.0000 0.64300  0.69140  0.39620  Biso   1.000  C
  C52      1.0000 0.85700  0.19140  0.10380  Biso   1.000  C
  H41      1.0000 0.38420  0.20460  0.59520  Biso   1.000  H
  H42      1.0000 0.11580  0.70460  0.90480  Biso   1.000  H
  H43      1.0000 0.61580  0.79540  0.40480  Biso   1.000  H
  H44      1.0000 0.88420  0.29540  0.09520  Biso   1.000  H
  H45      1.0000 0.34740  0.38080  0.57210  Biso   1.000  H
  H46      1.0000 0.15260  0.88080  0.92790  Biso   1.000  H
  H47      1.0000 0.65260  0.61920  0.42790  Biso   1.000  H
  H48      1.0000 0.84740  0.11920  0.07210  Biso   1.000  H
  C53      1.0000 0.26380  0.27190  0.61494  Biso   1.000  C
  C54      1.0000 0.23620  0.77190  0.88506  Biso   1.000  C
  C55      1.0000 0.73620  0.72810  0.38506  Biso   1.000  C
  C56      1.0000 0.76380  0.22810  0.11494  Biso   1.000  C
  C57      1.0000 0.24530  0.30050  0.66504  Biso   1.000  C
  C58      1.0000 0.25470  0.80050  0.83496  Biso   1.000  C
  C59      1.0000 0.75470  0.69950  0.33496  Biso   1.000  C
  C60      1.0000 0.74530  0.19950  0.16504  Biso   1.000  C
  H49      1.0000 0.29210  0.34140  0.69400  Biso   1.000  H
  H50      1.0000 0.20790  0.84140  0.80600  Biso   1.000  H
  H51      1.0000 0.70790  0.65860  0.30600  Biso   1.000  H
  H52      1.0000 0.79210  0.15860  0.19400  Biso   1.000  H
  C61      1.0000 0.15670  0.26790  0.67164  Biso   1.000  C
  C62      1.0000 0.34330  0.76790  0.82836  Biso   1.000  C
  C63      1.0000 0.84330  0.73210  0.32836  Biso   1.000  C
  C64      1.0000 0.65670  0.23210  0.17164  Biso   1.000  C
  H53      1.0000 0.14250  0.29050  0.70470  Biso   1.000  H
  H54      1.0000 0.35750  0.79050  0.79530  Biso   1.000  H
  H55      1.0000 0.85750  0.70950  0.29530  Biso   1.000  H
  H56      1.0000 0.64250  0.20950  0.20470  Biso   1.000  H
  C65      1.0000 0.08990  0.20160  0.62893  Biso   1.000  C
  C66      1.0000 0.41010  0.70160  0.87107  Biso   1.000  C
  C67      1.0000 0.91010  0.79840  0.37107  Biso   1.000  C
  C68      1.0000 0.58990  0.29840  0.12893  Biso   1.000  C
  H57      1.0000 0.03010  0.17680  0.63270  Biso   1.000  H
  H58      1.0000 0.46990  0.67680  0.86730  Biso   1.000  H
  H59      1.0000 0.96990  0.82320  0.36730  Biso   1.000  H
  H60      1.0000 0.53010  0.32320  0.13270  Biso   1.000  H
  C69      1.0000 0.11300  0.17260  0.58056  Biso   1.000  C
  C70      1.0000 0.38700  0.67260  0.91944  Biso   1.000  C
  C71      1.0000 0.88700  0.82740  0.41944  Biso   1.000  C
  C72      1.0000 0.61300  0.32740  0.08056  Biso   1.000  C
  H61      1.0000 0.06760  0.12760  0.55160  Biso   1.000  H
  H62      1.0000 0.43240  0.62760  0.94840  Biso   1.000  H
  H63      1.0000 0.93240  0.87240  0.44840  Biso   1.000  H
  H64      1.0000 0.56760  0.37240  0.05160  Biso   1.000  H
  C73      1.0000 0.06880  0.15440  0.40019  Biso   1.000  C
  C74      1.0000 0.43120  0.65440  0.09981  Biso   1.000  C
  C75      1.0000 0.93120  0.84560  0.59981  Biso   1.000  C
  C76      1.0000 0.56880  0.34560  0.90019  Biso   1.000  C
  C77      1.0000 0.97980  0.24490  0.36963  Biso   1.000  C
  C78      1.0000 0.52020  0.74490  0.13037  Biso   1.000  C
  C79      1.0000 0.02020  0.75510  0.63037  Biso   1.000  C
  C80      1.0000 0.47980  0.25510  0.86963  Biso   1.000  C
  H65      1.0000 0.92930  0.21740  0.38580  Biso   1.000  H
  H66      1.0000 0.57070  0.71740  0.11420  Biso   1.000  H
  H67      1.0000 0.07070  0.78260  0.61420  Biso   1.000  H
  H68      1.0000 0.42930  0.28260  0.88580  Biso   1.000  H
  H69      1.0000 0.99030  0.36370  0.37180  Biso   1.000  H
  H70      1.0000 0.50970  0.86370  0.12820  Biso   1.000  H
  H71      1.0000 0.00970  0.63630  0.62820  Biso   1.000  H
  H72      1.0000 0.49030  0.13630  0.87180  Biso   1.000  H
  H73      1.0000 0.96360  0.21060  0.33210  Biso   1.000  H
  H74      1.0000 0.53640  0.71060  0.16790  Biso   1.000  H
  H75      1.0000 0.03640  0.78940  0.66790  Biso   1.000  H
  H76      1.0000 0.46360  0.28940  0.83210  Biso   1.000  H
  C81      1.0000 0.29960  0.28670  0.42324  Biso   1.000  C
  C82      1.0000 0.20040  0.78670  0.07676  Biso   1.000  C
  C83      1.0000 0.70040  0.71330  0.57676  Biso   1.000  C
  C84      1.0000 0.79960  0.21330  0.92324  Biso   1.000  C
  C85      1.0000 0.33680  0.44630  0.40423  Biso   1.000  C
  C86      1.0000 0.16320  0.94630  0.09577  Biso   1.000  C
  C87      1.0000 0.66320  0.55370  0.59577  Biso   1.000  C
  C88      1.0000 0.83680  0.05370  0.90423  Biso   1.000  C
  H77      1.0000 0.37010  0.50970  0.43530  Biso   1.000  H
  H78      1.0000 0.12990  0.00970  0.06470  Biso   1.000  H
  H79      1.0000 0.62990  0.49030  0.56470  Biso   1.000  H
  H80      1.0000 0.87010  0.99030  0.93530  Biso   1.000  H
  H81      1.0000 0.37860  0.41900  0.38190  Biso   1.000  H
  H82      1.0000 0.12140  0.91900  0.11810  Biso   1.000  H
  H83      1.0000 0.62140  0.58100  0.61810  Biso   1.000  H
  H84      1.0000 0.87860  0.08100  0.88190  Biso   1.000  H
  H85      1.0000 0.28530  0.51160  0.38340  Biso   1.000  H
  H86      1.0000 0.21470  0.01160  0.11660  Biso   1.000  H
  H87      1.0000 0.71470  0.48840  0.61660  Biso   1.000  H
  H88      1.0000 0.78530  0.98840  0.88340  Biso   1.000  H
  C89      1.0000 0.37880  0.89710  0.50019  Biso   1.000  C
  C90      1.0000 0.12120  0.39710  0.99981  Biso   1.000  C
  C91      1.0000 0.62120  0.10290  0.49981  Biso   1.000  C
  C92      1.0000 0.87880  0.60290  0.00019  Biso   1.000  C
  C93      1.0000 0.46720  0.80890  0.53074  Biso   1.000  C
  C94      1.0000 0.03280  0.30890  0.96926  Biso   1.000  C
  C95      1.0000 0.53280  0.19110  0.46926  Biso   1.000  C
  C96      1.0000 0.96720  0.69110  0.03074  Biso   1.000  C
  H89      1.0000 0.45110  0.70390  0.54450  Biso   1.000  H
  H90      1.0000 0.04890  0.20390  0.95550  Biso   1.000  H
  H91      1.0000 0.54890  0.29610  0.45550  Biso   1.000  H
  H92      1.0000 0.95110  0.79610  0.04450  Biso   1.000  H
  H93      1.0000 0.50680  0.78890  0.50650  Biso   1.000  H
  H94      1.0000 0.99320  0.28890  0.99350  Biso   1.000  H
  H95      1.0000 0.49320  0.21110  0.49350  Biso   1.000  H
  H96      1.0000 0.00680  0.71110  0.00650  Biso   1.000  H
  H97      1.0000 0.49990  0.87760  0.56060  Biso   1.000  H
  H98      1.0000 0.00010  0.37760  0.93940  Biso   1.000  H
  H99      1.0000 0.50010  0.12240  0.43940  Biso   1.000  H
  H100     1.0000 0.99990  0.62240  0.06060  Biso   1.000  H
  C97      1.0000 0.14690  0.76490  0.47627  Biso   1.000  C
  C98      1.0000 0.35310  0.26490  0.02373  Biso   1.000  C
  C99      1.0000 0.85310  0.23510  0.52373  Biso   1.000  C
  C100     1.0000 0.64690  0.73510  0.97627  Biso   1.000  C
  C101     1.0000 0.10620  0.60650  0.49318  Biso   1.000  C
  C102     1.0000 0.39380  0.10650  0.00682  Biso   1.000  C
  C103     1.0000 0.89380  0.39350  0.50682  Biso   1.000  C
  C104     1.0000 0.60620  0.89350  0.99318  Biso   1.000  C
  H101     1.0000 0.14340  0.51240  0.48770  Biso   1.000  H
  H102     1.0000 0.35660  0.01240  0.01230  Biso   1.000  H
  H103     1.0000 0.85660  0.48760  0.51230  Biso   1.000  H
  H104     1.0000 0.64340  0.98760  0.98770  Biso   1.000  H
  H105     1.0000 0.10620  0.61370  0.53100  Biso   1.000  H
  H106     1.0000 0.39380  0.11370  0.96900  Biso   1.000  H
  H107     1.0000 0.89380  0.38630  0.46900  Biso   1.000  H
  H108     1.0000 0.60620  0.88630  0.03100  Biso   1.000  H
  H109     1.0000 0.04290  0.59250  0.47160  Biso   1.000  H
  H110     1.0000 0.45710  0.09250  0.02840  Biso   1.000  H
  H111     1.0000 0.95710  0.40750  0.52840  Biso   1.000  H
  H112     1.0000 0.54290  0.90750  0.97160  Biso   1.000  H
  Cu1      1.0000 0.21826  0.09995  0.49536  Biso   1.000  Cu
  Cu2      1.0000 0.28174  0.59995  0.00464  Biso   1.000  Cu
  Cu3      1.0000 0.78174  0.90005  0.50464  Biso   1.000  Cu
  Cu4      1.0000 0.71826  0.40005  0.99536  Biso   1.000  Cu
  Cu5      1.0000 0.23037  0.95038  0.40464  Biso   1.000  Cu
  Cu6      1.0000 0.26963  0.45038  0.09536  Biso   1.000  Cu
  Cu7      1.0000 0.76963  0.04962  0.59536  Biso   1.000  Cu
  Cu8      1.0000 0.73037  0.54962  0.90464  Biso   1.000  Cu
  N1       1.0000 0.75647  0.67170  0.83089  Biso   1.000  N
  N2       1.0000 0.74353  0.17170  0.66911  Biso   1.000  N
  N3       1.0000 0.24353  0.32830  0.16911  Biso   1.000  N
  N4       1.0000 0.25647  0.82830  0.33089  Biso   1.000  N
  N5       1.0000 0.19810  0.20640  0.57323  Biso   1.000  N
  N6       1.0000 0.30190  0.70640  0.92677  Biso   1.000  N
  N7       1.0000 0.80190  0.79360  0.42677  Biso   1.000  N
  N8       1.0000 0.69810  0.29360  0.07323  Biso   1.000  N
  O1       1.0000 0.53516  0.86310  0.75856  Biso   1.000  O
  O2       1.0000 0.96484  0.36310  0.74144  Biso   1.000  O
  O3       1.0000 0.46484  0.13690  0.24144  Biso   1.000  O
  O4       1.0000 0.03516  0.63690  0.25856  Biso   1.000  O
  O5       1.0000 0.42161  0.38710  0.64838  Biso   1.000  O
  O6       1.0000 0.07839  0.88710  0.85162  Biso   1.000  O
  O7       1.0000 0.57839  0.61290  0.35162  Biso   1.000  O
  O8       1.0000 0.92161  0.11290  0.14838  Biso   1.000  O
  O9       1.0000 0.11060  0.06910  0.37213  Biso   1.000  O
  O10      1.0000 0.38940  0.56910  0.12787  Biso   1.000  O
  O11      1.0000 0.88940  0.93090  0.62787  Biso   1.000  O
  O12      1.0000 0.61060  0.43090  0.87213  Biso   1.000  O
  O13      1.0000 0.09378  0.17500  0.45117  Biso   1.000  O
  O14      1.0000 0.40622  0.67500  0.04883  Biso   1.000  O
  O15      1.0000 0.90622  0.82500  0.54883  Biso   1.000  O
  O16      1.0000 0.59378  0.32500  0.95117  Biso   1.000  O
  O17      1.0000 0.29578  0.15830  0.39405  Biso   1.000  O
  O18      1.0000 0.20422  0.65830  0.10595  Biso   1.000  O
  O19      1.0000 0.70422  0.84170  0.60595  Biso   1.000  O
  O20      1.0000 0.79578  0.34170  0.89405  Biso   1.000  O
  O21      1.0000 0.27476  0.29300  0.46737  Biso   1.000  O
  O22      1.0000 0.22524  0.79300  0.03263  Biso   1.000  O
  O23      1.0000 0.72524  0.70700  0.53263  Biso   1.000  O
  O24      1.0000 0.77476  0.20700  0.96737  Biso   1.000  O
  O25      1.0000 0.34735  0.85710  0.45118  Biso   1.000  O
  O26      1.0000 0.15265  0.35710  0.04882  Biso   1.000  O
  O27      1.0000 0.65265  0.14290  0.54882  Biso   1.000  O
  O28      1.0000 0.84735  0.64290  0.95118  Biso   1.000  O
  O29      1.0000 0.34331  0.00200  0.52583  Biso   1.000  O
  O30      1.0000 0.15669  0.50200  0.97417  Biso   1.000  O
  O31      1.0000 0.65669  0.99800  0.47417  Biso   1.000  O
  O32      1.0000 0.84331  0.49800  0.02583  Biso   1.000  O
  O33      1.0000 0.16097  0.76830  0.42932  Biso   1.000  O
  O34      1.0000 0.33903  0.26830  0.07068  Biso   1.000  O
  O35      1.0000 0.83903  0.23170  0.57068  Biso   1.000  O
  O36      1.0000 0.66097  0.73170  0.92932  Biso   1.000  O
  O37      1.0000 0.16409  0.88350  0.50998  Biso   1.000  O
  O38      1.0000 0.33591  0.38350  0.99002  Biso   1.000  O
  O39      1.0000 0.83591  0.11650  0.49002  Biso   1.000  O
  O40      1.0000 0.66409  0.61650  0.00998  Biso   1.000  O
