data_image0
_cell_length_a       10.098
_cell_length_b       17.66
_cell_length_c       11.824
_cell_angle_alpha    90
_cell_angle_beta     102.86
_cell_angle_gamma    90

_symmetry_space_group_name_H-M    "P 1"
_symmetry_int_tables_number       1

loop_
  _symmetry_equiv_pos_as_xyz
  'x, y, z'

loop_
  _atom_site_label
  _atom_site_occupancy
  _atom_site_fract_x
  _atom_site_fract_y
  _atom_site_fract_z
  _atom_site_thermal_displace_type
  _atom_site_B_iso_or_equiv
  _atom_site_type_symbol
  C1       1.0000 0.18250  0.96900  0.39070  Biso   1.000  C
  C2       1.0000 0.31750  0.46900  0.10930  Biso   1.000  C
  C3       1.0000 0.81750  0.03100  0.60930  Biso   1.000  C
  C4       1.0000 0.68250  0.53100  0.89070  Biso   1.000  C
  H1       1.0000 0.18640  0.00440  0.33330  Biso   1.000  H
  H2       1.0000 0.31360  0.50440  0.16670  Biso   1.000  H
  H3       1.0000 0.81360  0.99560  0.66670  Biso   1.000  H
  H4       1.0000 0.68640  0.49560  0.83330  Biso   1.000  H
  C5       1.0000 0.16560  0.99380  0.49520  Biso   1.000  C
  C6       1.0000 0.33440  0.49380  0.00480  Biso   1.000  C
  C7       1.0000 0.83440  0.00620  0.50480  Biso   1.000  C
  C8       1.0000 0.66560  0.50620  0.99520  Biso   1.000  C
  H5       1.0000 0.16450  0.04540  0.51070  Biso   1.000  H
  H6       1.0000 0.33550  0.54540  0.98930  Biso   1.000  H
  H7       1.0000 0.83550  0.95460  0.48930  Biso   1.000  H
  H8       1.0000 0.66450  0.45460  0.01070  Biso   1.000  H
  C9       1.0000 0.15000  0.94200  0.57780  Biso   1.000  C
  C10      1.0000 0.35000  0.44200  0.92220  Biso   1.000  C
  C11      1.0000 0.85000  0.05800  0.42220  Biso   1.000  C
  C12      1.0000 0.65000  0.55800  0.07780  Biso   1.000  C
  H9       1.0000 0.13810  0.95800  0.64990  Biso   1.000  H
  H10      1.0000 0.36190  0.45800  0.85010  Biso   1.000  H
  H11      1.0000 0.86190  0.04200  0.35010  Biso   1.000  H
  H12      1.0000 0.63810  0.54200  0.14990  Biso   1.000  H
  C13      1.0000 0.15210  0.86710  0.55290  Biso   1.000  C
  C14      1.0000 0.34790  0.36710  0.94710  Biso   1.000  C
  C15      1.0000 0.84790  0.13290  0.44710  Biso   1.000  C
  C16      1.0000 0.65210  0.63290  0.05290  Biso   1.000  C
  H13      1.0000 0.13750  0.83130  0.60660  Biso   1.000  H
  H14      1.0000 0.36250  0.33130  0.89340  Biso   1.000  H
  H15      1.0000 0.86250  0.16870  0.39340  Biso   1.000  H
  H16      1.0000 0.63750  0.66870  0.10660  Biso   1.000  H
  C17      1.0000 0.17590  0.84410  0.44790  Biso   1.000  C
  C18      1.0000 0.32410  0.34410  0.05210  Biso   1.000  C
  C19      1.0000 0.82410  0.15590  0.55210  Biso   1.000  C
  C20      1.0000 0.67590  0.65590  0.94790  Biso   1.000  C
  C21      1.0000 0.18930  0.76240  0.42360  Biso   1.000  C
  C22      1.0000 0.31070  0.26240  0.07640  Biso   1.000  C
  C23      1.0000 0.81070  0.23760  0.57640  Biso   1.000  C
  C24      1.0000 0.68930  0.73760  0.92360  Biso   1.000  C
  H17      1.0000 0.28130  0.74550  0.45630  Biso   1.000  H
  H18      1.0000 0.21870  0.24550  0.04370  Biso   1.000  H
  H19      1.0000 0.71870  0.25450  0.54370  Biso   1.000  H
  H20      1.0000 0.78130  0.75450  0.95630  Biso   1.000  H
  H21      1.0000 0.12760  0.73310  0.45840  Biso   1.000  H
  H22      1.0000 0.37240  0.23310  0.04160  Biso   1.000  H
  H23      1.0000 0.87240  0.26690  0.54160  Biso   1.000  H
  H24      1.0000 0.62760  0.76690  0.95840  Biso   1.000  H
  C25      1.0000 0.12410  0.67940  0.25890  Biso   1.000  C
  C26      1.0000 0.37590  0.17940  0.24110  Biso   1.000  C
  C27      1.0000 0.87590  0.32060  0.74110  Biso   1.000  C
  C28      1.0000 0.62410  0.82060  0.75890  Biso   1.000  C
  C29      1.0000 0.15830  0.61570  0.32830  Biso   1.000  C
  C30      1.0000 0.34170  0.11570  0.17170  Biso   1.000  C
  C31      1.0000 0.84170  0.38430  0.67170  Biso   1.000  C
  C32      1.0000 0.65830  0.88430  0.82830  Biso   1.000  C
  H25      1.0000 0.20760  0.61970  0.40450  Biso   1.000  H
  H26      1.0000 0.29240  0.11970  0.09550  Biso   1.000  H
  H27      1.0000 0.79240  0.38030  0.59550  Biso   1.000  H
  H28      1.0000 0.70760  0.88030  0.90450  Biso   1.000  H
  C33      1.0000 0.11570  0.54580  0.27960  Biso   1.000  C
  C34      1.0000 0.38430  0.04580  0.22040  Biso   1.000  C
  C35      1.0000 0.88430  0.45420  0.72040  Biso   1.000  C
  C36      1.0000 0.61570  0.95420  0.77960  Biso   1.000  C
  C37      1.0000 0.03960  0.53980  0.16570  Biso   1.000  C
  C38      1.0000 0.46040  0.03980  0.33430  Biso   1.000  C
  C39      1.0000 0.96040  0.46020  0.83430  Biso   1.000  C
  C40      1.0000 0.53960  0.96020  0.66570  Biso   1.000  C
  H29      1.0000 0.00860  0.49290  0.13530  Biso   1.000  H
  H30      1.0000 0.49140  0.99290  0.36470  Biso   1.000  H
  H31      1.0000 0.99140  0.50710  0.86470  Biso   1.000  H
  H32      1.0000 0.50860  0.00710  0.63530  Biso   1.000  H
  C41      1.0000 0.01120  0.60430  0.09910  Biso   1.000  C
  C42      1.0000 0.48880  0.10430  0.40090  Biso   1.000  C
  C43      1.0000 0.98880  0.39570  0.90090  Biso   1.000  C
  C44      1.0000 0.51120  0.89570  0.59910  Biso   1.000  C
  H33      1.0000 0.96380  0.60050  0.02230  Biso   1.000  H
  H34      1.0000 0.53620  0.10050  0.47770  Biso   1.000  H
  H35      1.0000 0.03620  0.39950  0.97770  Biso   1.000  H
  H36      1.0000 0.46380  0.89950  0.52230  Biso   1.000  H
  C45      1.0000 0.05220  0.67420  0.14480  Biso   1.000  C
  C46      1.0000 0.44780  0.17420  0.35520  Biso   1.000  C
  C47      1.0000 0.94780  0.32580  0.85520  Biso   1.000  C
  C48      1.0000 0.55220  0.82580  0.64480  Biso   1.000  C
  H37      1.0000 0.03180  0.71750  0.09970  Biso   1.000  H
  H38      1.0000 0.46820  0.21750  0.40030  Biso   1.000  H
  H39      1.0000 0.96820  0.28250  0.90030  Biso   1.000  H
  H40      1.0000 0.53180  0.78250  0.59970  Biso   1.000  H
  C49      1.0000 0.20200  0.48030  0.45940  Biso   1.000  C
  C50      1.0000 0.29800  0.98030  0.04060  Biso   1.000  C
  C51      1.0000 0.79800  0.51970  0.54060  Biso   1.000  C
  C52      1.0000 0.70200  0.01970  0.95940  Biso   1.000  C
  H41      1.0000 0.14960  0.51450  0.49650  Biso   1.000  H
  H42      1.0000 0.35040  0.01450  0.00350  Biso   1.000  H
  H43      1.0000 0.85040  0.48550  0.50350  Biso   1.000  H
  H44      1.0000 0.64960  0.98550  0.99650  Biso   1.000  H
  H45      1.0000 0.29550  0.49760  0.47590  Biso   1.000  H
  H46      1.0000 0.20450  0.99760  0.02410  Biso   1.000  H
  H47      1.0000 0.70450  0.50240  0.52410  Biso   1.000  H
  H48      1.0000 0.79550  0.00240  0.97590  Biso   1.000  H
  C53      1.0000 0.19420  0.40150  0.50350  Biso   1.000  C
  C54      1.0000 0.30580  0.90150  0.99650  Biso   1.000  C
  C55      1.0000 0.80580  0.59850  0.49650  Biso   1.000  C
  C56      1.0000 0.69420  0.09850  0.00350  Biso   1.000  C
  C57      1.0000 0.17590  0.38600  0.61310  Biso   1.000  C
  C58      1.0000 0.32410  0.88600  0.88690  Biso   1.000  C
  C59      1.0000 0.82410  0.61400  0.38690  Biso   1.000  C
  C60      1.0000 0.67590  0.11400  0.11310  Biso   1.000  C
  H49      1.0000 0.16720  0.42570  0.66270  Biso   1.000  H
  H50      1.0000 0.33280  0.92570  0.83730  Biso   1.000  H
  H51      1.0000 0.83280  0.57430  0.33730  Biso   1.000  H
  H52      1.0000 0.66720  0.07430  0.16270  Biso   1.000  H
  C61      1.0000 0.17050  0.31340  0.64970  Biso   1.000  C
  C62      1.0000 0.32950  0.81340  0.85030  Biso   1.000  C
  C63      1.0000 0.82950  0.68660  0.35030  Biso   1.000  C
  C64      1.0000 0.67050  0.18660  0.14970  Biso   1.000  C
  H53      1.0000 0.16060  0.30340  0.72460  Biso   1.000  H
  H54      1.0000 0.33940  0.80340  0.77540  Biso   1.000  H
  H55      1.0000 0.83940  0.69660  0.27540  Biso   1.000  H
  H56      1.0000 0.66060  0.19660  0.22460  Biso   1.000  H
  C65      1.0000 0.17980  0.25510  0.57600  Biso   1.000  C
  C66      1.0000 0.32020  0.75510  0.92400  Biso   1.000  C
  C67      1.0000 0.82020  0.74490  0.42400  Biso   1.000  C
  C68      1.0000 0.67980  0.24490  0.07600  Biso   1.000  C
  H57      1.0000 0.17330  0.20510  0.59870  Biso   1.000  H
  H58      1.0000 0.32670  0.70510  0.90130  Biso   1.000  H
  H59      1.0000 0.82670  0.79490  0.40130  Biso   1.000  H
  H60      1.0000 0.67330  0.29490  0.09870  Biso   1.000  H
  C69      1.0000 0.19890  0.27210  0.46750  Biso   1.000  C
  C70      1.0000 0.30110  0.77210  0.03250  Biso   1.000  C
  C71      1.0000 0.80110  0.72790  0.53250  Biso   1.000  C
  C72      1.0000 0.69890  0.22790  0.96750  Biso   1.000  C
  H61      1.0000 0.20490  0.23270  0.41660  Biso   1.000  H
  H62      1.0000 0.29510  0.73270  0.08340  Biso   1.000  H
  H63      1.0000 0.79510  0.76730  0.58340  Biso   1.000  H
  H64      1.0000 0.70490  0.26730  0.91660  Biso   1.000  H
  Cu1      1.0000 0.24210  0.86414  0.21907  Biso   1.000  Cu
  Cu2      1.0000 0.25790  0.36414  0.28093  Biso   1.000  Cu
  Cu3      1.0000 0.75790  0.13586  0.78093  Biso   1.000  Cu
  Cu4      1.0000 0.74210  0.63586  0.71907  Biso   1.000  Cu
  N1       1.0000 0.19400  0.89500  0.36680  Biso   1.000  N
  N2       1.0000 0.30600  0.39500  0.13320  Biso   1.000  N
  N3       1.0000 0.80600  0.10500  0.63320  Biso   1.000  N
  N4       1.0000 0.69400  0.60500  0.86680  Biso   1.000  N
  N5       1.0000 0.20930  0.34320  0.43250  Biso   1.000  N
  N6       1.0000 0.29070  0.84320  0.06750  Biso   1.000  N
  N7       1.0000 0.79070  0.65680  0.56750  Biso   1.000  N
  N8       1.0000 0.70930  0.15680  0.93250  Biso   1.000  N
  N9       1.0000 0.02450  0.13890  0.16220  Biso   1.000  N
  N10      1.0000 0.47550  0.63890  0.33780  Biso   1.000  N
  N11      1.0000 0.97550  0.86110  0.83780  Biso   1.000  N
  N12      1.0000 0.52450  0.36110  0.66220  Biso   1.000  N
  O1       1.0000 0.15750  0.75180  0.29980  Biso   1.000  O
  O2       1.0000 0.34250  0.25180  0.20020  Biso   1.000  O
  O3       1.0000 0.84250  0.24820  0.70020  Biso   1.000  O
  O4       1.0000 0.65750  0.74820  0.79980  Biso   1.000  O
  O5       1.0000 0.14780  0.47870  0.33700  Biso   1.000  O
  O6       1.0000 0.35220  0.97870  0.16300  Biso   1.000  O
  O7       1.0000 0.85220  0.52130  0.66300  Biso   1.000  O
  O8       1.0000 0.64780  0.02130  0.83700  Biso   1.000  O
  O9       1.0000 0.42680  0.83240  0.30290  Biso   1.000  O
  O10      1.0000 0.07320  0.33240  0.19710  Biso   1.000  O
  O11      1.0000 0.57320  0.16760  0.69710  Biso   1.000  O
  O12      1.0000 0.92680  0.66760  0.80290  Biso   1.000  O
  H65      1.0000 0.46580  0.79190  0.33130  Biso   1.000  H
  H66      1.0000 0.03420  0.29190  0.16870  Biso   1.000  H
  H67      1.0000 0.53420  0.20810  0.66870  Biso   1.000  H
  H68      1.0000 0.96580  0.70810  0.83130  Biso   1.000  H
  H69      1.0000 0.48760  0.86630  0.30750  Biso   1.000  H
  H70      1.0000 0.01240  0.36630  0.19250  Biso   1.000  H
  H71      1.0000 0.51240  0.13370  0.69250  Biso   1.000  H
  H72      1.0000 0.98760  0.63370  0.80750  Biso   1.000  H
  O13      1.0000 0.06000  0.89250  0.13290  Biso   1.000  O
  O14      1.0000 0.44000  0.39250  0.36710  Biso   1.000  O
  O15      1.0000 0.94000  0.10750  0.86710  Biso   1.000  O
  O16      1.0000 0.56000  0.60750  0.63290  Biso   1.000  O
  H73      1.0000 0.03800  0.87940  0.06190  Biso   1.000  H
  H74      1.0000 0.46200  0.37940  0.43810  Biso   1.000  H
  H75      1.0000 0.96200  0.12060  0.93810  Biso   1.000  H
  H76      1.0000 0.53800  0.62060  0.56190  Biso   1.000  H
  H77      1.0000 0.99050  0.89200  0.16210  Biso   1.000  H
  H78      1.0000 0.50950  0.39200  0.33790  Biso   1.000  H
  H79      1.0000 0.00950  0.10800  0.83790  Biso   1.000  H
  H80      1.0000 0.49050  0.60800  0.66210  Biso   1.000  H
  O17      1.0000 0.01830  0.18970  0.08880  Biso   1.000  O
  O18      1.0000 0.48170  0.68970  0.41120  Biso   1.000  O
  O19      1.0000 0.98170  0.81030  0.91120  Biso   1.000  O
  O20      1.0000 0.51830  0.31030  0.58880  Biso   1.000  O
  O21      1.0000 0.04760  0.15350  0.26360  Biso   1.000  O
  O22      1.0000 0.45240  0.65350  0.23640  Biso   1.000  O
  O23      1.0000 0.95240  0.84650  0.73640  Biso   1.000  O
  O24      1.0000 0.54760  0.34650  0.76360  Biso   1.000  O
  O25      1.0000 0.00880  0.07460  0.12600  Biso   1.000  O
  O26      1.0000 0.49120  0.57460  0.37400  Biso   1.000  O
  O27      1.0000 0.99120  0.92540  0.87400  Biso   1.000  O
  O28      1.0000 0.50880  0.42540  0.62600  Biso   1.000  O
  N13      1.0000 0.27010  0.12260  0.80330  Biso   1.000  N
  N14      1.0000 0.22990  0.62260  0.69670  Biso   1.000  N
  N15      1.0000 0.72990  0.87740  0.19670  Biso   1.000  N
  N16      1.0000 0.77010  0.37740  0.30330  Biso   1.000  N
  O29      1.0000 0.33920  0.09510  0.74430  Biso   1.000  O
  O30      1.0000 0.16080  0.59510  0.75570  Biso   1.000  O
  O31      1.0000 0.66080  0.90490  0.25570  Biso   1.000  O
  O32      1.0000 0.83920  0.40490  0.24430  Biso   1.000  O
  O33      1.0000 0.15550  0.09050  0.76240  Biso   1.000  O
  O34      1.0000 0.34450  0.59050  0.73760  Biso   1.000  O
  O35      1.0000 0.84450  0.90950  0.23760  Biso   1.000  O
  O36      1.0000 0.65550  0.40950  0.26240  Biso   1.000  O
  O37      1.0000 0.37200  0.16130  0.84510  Biso   1.000  O
  O38      1.0000 0.12800  0.66130  0.65490  Biso   1.000  O
  O39      1.0000 0.62800  0.83870  0.15490  Biso   1.000  O
  O40      1.0000 0.87200  0.33870  0.34510  Biso   1.000  O
  O41      1.0000 0.22200  0.15930  0.86060  Biso   1.000  O
  O42      1.0000 0.27800  0.65930  0.63940  Biso   1.000  O
  O43      1.0000 0.77800  0.84070  0.13940  Biso   1.000  O
  O44      1.0000 0.72200  0.34070  0.36060  Biso   1.000  O
