data_image0
_cell_length_a       13.844
_cell_length_b       6.418
_cell_length_c       17.48
_cell_angle_alpha    90
_cell_angle_beta     90
_cell_angle_gamma    90

_symmetry_space_group_name_H-M    "P 1"
_symmetry_int_tables_number       1

loop_
  _symmetry_equiv_pos_as_xyz
  'x, y, z'

loop_
  _atom_site_label
  _atom_site_occupancy
  _atom_site_fract_x
  _atom_site_fract_y
  _atom_site_fract_z
  _atom_site_thermal_displace_type
  _atom_site_B_iso_or_equiv
  _atom_site_type_symbol
  Cu1      1.0000 0.25020  0.23790  0.05700  Biso   1.000  Cu
  Cu2      1.0000 0.24980  0.76210  0.55700  Biso   1.000  Cu
  Cu3      1.0000 0.75020  0.26210  0.94300  Biso   1.000  Cu
  Cu4      1.0000 0.74980  0.73790  0.44300  Biso   1.000  Cu
  Cu5      1.0000 0.74980  0.76210  0.94300  Biso   1.000  Cu
  Cu6      1.0000 0.75020  0.23790  0.44300  Biso   1.000  Cu
  Cu7      1.0000 0.24980  0.73790  0.05700  Biso   1.000  Cu
  Cu8      1.0000 0.25020  0.26210  0.55700  Biso   1.000  Cu
  Cl1      1.0000 0.12720  0.48350  0.05440  Biso   1.000  Cl
  Cl2      1.0000 0.37280  0.51650  0.55440  Biso   1.000  Cl
  Cl3      1.0000 0.62720  0.01650  0.94560  Biso   1.000  Cl
  Cl4      1.0000 0.87280  0.98350  0.44560  Biso   1.000  Cl
  Cl5      1.0000 0.87280  0.51650  0.94560  Biso   1.000  Cl
  Cl6      1.0000 0.62720  0.48350  0.44560  Biso   1.000  Cl
  Cl7      1.0000 0.37280  0.98350  0.05440  Biso   1.000  Cl
  Cl8      1.0000 0.12720  0.01650  0.55440  Biso   1.000  Cl
  Cl9      1.0000 0.33580  0.43940  0.13800  Biso   1.000  Cl
  Cl10     1.0000 0.16420  0.56060  0.63800  Biso   1.000  Cl
  Cl11     1.0000 0.83580  0.06060  0.86200  Biso   1.000  Cl
  Cl12     1.0000 0.66420  0.93940  0.36200  Biso   1.000  Cl
  Cl13     1.0000 0.66420  0.56060  0.86200  Biso   1.000  Cl
  Cl14     1.0000 0.83580  0.43940  0.36200  Biso   1.000  Cl
  Cl15     1.0000 0.16420  0.93940  0.13800  Biso   1.000  Cl
  Cl16     1.0000 0.33580  0.06060  0.63800  Biso   1.000  Cl
  S1       1.0000 0.09560  0.10370  0.93800  Biso   1.000  S
  S2       1.0000 0.40440  0.89630  0.43800  Biso   1.000  S
  S3       1.0000 0.59560  0.39630  0.06200  Biso   1.000  S
  S4       1.0000 0.90440  0.60370  0.56200  Biso   1.000  S
  S5       1.0000 0.90440  0.89630  0.06200  Biso   1.000  S
  S6       1.0000 0.59560  0.10370  0.56200  Biso   1.000  S
  S7       1.0000 0.40440  0.60370  0.93800  Biso   1.000  S
  S8       1.0000 0.09560  0.39630  0.43800  Biso   1.000  S
  O1       1.0000 0.20340  0.09910  0.96340  Biso   1.000  O
  O2       1.0000 0.29660  0.90090  0.46340  Biso   1.000  O
  O3       1.0000 0.70340  0.40090  0.03660  Biso   1.000  O
  O4       1.0000 0.79660  0.59910  0.53660  Biso   1.000  O
  O5       1.0000 0.79660  0.90090  0.03660  Biso   1.000  O
  O6       1.0000 0.70340  0.09910  0.53660  Biso   1.000  O
  O7       1.0000 0.29660  0.59910  0.96340  Biso   1.000  O
  O8       1.0000 0.20340  0.40090  0.46340  Biso   1.000  O
  C1       1.0000 0.11050  0.93760  0.79750  Biso   1.000  C
  C2       1.0000 0.38950  0.06240  0.29750  Biso   1.000  C
  C3       1.0000 0.61050  0.56240  0.20250  Biso   1.000  C
  C4       1.0000 0.88950  0.43760  0.70250  Biso   1.000  C
  C5       1.0000 0.88950  0.06240  0.20250  Biso   1.000  C
  C6       1.0000 0.61050  0.93760  0.70250  Biso   1.000  C
  C7       1.0000 0.38950  0.43760  0.79750  Biso   1.000  C
  C8       1.0000 0.11050  0.56240  0.29750  Biso   1.000  C
  C9       1.0000 0.08820  0.87300  0.87910  Biso   1.000  C
  C10      1.0000 0.41180  0.12700  0.37910  Biso   1.000  C
  C11      1.0000 0.58820  0.62700  0.12090  Biso   1.000  C
  C12      1.0000 0.91180  0.37300  0.62090  Biso   1.000  C
  C13      1.0000 0.91180  0.12700  0.12090  Biso   1.000  C
  C14      1.0000 0.58820  0.87300  0.62090  Biso   1.000  C
  C15      1.0000 0.41180  0.37300  0.87910  Biso   1.000  C
  C16      1.0000 0.08820  0.62700  0.37910  Biso   1.000  C
  C17      1.0000 0.12530  0.13880  0.78820  Biso   1.000  C
  C18      1.0000 0.37470  0.86120  0.28820  Biso   1.000  C
  C19      1.0000 0.62530  0.36120  0.21180  Biso   1.000  C
  C20      1.0000 0.87470  0.63880  0.71180  Biso   1.000  C
  C21      1.0000 0.87470  0.86120  0.21180  Biso   1.000  C
  C22      1.0000 0.62530  0.13880  0.71180  Biso   1.000  C
  C23      1.0000 0.37470  0.63880  0.78820  Biso   1.000  C
  C24      1.0000 0.12530  0.36120  0.28820  Biso   1.000  C
  C25      1.0000 0.09760  0.27570  0.85600  Biso   1.000  C
  C26      1.0000 0.40240  0.72430  0.35600  Biso   1.000  C
  C27      1.0000 0.59760  0.22430  0.14400  Biso   1.000  C
  C28      1.0000 0.90240  0.77570  0.64400  Biso   1.000  C
  C29      1.0000 0.90240  0.72430  0.14400  Biso   1.000  C
  C30      1.0000 0.59760  0.27570  0.64400  Biso   1.000  C
  C31      1.0000 0.40240  0.77570  0.85600  Biso   1.000  C
  C32      1.0000 0.09760  0.22430  0.35600  Biso   1.000  C
