data_image0
_cell_length_a       11.5314
_cell_length_b       18.388
_cell_length_c       18.403
_cell_angle_alpha    90
_cell_angle_beta     104.1
_cell_angle_gamma    90

_symmetry_space_group_name_H-M    "P 1"
_symmetry_int_tables_number       1

loop_
  _symmetry_equiv_pos_as_xyz
  'x, y, z'

loop_
  _atom_site_label
  _atom_site_occupancy
  _atom_site_fract_x
  _atom_site_fract_y
  _atom_site_fract_z
  _atom_site_thermal_displace_type
  _atom_site_B_iso_or_equiv
  _atom_site_type_symbol
  Cu1      1.0000 0.25000  0.25000  0.50000  Biso   1.000  Cu
  Cu2      1.0000 0.75000  0.25000  0.00000  Biso   1.000  Cu
  Cu3      1.0000 0.75000  0.75000  0.50000  Biso   1.000  Cu
  Cu4      1.0000 0.25000  0.75000  0.00000  Biso   1.000  Cu
  O1       1.0000 0.24262  0.35019  0.52806  Biso   1.000  O
  O2       1.0000 0.75738  0.35019  0.97194  Biso   1.000  O
  O3       1.0000 0.74262  0.85019  0.52806  Biso   1.000  O
  O4       1.0000 0.25738  0.85019  0.97194  Biso   1.000  O
  O5       1.0000 0.75738  0.64981  0.47194  Biso   1.000  O
  O6       1.0000 0.24262  0.64981  0.02806  Biso   1.000  O
  O7       1.0000 0.25738  0.14981  0.47194  Biso   1.000  O
  O8       1.0000 0.74262  0.14981  0.02806  Biso   1.000  O
  O9       1.0000 0.40779  0.24202  0.56638  Biso   1.000  O
  O10      1.0000 0.59221  0.24202  0.93362  Biso   1.000  O
  O11      1.0000 0.90779  0.74202  0.56638  Biso   1.000  O
  O12      1.0000 0.09221  0.74202  0.93362  Biso   1.000  O
  O13      1.0000 0.59221  0.75798  0.43362  Biso   1.000  O
  O14      1.0000 0.40779  0.75798  0.06638  Biso   1.000  O
  O15      1.0000 0.09221  0.25798  0.43362  Biso   1.000  O
  O16      1.0000 0.90779  0.25798  0.06638  Biso   1.000  O
  N1       1.0000 0.13732  0.21337  0.59633  Biso   1.000  N
  N2       1.0000 0.86268  0.21337  0.90367  Biso   1.000  N
  N3       1.0000 0.63732  0.71337  0.59633  Biso   1.000  N
  N4       1.0000 0.36268  0.71337  0.90367  Biso   1.000  N
  N5       1.0000 0.86268  0.78663  0.40367  Biso   1.000  N
  N6       1.0000 0.13732  0.78663  0.09633  Biso   1.000  N
  N7       1.0000 0.36268  0.28663  0.40367  Biso   1.000  N
  N8       1.0000 0.63732  0.28663  0.09633  Biso   1.000  N
  N9       1.0000 0.60115  0.46257  0.65597  Biso   1.000  N
  N10      1.0000 0.39885  0.46257  0.84403  Biso   1.000  N
  N11      1.0000 0.10115  0.96257  0.65597  Biso   1.000  N
  N12      1.0000 0.89885  0.96257  0.84403  Biso   1.000  N
  N13      1.0000 0.39885  0.53743  0.34403  Biso   1.000  N
  N14      1.0000 0.60115  0.53743  0.15597  Biso   1.000  N
  N15      1.0000 0.89885  0.03743  0.34403  Biso   1.000  N
  N16      1.0000 0.10115  0.03743  0.15597  Biso   1.000  N
  C1       1.0000 0.14850  0.47649  0.53781  Biso   1.000  C
  C2       1.0000 0.85150  0.47649  0.96219  Biso   1.000  C
  C3       1.0000 0.64850  0.97649  0.53781  Biso   1.000  C
  C4       1.0000 0.35150  0.97649  0.96219  Biso   1.000  C
  C5       1.0000 0.85150  0.52351  0.46219  Biso   1.000  C
  C6       1.0000 0.14850  0.52351  0.03781  Biso   1.000  C
  C7       1.0000 0.35150  0.02351  0.46219  Biso   1.000  C
  C8       1.0000 0.64850  0.02351  0.03781  Biso   1.000  C
  H1       1.0000 0.10450  0.44220  0.56180  Biso   1.000  H
  H2       1.0000 0.89550  0.44220  0.93820  Biso   1.000  H
  H3       1.0000 0.60450  0.94220  0.56180  Biso   1.000  H
  H4       1.0000 0.39550  0.94220  0.93820  Biso   1.000  H
  H5       1.0000 0.89550  0.55780  0.43820  Biso   1.000  H
  H6       1.0000 0.10450  0.55780  0.06180  Biso   1.000  H
  H7       1.0000 0.39550  0.05780  0.43820  Biso   1.000  H
  H8       1.0000 0.60450  0.05780  0.06180  Biso   1.000  H
  H9       1.0000 0.12200  0.52620  0.54440  Biso   1.000  H
  H10      1.0000 0.87800  0.52620  0.95560  Biso   1.000  H
  H11      1.0000 0.62200  0.02620  0.54440  Biso   1.000  H
  H12      1.0000 0.37800  0.02620  0.95560  Biso   1.000  H
  H13      1.0000 0.87800  0.47380  0.45560  Biso   1.000  H
  H14      1.0000 0.12200  0.47380  0.04440  Biso   1.000  H
  H15      1.0000 0.37800  0.97380  0.45560  Biso   1.000  H
  H16      1.0000 0.62200  0.97380  0.04440  Biso   1.000  H
  H17      1.0000 0.13330  0.46540  0.48420  Biso   1.000  H
  H18      1.0000 0.86670  0.46540  0.01580  Biso   1.000  H
  H19      1.0000 0.63330  0.96540  0.48420  Biso   1.000  H
  H20      1.0000 0.36670  0.96540  0.01580  Biso   1.000  H
  H21      1.0000 0.86670  0.53460  0.51580  Biso   1.000  H
  H22      1.0000 0.13330  0.53460  0.98420  Biso   1.000  H
  H23      1.0000 0.36670  0.03460  0.51580  Biso   1.000  H
  H24      1.0000 0.63330  0.03460  0.98420  Biso   1.000  H
  C9       1.0000 0.28289  0.46983  0.57390  Biso   1.000  C
  C10      1.0000 0.71711  0.46983  0.92610  Biso   1.000  C
  C11      1.0000 0.78289  0.96983  0.57390  Biso   1.000  C
  C12      1.0000 0.21711  0.96983  0.92610  Biso   1.000  C
  C13      1.0000 0.71711  0.53017  0.42610  Biso   1.000  C
  C14      1.0000 0.28289  0.53017  0.07390  Biso   1.000  C
  C15      1.0000 0.21711  0.03017  0.42610  Biso   1.000  C
  C16      1.0000 0.78289  0.03017  0.07390  Biso   1.000  C
  C17      1.0000 0.32338  0.39136  0.56412  Biso   1.000  C
  C18      1.0000 0.67662  0.39136  0.93588  Biso   1.000  C
  C19      1.0000 0.82338  0.89136  0.56412  Biso   1.000  C
  C20      1.0000 0.17662  0.89136  0.93588  Biso   1.000  C
  C21      1.0000 0.67662  0.60864  0.43588  Biso   1.000  C
  C22      1.0000 0.32338  0.60864  0.06412  Biso   1.000  C
  C23      1.0000 0.17662  0.10864  0.43588  Biso   1.000  C
  C24      1.0000 0.82338  0.10864  0.06412  Biso   1.000  C
  C25      1.0000 0.44401  0.36701  0.59429  Biso   1.000  C
  C26      1.0000 0.55599  0.36701  0.90571  Biso   1.000  C
  C27      1.0000 0.94401  0.86701  0.59429  Biso   1.000  C
  C28      1.0000 0.05599  0.86701  0.90571  Biso   1.000  C
  C29      1.0000 0.55599  0.63299  0.40571  Biso   1.000  C
  C30      1.0000 0.44401  0.63299  0.09429  Biso   1.000  C
  C31      1.0000 0.05599  0.13299  0.40571  Biso   1.000  C
  C32      1.0000 0.94401  0.13299  0.09429  Biso   1.000  C
  C33      1.0000 0.47933  0.29226  0.59307  Biso   1.000  C
  C34      1.0000 0.52067  0.29226  0.90693  Biso   1.000  C
  C35      1.0000 0.97933  0.79226  0.59307  Biso   1.000  C
  C36      1.0000 0.02067  0.79226  0.90693  Biso   1.000  C
  C37      1.0000 0.52067  0.70774  0.40693  Biso   1.000  C
  C38      1.0000 0.47933  0.70774  0.09307  Biso   1.000  C
  C39      1.0000 0.02067  0.20774  0.40693  Biso   1.000  C
  C40      1.0000 0.97933  0.20774  0.09307  Biso   1.000  C
  C41      1.0000 0.61061  0.26767  0.62482  Biso   1.000  C
  C42      1.0000 0.38939  0.26767  0.87518  Biso   1.000  C
  C43      1.0000 0.11061  0.76767  0.62482  Biso   1.000  C
  C44      1.0000 0.88939  0.76767  0.87518  Biso   1.000  C
  C45      1.0000 0.38939  0.73233  0.37518  Biso   1.000  C
  C46      1.0000 0.61061  0.73233  0.12482  Biso   1.000  C
  C47      1.0000 0.88939  0.23233  0.37518  Biso   1.000  C
  C48      1.0000 0.11061  0.23233  0.12482  Biso   1.000  C
  C49      1.0000 0.62010  0.18591  0.61030  Biso   1.000  C
  C50      1.0000 0.37990  0.18591  0.88970  Biso   1.000  C
  C51      1.0000 0.12010  0.68591  0.61030  Biso   1.000  C
  C52      1.0000 0.87990  0.68591  0.88970  Biso   1.000  C
  C53      1.0000 0.37990  0.81409  0.38970  Biso   1.000  C
  C54      1.0000 0.62010  0.81409  0.11030  Biso   1.000  C
  C55      1.0000 0.87990  0.31409  0.38970  Biso   1.000  C
  C56      1.0000 0.12010  0.31409  0.11030  Biso   1.000  C
  H25      1.0000 0.56880  0.15900  0.63620  Biso   1.000  H
  H26      1.0000 0.43120  0.15900  0.86380  Biso   1.000  H
  H27      1.0000 0.06880  0.65900  0.63620  Biso   1.000  H
  H28      1.0000 0.93120  0.65900  0.86380  Biso   1.000  H
  H29      1.0000 0.43120  0.84100  0.36380  Biso   1.000  H
  H30      1.0000 0.56880  0.84100  0.13620  Biso   1.000  H
  H31      1.0000 0.93120  0.34100  0.36380  Biso   1.000  H
  H32      1.0000 0.06880  0.34100  0.13620  Biso   1.000  H
  H33      1.0000 0.59440  0.17640  0.55640  Biso   1.000  H
  H34      1.0000 0.40560  0.17640  0.94360  Biso   1.000  H
  H35      1.0000 0.09440  0.67640  0.55640  Biso   1.000  H
  H36      1.0000 0.90560  0.67640  0.94360  Biso   1.000  H
  H37      1.0000 0.40560  0.82360  0.44360  Biso   1.000  H
  H38      1.0000 0.59440  0.82360  0.05640  Biso   1.000  H
  H39      1.0000 0.90560  0.32360  0.44360  Biso   1.000  H
  H40      1.0000 0.09440  0.32360  0.05640  Biso   1.000  H
  H41      1.0000 0.70320  0.17020  0.62910  Biso   1.000  H
  H42      1.0000 0.29680  0.17020  0.87090  Biso   1.000  H
  H43      1.0000 0.20320  0.67020  0.62910  Biso   1.000  H
  H44      1.0000 0.79680  0.67020  0.87090  Biso   1.000  H
  H45      1.0000 0.29680  0.82980  0.37090  Biso   1.000  H
  H46      1.0000 0.70320  0.82980  0.12910  Biso   1.000  H
  H47      1.0000 0.79680  0.32980  0.37090  Biso   1.000  H
  H48      1.0000 0.20320  0.32980  0.12910  Biso   1.000  H
  C57      1.0000 0.34830  0.52437  0.53483  Biso   1.000  C
  C58      1.0000 0.65170  0.52437  0.96517  Biso   1.000  C
  C59      1.0000 0.84830  0.02437  0.53483  Biso   1.000  C
  C60      1.0000 0.15170  0.02437  0.96517  Biso   1.000  C
  C61      1.0000 0.65170  0.47563  0.46517  Biso   1.000  C
  C62      1.0000 0.34830  0.47563  0.03483  Biso   1.000  C
  C63      1.0000 0.15170  0.97563  0.46517  Biso   1.000  C
  C64      1.0000 0.84830  0.97563  0.03483  Biso   1.000  C
  H49      1.0000 0.43450  0.52130  0.55690  Biso   1.000  H
  H50      1.0000 0.56550  0.52130  0.94310  Biso   1.000  H
  H51      1.0000 0.93450  0.02130  0.55690  Biso   1.000  H
  H52      1.0000 0.06550  0.02130  0.94310  Biso   1.000  H
  H53      1.0000 0.56550  0.47870  0.44310  Biso   1.000  H
  H54      1.0000 0.43450  0.47870  0.05690  Biso   1.000  H
  H55      1.0000 0.06550  0.97870  0.44310  Biso   1.000  H
  H56      1.0000 0.93450  0.97870  0.05690  Biso   1.000  H
  H57      1.0000 0.33170  0.51300  0.48130  Biso   1.000  H
  H58      1.0000 0.66830  0.51300  0.01870  Biso   1.000  H
  H59      1.0000 0.83170  0.01300  0.48130  Biso   1.000  H
  H60      1.0000 0.16830  0.01300  0.01870  Biso   1.000  H
  H61      1.0000 0.66830  0.48700  0.51870  Biso   1.000  H
  H62      1.0000 0.33170  0.48700  0.98130  Biso   1.000  H
  H63      1.0000 0.16830  0.98700  0.51870  Biso   1.000  H
  H64      1.0000 0.83170  0.98700  0.98130  Biso   1.000  H
  H65      1.0000 0.32040  0.57370  0.54140  Biso   1.000  H
  H66      1.0000 0.67960  0.57370  0.95860  Biso   1.000  H
  H67      1.0000 0.82040  0.07370  0.54140  Biso   1.000  H
  H68      1.0000 0.17960  0.07370  0.95860  Biso   1.000  H
  H69      1.0000 0.67960  0.42630  0.45860  Biso   1.000  H
  H70      1.0000 0.32040  0.42630  0.04140  Biso   1.000  H
  H71      1.0000 0.17960  0.92630  0.45860  Biso   1.000  H
  H72      1.0000 0.82040  0.92630  0.04140  Biso   1.000  H
  C65      1.0000 0.30290  0.48724  0.65787  Biso   1.000  C
  C66      1.0000 0.69710  0.48724  0.84213  Biso   1.000  C
  C67      1.0000 0.80290  0.98724  0.65787  Biso   1.000  C
  C68      1.0000 0.19710  0.98724  0.84213  Biso   1.000  C
  C69      1.0000 0.69710  0.51276  0.34213  Biso   1.000  C
  C70      1.0000 0.30290  0.51276  0.15787  Biso   1.000  C
  C71      1.0000 0.19710  0.01276  0.34213  Biso   1.000  C
  C72      1.0000 0.80290  0.01276  0.15787  Biso   1.000  C
  H73      1.0000 0.38820  0.48340  0.68230  Biso   1.000  H
  H74      1.0000 0.61180  0.48340  0.81770  Biso   1.000  H
  H75      1.0000 0.88820  0.98340  0.68230  Biso   1.000  H
  H76      1.0000 0.11180  0.98340  0.81770  Biso   1.000  H
  H77      1.0000 0.61180  0.51660  0.31770  Biso   1.000  H
  H78      1.0000 0.38820  0.51660  0.18230  Biso   1.000  H
  H79      1.0000 0.11180  0.01660  0.31770  Biso   1.000  H
  H80      1.0000 0.88820  0.01660  0.18230  Biso   1.000  H
  H81      1.0000 0.27530  0.53680  0.66390  Biso   1.000  H
  H82      1.0000 0.72470  0.53680  0.83610  Biso   1.000  H
  H83      1.0000 0.77530  0.03680  0.66390  Biso   1.000  H
  H84      1.0000 0.22470  0.03680  0.83610  Biso   1.000  H
  H85      1.0000 0.72470  0.46320  0.33610  Biso   1.000  H
  H86      1.0000 0.27530  0.46320  0.16390  Biso   1.000  H
  H87      1.0000 0.22470  0.96320  0.33610  Biso   1.000  H
  H88      1.0000 0.77530  0.96320  0.16390  Biso   1.000  H
  H89      1.0000 0.25790  0.45270  0.68090  Biso   1.000  H
  H90      1.0000 0.74210  0.45270  0.81910  Biso   1.000  H
  H91      1.0000 0.75790  0.95270  0.68090  Biso   1.000  H
  H92      1.0000 0.24210  0.95270  0.81910  Biso   1.000  H
  H93      1.0000 0.74210  0.54730  0.31910  Biso   1.000  H
  H94      1.0000 0.25790  0.54730  0.18090  Biso   1.000  H
  H95      1.0000 0.24210  0.04730  0.31910  Biso   1.000  H
  H96      1.0000 0.75790  0.04730  0.18090  Biso   1.000  H
  C73      1.0000 0.53133  0.41969  0.62890  Biso   1.000  C
  C74      1.0000 0.46867  0.41969  0.87110  Biso   1.000  C
  C75      1.0000 0.03133  0.91969  0.62890  Biso   1.000  C
  C76      1.0000 0.96867  0.91969  0.87110  Biso   1.000  C
  C77      1.0000 0.46867  0.58031  0.37110  Biso   1.000  C
  C78      1.0000 0.53133  0.58031  0.12890  Biso   1.000  C
  C79      1.0000 0.96867  0.08031  0.37110  Biso   1.000  C
  C80      1.0000 0.03133  0.08031  0.12890  Biso   1.000  C
  C81      1.0000 0.69237  0.30658  0.58311  Biso   1.000  C
  C82      1.0000 0.30763  0.30658  0.91689  Biso   1.000  C
  C83      1.0000 0.19237  0.80658  0.58311  Biso   1.000  C
  C84      1.0000 0.80763  0.80658  0.91689  Biso   1.000  C
  C85      1.0000 0.30763  0.69342  0.41689  Biso   1.000  C
  C86      1.0000 0.69237  0.69342  0.08311  Biso   1.000  C
  C87      1.0000 0.80763  0.19342  0.41689  Biso   1.000  C
  C88      1.0000 0.19237  0.19342  0.08311  Biso   1.000  C
  H97      1.0000 0.68880  0.35920  0.59100  Biso   1.000  H
  H98      1.0000 0.31120  0.35920  0.90900  Biso   1.000  H
  H99      1.0000 0.18880  0.85920  0.59100  Biso   1.000  H
  H100     1.0000 0.81120  0.85920  0.90900  Biso   1.000  H
  H101     1.0000 0.31120  0.64080  0.40900  Biso   1.000  H
  H102     1.0000 0.68880  0.64080  0.09100  Biso   1.000  H
  H103     1.0000 0.81120  0.14080  0.40900  Biso   1.000  H
  H104     1.0000 0.18880  0.14080  0.09100  Biso   1.000  H
  H105     1.0000 0.77470  0.28960  0.60220  Biso   1.000  H
  H106     1.0000 0.22530  0.28960  0.89780  Biso   1.000  H
  H107     1.0000 0.27470  0.78960  0.60220  Biso   1.000  H
  H108     1.0000 0.72530  0.78960  0.89780  Biso   1.000  H
  H109     1.0000 0.22530  0.71040  0.39780  Biso   1.000  H
  H110     1.0000 0.77470  0.71040  0.10220  Biso   1.000  H
  H111     1.0000 0.72530  0.21040  0.39780  Biso   1.000  H
  H112     1.0000 0.27470  0.21040  0.10220  Biso   1.000  H
  H113     1.0000 0.66590  0.29590  0.52940  Biso   1.000  H
  H114     1.0000 0.33410  0.29590  0.97060  Biso   1.000  H
  H115     1.0000 0.16590  0.79590  0.52940  Biso   1.000  H
  H116     1.0000 0.83410  0.79590  0.97060  Biso   1.000  H
  H117     1.0000 0.33410  0.70410  0.47060  Biso   1.000  H
  H118     1.0000 0.66590  0.70410  0.02940  Biso   1.000  H
  H119     1.0000 0.83410  0.20410  0.47060  Biso   1.000  H
  H120     1.0000 0.16590  0.20410  0.02940  Biso   1.000  H
  C89      1.0000 0.64930  0.28095  0.70970  Biso   1.000  C
  C90      1.0000 0.35070  0.28095  0.79030  Biso   1.000  C
  C91      1.0000 0.14930  0.78095  0.70970  Biso   1.000  C
  C92      1.0000 0.85070  0.78095  0.79030  Biso   1.000  C
  C93      1.0000 0.35070  0.71905  0.29030  Biso   1.000  C
  C94      1.0000 0.64930  0.71905  0.20970  Biso   1.000  C
  C95      1.0000 0.85070  0.21905  0.29030  Biso   1.000  C
  C96      1.0000 0.14930  0.21905  0.20970  Biso   1.000  C
  H121     1.0000 0.59500  0.25520  0.73430  Biso   1.000  H
  H122     1.0000 0.40500  0.25520  0.76570  Biso   1.000  H
  H123     1.0000 0.09500  0.75520  0.73430  Biso   1.000  H
  H124     1.0000 0.90500  0.75520  0.76570  Biso   1.000  H
  H125     1.0000 0.40500  0.74480  0.26570  Biso   1.000  H
  H126     1.0000 0.59500  0.74480  0.23430  Biso   1.000  H
  H127     1.0000 0.90500  0.24480  0.26570  Biso   1.000  H
  H128     1.0000 0.09500  0.24480  0.23430  Biso   1.000  H
  H129     1.0000 0.73100  0.26290  0.72920  Biso   1.000  H
  H130     1.0000 0.26900  0.26290  0.77080  Biso   1.000  H
  H131     1.0000 0.23100  0.76290  0.72920  Biso   1.000  H
  H132     1.0000 0.76900  0.76290  0.77080  Biso   1.000  H
  H133     1.0000 0.26900  0.73710  0.27080  Biso   1.000  H
  H134     1.0000 0.73100  0.73710  0.22920  Biso   1.000  H
  H135     1.0000 0.76900  0.23710  0.27080  Biso   1.000  H
  H136     1.0000 0.23100  0.23710  0.22920  Biso   1.000  H
  H137     1.0000 0.64680  0.33320  0.71980  Biso   1.000  H
  H138     1.0000 0.35320  0.33320  0.78020  Biso   1.000  H
  H139     1.0000 0.14680  0.83320  0.71980  Biso   1.000  H
  H140     1.0000 0.85320  0.83320  0.78020  Biso   1.000  H
  H141     1.0000 0.35320  0.66680  0.28020  Biso   1.000  H
  H142     1.0000 0.64680  0.66680  0.21980  Biso   1.000  H
  H143     1.0000 0.85320  0.16680  0.28020  Biso   1.000  H
  H144     1.0000 0.14680  0.16680  0.21980  Biso   1.000  H
  C97      1.0000 0.08103  0.27069  0.61666  Biso   1.000  C
  C98      1.0000 0.91897  0.27069  0.88334  Biso   1.000  C
  C99      1.0000 0.58103  0.77069  0.61666  Biso   1.000  C
  C100     1.0000 0.41897  0.77069  0.88334  Biso   1.000  C
  C101     1.0000 0.91897  0.72931  0.38334  Biso   1.000  C
  C102     1.0000 0.08103  0.72931  0.11666  Biso   1.000  C
  C103     1.0000 0.41897  0.22931  0.38334  Biso   1.000  C
  C104     1.0000 0.58103  0.22931  0.11666  Biso   1.000  C
  H145     1.0000 0.07850  0.31440  0.58870  Biso   1.000  H
  H146     1.0000 0.92150  0.31440  0.91130  Biso   1.000  H
  H147     1.0000 0.57850  0.81440  0.58870  Biso   1.000  H
  H148     1.0000 0.42150  0.81440  0.91130  Biso   1.000  H
  H149     1.0000 0.92150  0.68560  0.41130  Biso   1.000  H
  H150     1.0000 0.07850  0.68560  0.08870  Biso   1.000  H
  H151     1.0000 0.42150  0.18560  0.41130  Biso   1.000  H
  H152     1.0000 0.57850  0.18560  0.08870  Biso   1.000  H
  C105     1.0000 0.02636  0.27040  0.67571  Biso   1.000  C
  C106     1.0000 0.97364  0.27040  0.82429  Biso   1.000  C
  C107     1.0000 0.52636  0.77040  0.67571  Biso   1.000  C
  C108     1.0000 0.47364  0.77040  0.82429  Biso   1.000  C
  C109     1.0000 0.97364  0.72960  0.32429  Biso   1.000  C
  C110     1.0000 0.02636  0.72960  0.17571  Biso   1.000  C
  C111     1.0000 0.47364  0.22960  0.32429  Biso   1.000  C
  C112     1.0000 0.52636  0.22960  0.17571  Biso   1.000  C
  H153     1.0000 0.98880  0.31310  0.68800  Biso   1.000  H
  H154     1.0000 0.01120  0.31310  0.81200  Biso   1.000  H
  H155     1.0000 0.48880  0.81310  0.68800  Biso   1.000  H
  H156     1.0000 0.51120  0.81310  0.81200  Biso   1.000  H
  H157     1.0000 0.01120  0.68690  0.31200  Biso   1.000  H
  H158     1.0000 0.98880  0.68690  0.18800  Biso   1.000  H
  H159     1.0000 0.51120  0.18690  0.31200  Biso   1.000  H
  H160     1.0000 0.48880  0.18690  0.18800  Biso   1.000  H
  C113     1.0000 0.02692  0.20671  0.71707  Biso   1.000  C
  C114     1.0000 0.97308  0.20671  0.78293  Biso   1.000  C
  C115     1.0000 0.52692  0.70671  0.71707  Biso   1.000  C
  C116     1.0000 0.47308  0.70671  0.78293  Biso   1.000  C
  C117     1.0000 0.97308  0.79329  0.28293  Biso   1.000  C
  C118     1.0000 0.02692  0.79329  0.21707  Biso   1.000  C
  C119     1.0000 0.47308  0.29329  0.28293  Biso   1.000  C
  C120     1.0000 0.52692  0.29329  0.21707  Biso   1.000  C
  C121     1.0000 0.08091  0.14585  0.69430  Biso   1.000  C
  C122     1.0000 0.91909  0.14585  0.80570  Biso   1.000  C
  C123     1.0000 0.58091  0.64585  0.69430  Biso   1.000  C
  C124     1.0000 0.41909  0.64585  0.80570  Biso   1.000  C
  C125     1.0000 0.91909  0.85415  0.30570  Biso   1.000  C
  C126     1.0000 0.08091  0.85415  0.19430  Biso   1.000  C
  C127     1.0000 0.41909  0.35415  0.30570  Biso   1.000  C
  C128     1.0000 0.58091  0.35415  0.19430  Biso   1.000  C
  H161     1.0000 0.08060  0.10060  0.71910  Biso   1.000  H
  H162     1.0000 0.91940  0.10060  0.78090  Biso   1.000  H
  H163     1.0000 0.58060  0.60060  0.71910  Biso   1.000  H
  H164     1.0000 0.41940  0.60060  0.78090  Biso   1.000  H
  H165     1.0000 0.91940  0.89940  0.28090  Biso   1.000  H
  H166     1.0000 0.08060  0.89940  0.21910  Biso   1.000  H
  H167     1.0000 0.41940  0.39940  0.28090  Biso   1.000  H
  H168     1.0000 0.58060  0.39940  0.21910  Biso   1.000  H
  C129     1.0000 0.13506  0.15202  0.63501  Biso   1.000  C
  C130     1.0000 0.86494  0.15202  0.86499  Biso   1.000  C
  C131     1.0000 0.63506  0.65202  0.63501  Biso   1.000  C
  C132     1.0000 0.36494  0.65202  0.86499  Biso   1.000  C
  C133     1.0000 0.86494  0.84798  0.36499  Biso   1.000  C
  C134     1.0000 0.13506  0.84798  0.13501  Biso   1.000  C
  C135     1.0000 0.36494  0.34798  0.36499  Biso   1.000  C
  C136     1.0000 0.63506  0.34798  0.13501  Biso   1.000  C
  H169     1.0000 0.17280  0.11020  0.62110  Biso   1.000  H
  H170     1.0000 0.82720  0.11020  0.87890  Biso   1.000  H
  H171     1.0000 0.67280  0.61020  0.62110  Biso   1.000  H
  H172     1.0000 0.32720  0.61020  0.87890  Biso   1.000  H
  H173     1.0000 0.82720  0.88980  0.37890  Biso   1.000  H
  H174     1.0000 0.17280  0.88980  0.12110  Biso   1.000  H
  H175     1.0000 0.32720  0.38980  0.37890  Biso   1.000  H
  H176     1.0000 0.67280  0.38980  0.12110  Biso   1.000  H
  O17      1.0000 0.50000  0.93730  0.75000  Biso   1.000  O
  O18      1.0000 0.00000  0.43730  0.75000  Biso   1.000  O
  O19      1.0000 0.50000  0.06270  0.25000  Biso   1.000  O
  O20      1.0000 0.00000  0.56270  0.25000  Biso   1.000  O
  C137     1.0000 0.42300  0.97980  0.69708  Biso   1.000  C
  C138     1.0000 0.57700  0.97980  0.80292  Biso   1.000  C
  C139     1.0000 0.92300  0.47980  0.69708  Biso   1.000  C
  C140     1.0000 0.07700  0.47980  0.80292  Biso   1.000  C
  C141     1.0000 0.57700  0.02020  0.30292  Biso   1.000  C
  C142     1.0000 0.42300  0.02020  0.19708  Biso   1.000  C
  C143     1.0000 0.07700  0.52020  0.30292  Biso   1.000  C
  C144     1.0000 0.92300  0.52020  0.19708  Biso   1.000  C
  H177     1.0000 0.33940  0.96350  0.69100  Biso   1.000  H
  H178     1.0000 0.66060  0.96350  0.80900  Biso   1.000  H
  H179     1.0000 0.83940  0.46350  0.69100  Biso   1.000  H
  H180     1.0000 0.16060  0.46350  0.80900  Biso   1.000  H
  H181     1.0000 0.66060  0.03650  0.30900  Biso   1.000  H
  H182     1.0000 0.33940  0.03650  0.19100  Biso   1.000  H
  H183     1.0000 0.16060  0.53650  0.30900  Biso   1.000  H
  H184     1.0000 0.83940  0.53650  0.19100  Biso   1.000  H
  H185     1.0000 0.44350  0.97600  0.64800  Biso   1.000  H
  H186     1.0000 0.55650  0.97600  0.85200  Biso   1.000  H
  H187     1.0000 0.94350  0.47600  0.64800  Biso   1.000  H
  H188     1.0000 0.05650  0.47600  0.85200  Biso   1.000  H
  H189     1.0000 0.55650  0.02400  0.35200  Biso   1.000  H
  H190     1.0000 0.44350  0.02400  0.14800  Biso   1.000  H
  H191     1.0000 0.05650  0.52400  0.35200  Biso   1.000  H
  H192     1.0000 0.94350  0.52400  0.14800  Biso   1.000  H
  C145     1.0000 0.43700  0.05634  0.72450  Biso   1.000  C
  C146     1.0000 0.56300  0.05634  0.77550  Biso   1.000  C
  C147     1.0000 0.93700  0.55634  0.72450  Biso   1.000  C
  C148     1.0000 0.06300  0.55634  0.77550  Biso   1.000  C
  C149     1.0000 0.56300  0.94366  0.27550  Biso   1.000  C
  C150     1.0000 0.43700  0.94366  0.22450  Biso   1.000  C
  C151     1.0000 0.06300  0.44366  0.27550  Biso   1.000  C
  C152     1.0000 0.93700  0.44366  0.22450  Biso   1.000  C
  H193     1.0000 0.37680  0.06870  0.75280  Biso   1.000  H
  H194     1.0000 0.62320  0.06870  0.74720  Biso   1.000  H
  H195     1.0000 0.87680  0.56870  0.75280  Biso   1.000  H
  H196     1.0000 0.12320  0.56870  0.74720  Biso   1.000  H
  H197     1.0000 0.62320  0.93130  0.24720  Biso   1.000  H
  H198     1.0000 0.37680  0.93130  0.25280  Biso   1.000  H
  H199     1.0000 0.12320  0.43130  0.24720  Biso   1.000  H
  H200     1.0000 0.87680  0.43130  0.25280  Biso   1.000  H
  H201     1.0000 0.43000  0.09110  0.68260  Biso   1.000  H
  H202     1.0000 0.57000  0.09110  0.81740  Biso   1.000  H
  H203     1.0000 0.93000  0.59110  0.68260  Biso   1.000  H
  H204     1.0000 0.07000  0.59110  0.81740  Biso   1.000  H
  H205     1.0000 0.57000  0.90890  0.31740  Biso   1.000  H
  H206     1.0000 0.43000  0.90890  0.18260  Biso   1.000  H
  H207     1.0000 0.07000  0.40890  0.31740  Biso   1.000  H
  H208     1.0000 0.93000  0.40890  0.18260  Biso   1.000  H
