data_image0
_cell_length_a       6.6396
_cell_length_b       8.5938
_cell_length_c       9.2948
_cell_angle_alpha    88.85
_cell_angle_beta     77.9
_cell_angle_gamma    72.69

_symmetry_space_group_name_H-M    "P 1"
_symmetry_int_tables_number       1

loop_
  _symmetry_equiv_pos_as_xyz
  'x, y, z'

loop_
  _atom_site_label
  _atom_site_occupancy
  _atom_site_fract_x
  _atom_site_fract_y
  _atom_site_fract_z
  _atom_site_thermal_displace_type
  _atom_site_B_iso_or_equiv
  _atom_site_type_symbol
  Cu1      1.0000 0.00000  0.00000  0.50000  Biso   1.000  Cu
  N1       1.0000 0.13120  0.96370  0.68290  Biso   1.000  N
  N2       1.0000 0.86880  0.03630  0.31710  Biso   1.000  N
  N3       1.0000 0.32030  0.32280  0.62780  Biso   1.000  N
  N4       1.0000 0.67970  0.67720  0.37220  Biso   1.000  N
  N5       1.0000 0.17880  0.20260  0.49170  Biso   1.000  N
  N6       1.0000 0.82120  0.79740  0.50830  Biso   1.000  N
  C1       1.0000 0.43570  0.36380  0.73130  Biso   1.000  C
  C2       1.0000 0.56430  0.63620  0.26870  Biso   1.000  C
  H1       1.0000 0.36480  0.34920  0.83090  Biso   1.000  H
  H2       1.0000 0.63520  0.65080  0.16910  Biso   1.000  H
  H3       1.0000 0.43010  0.47770  0.72360  Biso   1.000  H
  H4       1.0000 0.56990  0.52230  0.27640  Biso   1.000  H
  N7       1.0000 0.29920  0.40990  0.50620  Biso   1.000  N
  N8       1.0000 0.70080  0.59010  0.49380  Biso   1.000  N
  N9       1.0000 0.33480  0.04920  0.83010  Biso   1.000  N
  N10      1.0000 0.66520  0.95080  0.16990  Biso   1.000  N
  C3       1.0000 0.24710  0.19580  0.61610  Biso   1.000  C
  C4       1.0000 0.75290  0.80420  0.38390  Biso   1.000  C
  N11      1.0000 0.21260  0.33740  0.42600  Biso   1.000  N
  N12      1.0000 0.78740  0.66260  0.57400  Biso   1.000  N
  C5       1.0000 0.23900  0.06250  0.71760  Biso   1.000  C
  C6       1.0000 0.76100  0.93750  0.28240  Biso   1.000  C
  C7       1.0000 0.12130  0.83860  0.77020  Biso   1.000  C
  C8       1.0000 0.87870  0.16140  0.22980  Biso   1.000  C
  H5       1.0000 0.04910  0.76720  0.74900  Biso   1.000  H
  H6       1.0000 0.95090  0.23280  0.25100  Biso   1.000  H
  C9       1.0000 0.21510  0.81430  0.88960  Biso   1.000  C
  C10      1.0000 0.78490  0.18570  0.11040  Biso   1.000  C
  H7       1.0000 0.20800  0.72810  0.95060  Biso   1.000  H
  H8       1.0000 0.79200  0.27190  0.04940  Biso   1.000  H
  C11      1.0000 0.32080  0.92340  0.91550  Biso   1.000  C
  C12      1.0000 0.67920  0.07660  0.08450  Biso   1.000  C
  H9       1.0000 0.38570  0.90910  0.99630  Biso   1.000  H
  H10      1.0000 0.61430  0.09090  0.00370  Biso   1.000  H
  O1       1.0000 0.72450  0.15240  0.59720  Biso   1.000  O
  O2       1.0000 0.27550  0.84760  0.40280  Biso   1.000  O
  O3       1.0000 0.78560  0.28510  0.78170  Biso   1.000  O
  O4       1.0000 0.21440  0.71490  0.21830  Biso   1.000  O
  C13      1.0000 0.67180  0.25790  0.70250  Biso   1.000  C
  C14      1.0000 0.32820  0.74210  0.29750  Biso   1.000  C
  O5       1.0000 0.14780  0.43520  0.10220  Biso   1.000  O
  O6       1.0000 0.85220  0.56480  0.89780  Biso   1.000  O
  H11      1.0000 0.17630  0.52090  0.08320  Biso   1.000  H
  H12      1.0000 0.82370  0.47910  0.91680  Biso   1.000  H
  H13      1.0000 0.03880  0.41080  0.09820  Biso   1.000  H
  H14      1.0000 0.96120  0.58920  0.90180  Biso   1.000  H
