data_image0
_cell_length_a       11.9578
_cell_length_b       12.7183
_cell_length_c       13.2817
_cell_angle_alpha    87.521
_cell_angle_beta     88.058
_cell_angle_gamma    84.097

_symmetry_space_group_name_H-M    "P 1"
_symmetry_int_tables_number       1

loop_
  _symmetry_equiv_pos_as_xyz
  'x, y, z'

loop_
  _atom_site_label
  _atom_site_occupancy
  _atom_site_fract_x
  _atom_site_fract_y
  _atom_site_fract_z
  _atom_site_thermal_displace_type
  _atom_site_B_iso_or_equiv
  _atom_site_type_symbol
  Cu1      1.0000 0.87668  0.22391  0.87983  Biso   1.000  Cu
  P1       1.0000 0.02110  0.08830  0.04860  Biso   1.000  P
  N1       1.0000 0.08750  0.18170  0.98280  Biso   1.000  N
  N2       1.0000 0.03730  0.24530  0.90720  Biso   1.000  N
  C1       1.0000 0.11450  0.30520  0.87250  Biso   1.000  C
  H1       1.0000 0.10430  0.35710  0.81920  Biso   1.000  H
  C2       1.0000 0.21380  0.28140  0.92530  Biso   1.000  C
  H2       1.0000 0.28150  0.31410  0.91520  Biso   1.000  H
  C3       1.0000 0.19480  0.20470  0.99190  Biso   1.000  C
  H3       1.0000 0.24730  0.17130  0.03830  Biso   1.000  H
  N3       1.0000 0.90190  0.15670  0.09170  Biso   1.000  N
  N4       1.0000 0.83510  0.22400  0.02960  Biso   1.000  N
  C4       1.0000 0.74900  0.26060  0.08610  Biso   1.000  C
  H4       1.0000 0.68720  0.30690  0.06250  Biso   1.000  H
  C5       1.0000 0.76050  0.22220  0.18540  Biso   1.000  C
  H5       1.0000 0.71020  0.23780  0.24100  Biso   1.000  H
  C6       1.0000 0.85500  0.16030  0.18640  Biso   1.000  C
  H6       1.0000 0.88610  0.12350  0.24430  Biso   1.000  H
  N5       1.0000 0.97160  0.02000  0.95610  Biso   1.000  N
  N6       1.0000 0.90650  0.06530  0.88080  Biso   1.000  N
  C7       1.0000 0.88080  0.98760  0.82800  Biso   1.000  C
  H7       1.0000 0.83420  0.99560  0.77100  Biso   1.000  H
  C8       1.0000 0.93100  0.89170  0.86600  Biso   1.000  C
  H8       1.0000 0.92610  0.82370  0.84090  Biso   1.000  H
  C9       1.0000 0.98550  0.91400  0.94510  Biso   1.000  C
  H9       1.0000 0.02810  0.86410  0.98760  Biso   1.000  H
  Cu2      1.0000 0.62369  0.43155  0.60260  Biso   1.000  Cu
  P2       1.0000 0.77960  0.30490  0.76840  Biso   1.000  P
  N7       1.0000 0.75980  0.43730  0.77870  Biso   1.000  N
  N8       1.0000 0.69290  0.50180  0.71620  Biso   1.000  N
  C10      1.0000 0.69610  0.59690  0.74920  Biso   1.000  C
  H10      1.0000 0.65780  0.65930  0.71980  Biso   1.000  H
  C11      1.0000 0.76340  0.59420  0.83380  Biso   1.000  C
  H11      1.0000 0.77840  0.65270  0.87150  Biso   1.000  H
  C12      1.0000 0.80150  0.49490  0.85030  Biso   1.000  C
  H12      1.0000 0.84970  0.46790  0.90280  Biso   1.000  H
  N9       1.0000 0.82860  0.29620  0.64850  Biso   1.000  N
  N10      1.0000 0.77430  0.34960  0.56930  Biso   1.000  N
  C13      1.0000 0.83830  0.32600  0.48970  Biso   1.000  C
  H13      1.0000 0.82290  0.35180  0.42300  Biso   1.000  H
  C14      1.0000 0.93180  0.25600  0.51610  Biso   1.000  C
  H14      1.0000 0.98910  0.22630  0.47170  Biso   1.000  H
  C15      1.0000 0.92490  0.24090  0.61530  Biso   1.000  C
  H15      1.0000 0.97770  0.19870  0.65580  Biso   1.000  H
  N11      1.0000 0.65000  0.27020  0.76070  Biso   1.000  N
  N12      1.0000 0.57380  0.31210  0.69220  Biso   1.000  N
  C16      1.0000 0.48590  0.25960  0.70630  Biso   1.000  C
  H16      1.0000 0.41940  0.27200  0.66860  Biso   1.000  H
  C17      1.0000 0.50250  0.18300  0.78400  Biso   1.000  C
  H17      1.0000 0.45210  0.13380  0.80790  Biso   1.000  H
  C18      1.0000 0.60230  0.19340  0.81690  Biso   1.000  C
  H18      1.0000 0.63660  0.15350  0.87170  Biso   1.000  H
  Cu3      1.0000 0.36738  0.69489  0.36474  Biso   1.000  Cu
  P3       1.0000 0.52050  0.53070  0.50740  Biso   1.000  P
  N13      1.0000 0.58380  0.63210  0.45360  Biso   1.000  N
  N14      1.0000 0.52990  0.70930  0.39200  Biso   1.000  N
  C19      1.0000 0.60140  0.77960  0.37240  Biso   1.000  C
  H19      1.0000 0.58760  0.84140  0.33010  Biso   1.000  H
  C20      1.0000 0.70060  0.75020  0.42280  Biso   1.000  C
  H20      1.0000 0.76510  0.78810  0.42230  Biso   1.000  H
  C21      1.0000 0.68790  0.66020  0.47090  Biso   1.000  C
  H21      1.0000 0.74260  0.62080  0.51140  Biso   1.000  H
  N15      1.0000 0.40650  0.59420  0.56460  Biso   1.000  N
  N16      1.0000 0.33400  0.66730  0.51480  Biso   1.000  N
  C22      1.0000 0.26740  0.71050  0.58420  Biso   1.000  C
  H22      1.0000 0.21310  0.76940  0.57290  Biso   1.000  H
  C23      1.0000 0.28680  0.65890  0.67710  Biso   1.000  C
  H23      1.0000 0.24500  0.67150  0.73820  Biso   1.000  H
  C24      1.0000 0.37440  0.58920  0.66360  Biso   1.000  C
  H24      1.0000 0.40920  0.54330  0.71430  Biso   1.000  H
  N17      1.0000 0.46430  0.48100  0.40860  Biso   1.000  N
  N18      1.0000 0.39820  0.53950  0.34000  Biso   1.000  N
  C25      1.0000 0.37400  0.47160  0.27480  Biso   1.000  C
  H25      1.0000 0.32780  0.48940  0.21850  Biso   1.000  H
  C26      1.0000 0.42380  0.37090  0.29790  Biso   1.000  C
  H26      1.0000 0.41820  0.30880  0.26190  Biso   1.000  H
  C27      1.0000 0.48090  0.37880  0.38020  Biso   1.000  C
  H27      1.0000 0.52570  0.32290  0.41380  Biso   1.000  H
  Cu4      1.0000 0.11964  0.98853  0.14838  Biso   1.000  Cu
  P4       1.0000 0.27000  0.80690  0.27690  Biso   1.000  P
  N19      1.0000 0.26660  0.93210  0.31500  Biso   1.000  N
  N20      1.0000 0.20800  0.01800  0.26860  Biso   1.000  N
  C28      1.0000 0.23100  0.10050  0.31760  Biso   1.000  C
  H28      1.0000 0.20250  0.17160  0.30220  Biso   1.000  H
  C29      1.0000 0.30320  0.06780  0.39540  Biso   1.000  C
  H29      1.0000 0.33410  0.11200  0.44080  Biso   1.000  H
  C30      1.0000 0.32050  0.96470  0.39400  Biso   1.000  C
  H30      1.0000 0.36370  0.92010  0.44070  Biso   1.000  H
  N21      1.0000 0.30870  0.82150  0.15470  Biso   1.000  N
  N22      1.0000 0.25620  0.89670  0.09050  Biso   1.000  N
  C31      1.0000 0.30900  0.88310  0.00320  Biso   1.000  C
  H31      1.0000 0.29370  0.92610  0.94410  Biso   1.000  H
  C32      1.0000 0.39160  0.79710  0.00900  Biso   1.000  C
  H32      1.0000 0.43530  0.76640  0.95470  Biso   1.000  H
  C33      1.0000 0.39630  0.76730  0.10470  Biso   1.000  C
  H33      1.0000 0.45110  0.71680  0.13400  Biso   1.000  H
  N23      1.0000 0.13290  0.79160  0.26870  Biso   1.000  N
  N24      1.0000 0.05780  0.86240  0.21920  Biso   1.000  N
  C34      1.0000 0.96080  0.82280  0.23020  Biso   1.000  C
  H34      1.0000 0.89140  0.85680  0.20700  Biso   1.000  H
  C35      1.0000 0.97350  0.72390  0.28050  Biso   1.000  C
  H35      1.0000 0.91710  0.67740  0.29390  Biso   1.000  H
  C36      1.0000 0.07930  0.70830  0.30560  Biso   1.000  C
  H36      1.0000 0.11270  0.64880  0.34330  Biso   1.000  H
  P5       1.0000 0.47260  0.46720  0.97170  Biso   1.000  P
  F1       1.0000 0.44920  0.36290  0.02890  Biso   1.000  F
  F2       1.0000 0.50450  0.52030  0.07020  Biso   1.000  F
  F3       1.0000 0.49450  0.57570  0.91010  Biso   1.000  F
  F4       1.0000 0.43690  0.42150  0.86960  Biso   1.000  F
  F5       1.0000 0.59880  0.42530  0.95170  Biso   1.000  F
  F6       1.0000 0.34660  0.51680  0.98880  Biso   1.000  F
  P6       1.0000 0.06320  0.38690  0.23640  Biso   1.000  P
  F7       1.0000 0.99240  0.39620  0.13820  Biso   1.000  F
  F8       1.0000 0.12030  0.49180  0.20130  Biso   1.000  F
  F9       1.0000 0.14140  0.38250  0.33210  Biso   1.000  F
  F10      1.0000 0.00930  0.28700  0.27830  Biso   1.000  F
  F11      1.0000 0.97240  0.46150  0.29640  Biso   1.000  F
  F12      1.0000 0.16180  0.32200  0.17920  Biso   1.000  F
  P7       1.0000 0.64660  0.08120  0.44180  Biso   1.000  P
  F13      1.0000 0.55250  0.00460  0.46700  Biso   1.000  F
  F14      1.0000 0.60340  0.16090  0.52120  Biso   1.000  F
  F15      1.0000 0.74620  0.14750  0.40460  Biso   1.000  F
  F16      1.0000 0.68850  0.00430  0.35110  Biso   1.000  F
  F17      1.0000 0.72710  0.01030  0.51220  Biso   1.000  F
  F18      1.0000 0.56870  0.14130  0.35720  Biso   1.000  F
  P8       1.0000 0.22290  0.03650  0.70730  Biso   1.000  P
  F19      1.0000 0.29810  0.00920  0.79820  Biso   1.000  F
  F20      1.0000 0.20460  0.92430  0.68010  Biso   1.000  F
  F21      1.0000 0.15250  0.08050  0.60750  Biso   1.000  F
  F22      1.0000 0.24370  0.15930  0.71790  Biso   1.000  F
  F23      1.0000 0.33040  0.03740  0.63110  Biso   1.000  F
  F24      1.0000 0.11030  0.06010  0.76780  Biso   1.000  F
  Cu5      1.0000 0.06680  0.04910  0.08590  Biso   1.000  Cu
  P9       1.0000 0.91700  0.17600  0.91440  Biso   1.000  P
  N25      1.0000 0.05000  0.20800  0.92300  Biso   1.000  N
  N26      1.0000 0.12000  0.16900  0.99800  Biso   1.000  N
  C37      1.0000 0.21600  0.20700  0.97600  Biso   1.000  C
  H37      1.0000 0.28520  0.18360  0.00640  Biso   1.000  H
  C38      1.0000 0.20200  0.28600  0.90000  Biso   1.000  C
  H38      1.0000 0.25600  0.33210  0.87620  Biso   1.000  H
  C39      1.0000 0.09900  0.28500  0.86900  Biso   1.000  C
  H39      1.0000 0.06540  0.32950  0.81660  Biso   1.000  H
  N27      1.0000 0.86700  0.19100  0.03400  Biso   1.000  N
  N28      1.0000 0.91600  0.13500  0.11400  Biso   1.000  N
  C40      1.0000 0.85100  0.16100  0.19200  Biso   1.000  C
  H40      1.0000 0.85560  0.12620  0.25680  Biso   1.000  H
  C41      1.0000 0.77300  0.24700  0.16700  Biso   1.000  C
  H41      1.0000 0.71870  0.28210  0.21050  Biso   1.000  H
  C42      1.0000 0.79100  0.26800  0.07000  Biso   1.000  C
  H42      1.0000 0.75620  0.32690  0.03230  Biso   1.000  H
  N29      1.0000 0.93500  0.04400  0.90800  Biso   1.000  N
  N30      1.0000 0.00600  0.98000  0.96800  Biso   1.000  N
  C43      1.0000 0.00800  0.88600  0.93100  Biso   1.000  C
  H43      1.0000 0.05990  0.82710  0.94940  Biso   1.000  H
  C44      1.0000 0.92500  0.88500  0.86100  Biso   1.000  C
  H44      1.0000 0.90440  0.82540  0.82760  Biso   1.000  H
  C45      1.0000 0.87900  0.98300  0.85000  Biso   1.000  C
  H45      1.0000 0.81780  0.00720  0.80830  Biso   1.000  H
  Cu6      1.0000 0.81920  0.26020  0.80490  Biso   1.000  Cu
  P10      1.0000 0.67600  0.39900  0.63580  Biso   1.000  P
  N31      1.0000 0.73100  0.46640  0.72500  Biso   1.000  N
  N32      1.0000 0.78600  0.41880  0.80600  Biso   1.000  N
  C46      1.0000 0.80600  0.49600  0.86300  Biso   1.000  C
  H46      1.0000 0.83690  0.48660  0.92860  Biso   1.000  H
  C47      1.0000 0.77700  0.59300  0.81500  Biso   1.000  C
  H47      1.0000 0.79250  0.66080  0.83480  Biso   1.000  H
  C48      1.0000 0.72200  0.57290  0.73500  Biso   1.000  C
  H48      1.0000 0.68190  0.62390  0.69120  Biso   1.000  H
  N33      1.0000 0.79000  0.32300  0.59230  Biso   1.000  N
  N34      1.0000 0.86600  0.26900  0.65590  Biso   1.000  N
  C49      1.0000 0.94900  0.23000  0.59800  Biso   1.000  C
  H49      1.0000 0.01310  0.18630  0.62120  Biso   1.000  H
  C50      1.0000 0.93200  0.26300  0.49800  Biso   1.000  C
  H50      1.0000 0.97980  0.24480  0.44120  Biso   1.000  H
  C51      1.0000 0.83600  0.32300  0.49700  Biso   1.000  C
  H51      1.0000 0.80420  0.36080  0.43990  Biso   1.000  H
  N35      1.0000 0.60900  0.30900  0.70400  Biso   1.000  N
  N36      1.0000 0.66000  0.23800  0.77300  Biso   1.000  N
  C52      1.0000 0.58000  0.18100  0.80700  Biso   1.000  C
  H52      1.0000 0.59130  0.12390  0.85530  Biso   1.000  H
  C53      1.0000 0.47800  0.21700  0.76400  Biso   1.000  C
  H53      1.0000 0.40980  0.18470  0.77160  Biso   1.000  H
  C54      1.0000 0.49600  0.30300  0.71100  Biso   1.000  C
  H54      1.0000 0.43970  0.35320  0.68280  Biso   1.000  H
  Cu7      1.0000 0.58300  0.50130  0.54230  Biso   1.000  Cu
  P11      1.0000 0.44100  0.67950  0.40550  Biso   1.000  P
  N37      1.0000 0.57900  0.69100  0.41300  Biso   1.000  N
  N38      1.0000 0.65000  0.62500  0.47100  Biso   1.000  N
  C55      1.0000 0.74900  0.65900  0.45700  Biso   1.000  C
  H55      1.0000 0.81870  0.62120  0.47640  Biso   1.000  H
  C56      1.0000 0.73900  0.75900  0.41000  Biso   1.000  C
  H56      1.0000 0.79310  0.80870  0.40440  Biso   1.000  H
  C57      1.0000 0.63700  0.77100  0.37400  Biso   1.000  C
  H57      1.0000 0.60830  0.82570  0.32750  Biso   1.000  H
  N39      1.0000 0.40000  0.67300  0.52800  Biso   1.000  N
  N40      1.0000 0.45200  0.60100  0.59560  Biso   1.000  N
  C58      1.0000 0.40500  0.62300  0.68400  Biso   1.000  C
  H58      1.0000 0.42350  0.58530  0.74520  Biso   1.000  H
  C59      1.0000 0.32500  0.71100  0.67500  Biso   1.000  C
  H59      1.0000 0.27530  0.73890  0.72620  Biso   1.000  H
  C60      1.0000 0.33400  0.74600  0.58100  Biso   1.000  C
  H60      1.0000 0.29930  0.81150  0.55400  Biso   1.000  H
  N41      1.0000 0.43900  0.55400  0.37300  Biso   1.000  N
  N42      1.0000 0.49800  0.46900  0.42000  Biso   1.000  N
  C61      1.0000 0.48900  0.38900  0.36400  Biso   1.000  C
  H61      1.0000 0.52850  0.32060  0.37370  Biso   1.000  H
  C62      1.0000 0.41400  0.41800  0.28700  Biso   1.000  C
  H62      1.0000 0.39210  0.37360  0.23690  Biso   1.000  H
  C63      1.0000 0.37900  0.51800  0.29900  Biso   1.000  C
  H63      1.0000 0.32100  0.55800  0.26270  Biso   1.000  H
  Cu8      1.0000 0.33260  0.78950  0.32090  Biso   1.000  Cu
  P12      1.0000 0.17400  0.94560  0.17520  Biso   1.000  P
  N43      1.0000 0.22800  0.00110  0.27300  Biso   1.000  N
  N44      1.0000 0.29700  0.94560  0.34200  Biso   1.000  N
  C64      1.0000 0.30700  0.01300  0.41300  Biso   1.000  C
  H64      1.0000 0.33430  0.99400  0.47790  Biso   1.000  H
  C65      1.0000 0.27100  0.11500  0.37800  Biso   1.000  C
  H65      1.0000 0.27490  0.17860  0.41240  Biso   1.000  H
  C66      1.0000 0.22900  0.10600  0.28900  Biso   1.000  C
  H66      1.0000 0.20490  0.16270  0.24320  Biso   1.000  H
  N45      1.0000 0.29000  0.88500  0.11920  Biso   1.000  N
  N46      1.0000 0.36700  0.81800  0.17130  Biso   1.000  N
  C67      1.0000 0.43500  0.77400  0.10100  Biso   1.000  C
  H67      1.0000 0.48660  0.71360  0.11210  Biso   1.000  H
  C68      1.0000 0.41900  0.83000  0.00900  Biso   1.000  C
  H68      1.0000 0.46360  0.82070  0.94930  Biso   1.000  H
  C69      1.0000 0.33000  0.89800  0.02300  Biso   1.000  C
  H69      1.0000 0.29830  0.94790  0.97360  Biso   1.000  H
  N47      1.0000 0.11600  0.84300  0.23100  Biso   1.000  N
  N48      1.0000 0.17100  0.76900  0.29500  Biso   1.000  N
  C70      1.0000 0.10500  0.69300  0.30700  Biso   1.000  C
  H70      1.0000 0.12160  0.62990  0.34690  Biso   1.000  H
  C71      1.0000 0.00600  0.71900  0.25500  Biso   1.000  C
  H71      1.0000 0.94660  0.67530  0.24880  Biso   1.000  H
  C72      1.0000 0.01100  0.81500  0.21700  Biso   1.000  C
  H72      1.0000 0.95140  0.85810  0.18500  Biso   1.000  H
  F25      1.0000 0.44420  0.34880  0.99910  Biso   1.000  F
  F26      1.0000 0.54680  0.45600  0.07000  Biso   1.000  F
  F27      1.0000 0.50620  0.58090  0.94790  Biso   1.000  F
  F28      1.0000 0.39330  0.46860  0.87950  Biso   1.000  F
  F29      1.0000 0.57600  0.41850  0.90720  Biso   1.000  F
  F30      1.0000 0.36970  0.50920  0.04110  Biso   1.000  F
  F31      1.0000 0.99300  0.42800  0.14040  Biso   1.000  F
  F32      1.0000 0.04800  0.50080  0.27750  Biso   1.000  F
  F33      1.0000 0.12770  0.34240  0.33310  Biso   1.000  F
  F34      1.0000 0.07760  0.27170  0.19400  Biso   1.000  F
  F35      1.0000 0.94720  0.36020  0.28870  Biso   1.000  F
  F36      1.0000 0.17450  0.40900  0.17710  Biso   1.000  F
  F37      1.0000 0.60800  0.96960  0.47160  Biso   1.000  F
  F38      1.0000 0.53500  0.13490  0.49960  Biso   1.000  F
  F39      1.0000 0.67600  0.19730  0.41800  Biso   1.000  F
  F40      1.0000 0.75810  0.03300  0.39250  Biso   1.000  F
  F41      1.0000 0.70280  0.08400  0.54950  Biso   1.000  F
  F42      1.0000 0.57840  0.08700  0.34230  Biso   1.000  F
  F43      1.0000 0.33220  0.99010  0.76740  Biso   1.000  F
  F44      1.0000 0.18050  0.92000  0.73230  Biso   1.000  F
  F45      1.0000 0.10790  0.06860  0.65790  Biso   1.000  F
  F46      1.0000 0.26670  0.14520  0.69280  Biso   1.000  F
  F47      1.0000 0.27900  0.98870  0.60960  Biso   1.000  F
  F48      1.0000 0.16550  0.06240  0.81570  Biso   1.000  F
