data_image0
_cell_length_a       7.7882
_cell_length_b       28.449
_cell_length_c       10.7928
_cell_angle_alpha    90
_cell_angle_beta     90.52
_cell_angle_gamma    90

_symmetry_space_group_name_H-M    "P 1"
_symmetry_int_tables_number       1

loop_
  _symmetry_equiv_pos_as_xyz
  'x, y, z'

loop_
  _atom_site_label
  _atom_site_occupancy
  _atom_site_fract_x
  _atom_site_fract_y
  _atom_site_fract_z
  _atom_site_thermal_displace_type
  _atom_site_B_iso_or_equiv
  _atom_site_type_symbol
  C1       1.0000 0.04370  0.41314  0.27050  Biso   1.000  C
  C2       1.0000 0.45630  0.91314  0.22950  Biso   1.000  C
  C3       1.0000 0.95630  0.58686  0.72950  Biso   1.000  C
  C4       1.0000 0.54370  0.08686  0.77050  Biso   1.000  C
  C5       1.0000 0.01480  0.33795  0.14580  Biso   1.000  C
  C6       1.0000 0.48520  0.83795  0.35420  Biso   1.000  C
  C7       1.0000 0.98520  0.66205  0.85420  Biso   1.000  C
  C8       1.0000 0.51480  0.16205  0.64580  Biso   1.000  C
  H1       1.0000 0.12310  0.34470  0.11000  Biso   1.000  H
  H2       1.0000 0.37690  0.84470  0.39000  Biso   1.000  H
  H3       1.0000 0.87690  0.65530  0.89000  Biso   1.000  H
  H4       1.0000 0.62310  0.15530  0.61000  Biso   1.000  H
  C9       1.0000 0.95090  0.36749  0.23690  Biso   1.000  C
  C10      1.0000 0.54910  0.86749  0.26310  Biso   1.000  C
  C11      1.0000 0.04910  0.63251  0.76310  Biso   1.000  C
  C12      1.0000 0.45090  0.13251  0.73690  Biso   1.000  C
  C13      1.0000 0.79790  0.35549  0.29340  Biso   1.000  C
  C14      1.0000 0.70210  0.85549  0.20660  Biso   1.000  C
  C15      1.0000 0.20210  0.64451  0.70660  Biso   1.000  C
  C16      1.0000 0.29790  0.14451  0.79340  Biso   1.000  C
  H5       1.0000 0.75800  0.37360  0.36120  Biso   1.000  H
  H6       1.0000 0.74200  0.87360  0.13880  Biso   1.000  H
  H7       1.0000 0.24200  0.62640  0.63880  Biso   1.000  H
  H8       1.0000 0.25800  0.12640  0.86120  Biso   1.000  H
  C17      1.0000 0.70210  0.31726  0.25210  Biso   1.000  C
  C18      1.0000 0.79790  0.81726  0.24790  Biso   1.000  C
  C19      1.0000 0.29790  0.68274  0.74790  Biso   1.000  C
  C20      1.0000 0.20210  0.18274  0.75210  Biso   1.000  C
  H9       1.0000 0.59540  0.31030  0.28990  Biso   1.000  H
  H10      1.0000 0.90460  0.81030  0.21010  Biso   1.000  H
  H11      1.0000 0.40460  0.68970  0.71010  Biso   1.000  H
  H12      1.0000 0.09540  0.18970  0.78990  Biso   1.000  H
  C21      1.0000 0.76120  0.28913  0.15600  Biso   1.000  C
  C22      1.0000 0.73880  0.78913  0.34400  Biso   1.000  C
  C23      1.0000 0.23880  0.71087  0.84400  Biso   1.000  C
  C24      1.0000 0.26120  0.21087  0.65600  Biso   1.000  C
  C25      1.0000 0.65120  0.25039  0.09310  Biso   1.000  C
  C26      1.0000 0.84880  0.75039  0.40690  Biso   1.000  C
  C27      1.0000 0.34880  0.74961  0.90690  Biso   1.000  C
  C28      1.0000 0.15120  0.24961  0.59310  Biso   1.000  C
  C29      1.0000 0.84400  0.18600  0.17500  Biso   1.000  C
  C30      1.0000 0.65600  0.68600  0.32500  Biso   1.000  C
  C31      1.0000 0.15600  0.81400  0.82500  Biso   1.000  C
  C32      1.0000 0.34400  0.31400  0.67500  Biso   1.000  C
  H13      1.0000 0.84740  0.20290  0.25090  Biso   1.000  H
  H14      1.0000 0.65260  0.70290  0.24910  Biso   1.000  H
  H15      1.0000 0.15260  0.79710  0.74910  Biso   1.000  H
  H16      1.0000 0.34740  0.29710  0.75090  Biso   1.000  H
  C33      1.0000 0.75250  0.20446  0.07390  Biso   1.000  C
  C34      1.0000 0.74750  0.70446  0.42610  Biso   1.000  C
  C35      1.0000 0.24750  0.79554  0.92610  Biso   1.000  C
  C36      1.0000 0.25250  0.29554  0.57390  Biso   1.000  C
  C37      1.0000 0.75180  0.17885  0.96310  Biso   1.000  C
  C38      1.0000 0.74820  0.67885  0.53690  Biso   1.000  C
  C39      1.0000 0.24820  0.82115  0.03690  Biso   1.000  C
  C40      1.0000 0.25180  0.32115  0.46310  Biso   1.000  C
  H17      1.0000 0.68790  0.19010  0.89390  Biso   1.000  H
  H18      1.0000 0.81210  0.69010  0.60610  Biso   1.000  H
  H19      1.0000 0.31210  0.80990  0.10610  Biso   1.000  H
  H20      1.0000 0.18790  0.30990  0.39390  Biso   1.000  H
  C41      1.0000 0.84340  0.13728  0.95350  Biso   1.000  C
  C42      1.0000 0.65660  0.63728  0.54650  Biso   1.000  C
  C43      1.0000 0.15660  0.86272  0.04650  Biso   1.000  C
  C44      1.0000 0.34340  0.36272  0.45350  Biso   1.000  C
  H21      1.0000 0.84550  0.12120  0.87640  Biso   1.000  H
  H22      1.0000 0.65450  0.62120  0.62360  Biso   1.000  H
  H23      1.0000 0.15450  0.87880  0.12360  Biso   1.000  H
  H24      1.0000 0.34550  0.37880  0.37640  Biso   1.000  H
  C45      1.0000 0.93240  0.11865  0.05470  Biso   1.000  C
  C46      1.0000 0.56760  0.61865  0.44530  Biso   1.000  C
  C47      1.0000 0.06760  0.88135  0.94530  Biso   1.000  C
  C48      1.0000 0.43240  0.38135  0.55470  Biso   1.000  C
  C49      1.0000 0.92990  0.14344  0.16620  Biso   1.000  C
  C50      1.0000 0.57010  0.64344  0.33380  Biso   1.000  C
  C51      1.0000 0.07010  0.85656  0.83380  Biso   1.000  C
  C52      1.0000 0.42990  0.35656  0.66620  Biso   1.000  C
  H25      1.0000 0.98770  0.13100  0.23680  Biso   1.000  H
  H26      1.0000 0.51230  0.63100  0.26320  Biso   1.000  H
  H27      1.0000 0.01230  0.86900  0.76320  Biso   1.000  H
  H28      1.0000 0.48770  0.36900  0.73680  Biso   1.000  H
  C53      1.0000 0.49050  0.23806  0.16950  Biso   1.000  C
  C54      1.0000 0.00950  0.73806  0.33050  Biso   1.000  C
  C55      1.0000 0.50950  0.76194  0.83050  Biso   1.000  C
  C56      1.0000 0.99050  0.26194  0.66950  Biso   1.000  C
  C57      1.0000 0.58580  0.27203  0.96910  Biso   1.000  C
  C58      1.0000 0.91420  0.77203  0.53090  Biso   1.000  C
  C59      1.0000 0.41420  0.72797  0.03090  Biso   1.000  C
  C60      1.0000 0.08580  0.22797  0.46910  Biso   1.000  C
  C61      1.0000 0.56450  0.43597  0.16080  Biso   1.000  C
  C62      1.0000 0.93550  0.93597  0.33920  Biso   1.000  C
  C63      1.0000 0.43550  0.56403  0.83920  Biso   1.000  C
  C64      1.0000 0.06450  0.06403  0.66080  Biso   1.000  C
  H29      1.0000 0.50690  0.41780  0.22140  Biso   1.000  H
  H30      1.0000 0.99310  0.91780  0.27860  Biso   1.000  H
  H31      1.0000 0.49310  0.58220  0.77860  Biso   1.000  H
  H32      1.0000 0.00690  0.08220  0.72140  Biso   1.000  H
  C65      1.0000 0.53970  0.42536  0.03650  Biso   1.000  C
  C66      1.0000 0.96030  0.92536  0.46350  Biso   1.000  C
  C67      1.0000 0.46030  0.57464  0.96350  Biso   1.000  C
  C68      1.0000 0.03970  0.07464  0.53650  Biso   1.000  C
  H33      1.0000 0.46630  0.40020  0.01230  Biso   1.000  H
  H34      1.0000 0.03370  0.90020  0.48770  Biso   1.000  H
  H35      1.0000 0.53370  0.59980  0.98770  Biso   1.000  H
  H36      1.0000 0.96630  0.09980  0.51230  Biso   1.000  H
  C69      1.0000 0.62340  0.45197  0.94810  Biso   1.000  C
  C70      1.0000 0.87660  0.95197  0.55190  Biso   1.000  C
  C71      1.0000 0.37660  0.54803  0.05190  Biso   1.000  C
  C72      1.0000 0.12340  0.04803  0.44810  Biso   1.000  C
  H37      1.0000 0.61000  0.44490  0.86260  Biso   1.000  H
  H38      1.0000 0.89000  0.94490  0.63740  Biso   1.000  H
  H39      1.0000 0.39000  0.55510  0.13740  Biso   1.000  H
  H40      1.0000 0.11000  0.05510  0.36260  Biso   1.000  H
  C73      1.0000 0.72690  0.48892  0.98580  Biso   1.000  C
  C74      1.0000 0.77310  0.98892  0.51420  Biso   1.000  C
  C75      1.0000 0.27310  0.51108  0.01420  Biso   1.000  C
  C76      1.0000 0.22690  0.01108  0.48580  Biso   1.000  C
  H41      1.0000 0.78460  0.50780  0.92660  Biso   1.000  H
  H42      1.0000 0.71540  0.00780  0.57340  Biso   1.000  H
  H43      1.0000 0.21540  0.49220  0.07340  Biso   1.000  H
  H44      1.0000 0.28460  0.99220  0.42660  Biso   1.000  H
  C77      1.0000 0.74480  0.49790  0.11190  Biso   1.000  C
  C78      1.0000 0.75520  0.99790  0.38810  Biso   1.000  C
  C79      1.0000 0.25520  0.50210  0.88810  Biso   1.000  C
  C80      1.0000 0.24480  0.00210  0.61190  Biso   1.000  C
  C81      1.0000 0.84890  0.53714  0.16330  Biso   1.000  C
  C82      1.0000 0.65110  0.03714  0.33670  Biso   1.000  C
  C83      1.0000 0.15110  0.46286  0.83670  Biso   1.000  C
  C84      1.0000 0.34890  0.96286  0.66330  Biso   1.000  C
  C85      1.0000 0.92440  0.57182  0.09110  Biso   1.000  C
  C86      1.0000 0.57560  0.07182  0.40890  Biso   1.000  C
  C87      1.0000 0.07560  0.42818  0.90890  Biso   1.000  C
  C88      1.0000 0.42440  0.92818  0.59110  Biso   1.000  C
  H45      1.0000 0.90530  0.57270  0.00410  Biso   1.000  H
  H46      1.0000 0.59470  0.07270  0.49590  Biso   1.000  H
  H47      1.0000 0.09470  0.42730  0.99590  Biso   1.000  H
  H48      1.0000 0.40530  0.92730  0.50410  Biso   1.000  H
  C89      1.0000 0.02760  0.60501  0.14830  Biso   1.000  C
  C90      1.0000 0.47240  0.10501  0.35170  Biso   1.000  C
  C91      1.0000 0.97240  0.39499  0.85170  Biso   1.000  C
  C92      1.0000 0.52760  0.89499  0.64830  Biso   1.000  C
  H49      1.0000 0.08100  0.62900  0.10100  Biso   1.000  H
  H50      1.0000 0.41900  0.12900  0.39900  Biso   1.000  H
  H51      1.0000 0.91900  0.37100  0.89900  Biso   1.000  H
  H52      1.0000 0.58100  0.87100  0.60100  Biso   1.000  H
  C93      1.0000 0.05230  0.60290  0.27550  Biso   1.000  C
  C94      1.0000 0.44770  0.10290  0.22450  Biso   1.000  C
  C95      1.0000 0.94770  0.39710  0.72450  Biso   1.000  C
  C96      1.0000 0.55230  0.89710  0.77550  Biso   1.000  C
  H53      1.0000 0.12720  0.62450  0.31590  Biso   1.000  H
  H54      1.0000 0.37280  0.12450  0.18410  Biso   1.000  H
  H55      1.0000 0.87280  0.37550  0.68410  Biso   1.000  H
  H56      1.0000 0.62720  0.87550  0.81590  Biso   1.000  H
  C97      1.0000 0.96720  0.56917  0.34260  Biso   1.000  C
  C98      1.0000 0.53280  0.06917  0.15740  Biso   1.000  C
  C99      1.0000 0.03280  0.43083  0.65740  Biso   1.000  C
  C100     1.0000 0.46720  0.93083  0.84260  Biso   1.000  C
  H57      1.0000 0.97990  0.56880  0.43020  Biso   1.000  H
  H58      1.0000 0.52010  0.06880  0.06980  Biso   1.000  H
  H59      1.0000 0.02010  0.43120  0.56980  Biso   1.000  H
  H60      1.0000 0.47990  0.93120  0.93020  Biso   1.000  H
  C101     1.0000 0.02820  0.07275  0.04430  Biso   1.000  C
  C102     1.0000 0.47180  0.57275  0.45570  Biso   1.000  C
  C103     1.0000 0.97180  0.92725  0.95570  Biso   1.000  C
  C104     1.0000 0.52820  0.42725  0.54430  Biso   1.000  C
  C105     1.0000 0.92330  0.29874  0.10620  Biso   1.000  C
  C106     1.0000 0.57670  0.79874  0.39380  Biso   1.000  C
  C107     1.0000 0.07670  0.70126  0.89380  Biso   1.000  C
  C108     1.0000 0.42330  0.20126  0.60620  Biso   1.000  C
  H61      1.0000 0.97040  0.27850  0.04540  Biso   1.000  H
  H62      1.0000 0.52960  0.77850  0.45460  Biso   1.000  H
  H63      1.0000 0.02960  0.72150  0.95460  Biso   1.000  H
  H64      1.0000 0.47040  0.22150  0.54540  Biso   1.000  H
  Cu1      1.0000 0.73162  0.48653  0.37352  Biso   1.000  Cu
  Cu2      1.0000 0.76838  0.98653  0.12648  Biso   1.000  Cu
  Cu3      1.0000 0.26838  0.51347  0.62648  Biso   1.000  Cu
  Cu4      1.0000 0.23162  0.01347  0.87352  Biso   1.000  Cu
  F1       1.0000 0.37729  0.27349  0.17872  Biso   1.000  F
  F2       1.0000 0.12271  0.77349  0.32128  Biso   1.000  F
  F3       1.0000 0.62271  0.72651  0.82128  Biso   1.000  F
  F4       1.0000 0.87729  0.22651  0.67872  Biso   1.000  F
  F5       1.0000 0.40323  0.20198  0.11881  Biso   1.000  F
  F6       1.0000 0.09677  0.70198  0.38119  Biso   1.000  F
  F7       1.0000 0.59677  0.79802  0.88119  Biso   1.000  F
  F8       1.0000 0.90323  0.29802  0.61881  Biso   1.000  F
  F9       1.0000 0.53342  0.22494  0.28508  Biso   1.000  F
  F10      1.0000 0.96658  0.72494  0.21492  Biso   1.000  F
  F11      1.0000 0.46658  0.77506  0.71492  Biso   1.000  F
  F12      1.0000 0.03342  0.27506  0.78508  Biso   1.000  F
  F13      1.0000 0.51446  0.31446  0.98585  Biso   1.000  F
  F14      1.0000 0.98554  0.81446  0.51415  Biso   1.000  F
  F15      1.0000 0.48554  0.68554  0.01415  Biso   1.000  F
  F16      1.0000 0.01446  0.18554  0.48585  Biso   1.000  F
  F17      1.0000 0.71229  0.27788  0.88833  Biso   1.000  F
  F18      1.0000 0.78771  0.77788  0.61167  Biso   1.000  F
  F19      1.0000 0.28771  0.72212  0.11167  Biso   1.000  F
  F20      1.0000 0.21229  0.22212  0.38833  Biso   1.000  F
  F21      1.0000 0.46531  0.24532  0.91314  Biso   1.000  F
  F22      1.0000 0.03469  0.74532  0.58686  Biso   1.000  F
  F23      1.0000 0.53469  0.75468  0.08686  Biso   1.000  F
  F24      1.0000 0.96531  0.25468  0.41314  Biso   1.000  F
  N1       1.0000 0.86620  0.53668  0.28767  Biso   1.000  N
  N2       1.0000 0.63380  0.03668  0.21233  Biso   1.000  N
  N3       1.0000 0.13380  0.46332  0.71233  Biso   1.000  N
  N4       1.0000 0.36620  0.96332  0.78767  Biso   1.000  N
  N5       1.0000 0.66730  0.47104  0.19793  Biso   1.000  N
  N6       1.0000 0.83270  0.97104  0.30207  Biso   1.000  N
  N7       1.0000 0.33270  0.52896  0.80207  Biso   1.000  N
  N8       1.0000 0.16730  0.02896  0.69793  Biso   1.000  N
  O1       1.0000 0.98330  0.43662  0.36171  Biso   1.000  O
  O2       1.0000 0.51670  0.93662  0.13829  Biso   1.000  O
  O3       1.0000 0.01670  0.56338  0.63829  Biso   1.000  O
  O4       1.0000 0.48330  0.06338  0.86171  Biso   1.000  O
  O5       1.0000 0.17010  0.42456  0.20804  Biso   1.000  O
  O6       1.0000 0.32990  0.92456  0.29196  Biso   1.000  O
  O7       1.0000 0.82990  0.57544  0.79196  Biso   1.000  O
  O8       1.0000 0.67010  0.07544  0.70804  Biso   1.000  O
  O9       1.0000 0.77940  0.50915  0.54036  Biso   1.000  O
  O10      1.0000 0.72060  0.00915  0.95964  Biso   1.000  O
  O11      1.0000 0.22060  0.49085  0.45964  Biso   1.000  O
  O12      1.0000 0.27940  0.99085  0.04036  Biso   1.000  O
  H65      1.0000 0.71330  0.49580  0.59040  Biso   1.000  H
  H66      1.0000 0.78670  0.99580  0.90960  Biso   1.000  H
  H67      1.0000 0.28670  0.50420  0.40960  Biso   1.000  H
  H68      1.0000 0.21330  0.00420  0.09040  Biso   1.000  H
  H69      1.0000 0.85280  0.52780  0.57910  Biso   1.000  H
  H70      1.0000 0.64720  0.02780  0.92090  Biso   1.000  H
  H71      1.0000 0.14720  0.47220  0.42090  Biso   1.000  H
  H72      1.0000 0.35280  0.97220  0.07910  Biso   1.000  H
  O13      1.0000 0.08240  0.06310  0.93588  Biso   1.000  O
  O14      1.0000 0.41760  0.56310  0.56412  Biso   1.000  O
  O15      1.0000 0.91760  0.93690  0.06412  Biso   1.000  O
  O16      1.0000 0.58240  0.43690  0.43588  Biso   1.000  O
  O17      1.0000 0.04830  0.04797  0.13894  Biso   1.000  O
  O18      1.0000 0.45170  0.54797  0.36106  Biso   1.000  O
  O19      1.0000 0.95170  0.95203  0.86106  Biso   1.000  O
  O20      1.0000 0.54830  0.45203  0.63894  Biso   1.000  O
