data_image0
_cell_length_a       16.389
_cell_length_b       13.157
_cell_length_c       26.553
_cell_angle_alpha    90
_cell_angle_beta     90
_cell_angle_gamma    90

_symmetry_space_group_name_H-M    "P 1"
_symmetry_int_tables_number       1

loop_
  _symmetry_equiv_pos_as_xyz
  'x, y, z'

loop_
  _atom_site_label
  _atom_site_occupancy
  _atom_site_fract_x
  _atom_site_fract_y
  _atom_site_fract_z
  _atom_site_thermal_displace_type
  _atom_site_B_iso_or_equiv
  _atom_site_type_symbol
  C1       1.0000 0.16880  0.85530  0.04430  Biso   1.000  C
  C2       1.0000 0.33120  0.64470  0.54430  Biso   1.000  C
  C3       1.0000 0.83120  0.85530  0.45570  Biso   1.000  C
  C4       1.0000 0.66880  0.64470  0.95570  Biso   1.000  C
  C5       1.0000 0.83120  0.14470  0.95570  Biso   1.000  C
  C6       1.0000 0.66880  0.35530  0.45570  Biso   1.000  C
  C7       1.0000 0.16880  0.14470  0.54430  Biso   1.000  C
  C8       1.0000 0.33120  0.35530  0.04430  Biso   1.000  C
  H1       1.0000 0.19760  0.83450  0.07260  Biso   1.000  H
  H2       1.0000 0.30240  0.66550  0.57260  Biso   1.000  H
  H3       1.0000 0.80240  0.83450  0.42740  Biso   1.000  H
  H4       1.0000 0.69760  0.66550  0.92740  Biso   1.000  H
  H5       1.0000 0.80240  0.16550  0.92740  Biso   1.000  H
  H6       1.0000 0.69760  0.33450  0.42740  Biso   1.000  H
  H7       1.0000 0.19760  0.16550  0.57260  Biso   1.000  H
  H8       1.0000 0.30240  0.33450  0.07260  Biso   1.000  H
  C9       1.0000 0.13580  0.78140  0.01220  Biso   1.000  C
  C10      1.0000 0.36420  0.71860  0.51220  Biso   1.000  C
  C11      1.0000 0.86420  0.78140  0.48780  Biso   1.000  C
  C12      1.0000 0.63580  0.71860  0.98780  Biso   1.000  C
  C13      1.0000 0.86420  0.21860  0.98780  Biso   1.000  C
  C14      1.0000 0.63580  0.28140  0.48780  Biso   1.000  C
  C15      1.0000 0.13580  0.21860  0.51220  Biso   1.000  C
  C16      1.0000 0.36420  0.28140  0.01220  Biso   1.000  C
  H9       1.0000 0.14280  0.71270  0.01920  Biso   1.000  H
  H10      1.0000 0.35720  0.78730  0.51920  Biso   1.000  H
  H11      1.0000 0.85720  0.71270  0.48080  Biso   1.000  H
  H12      1.0000 0.64280  0.78730  0.98080  Biso   1.000  H
  H13      1.0000 0.85720  0.28730  0.98080  Biso   1.000  H
  H14      1.0000 0.64280  0.21270  0.48080  Biso   1.000  H
  H15      1.0000 0.14280  0.28730  0.51920  Biso   1.000  H
  H16      1.0000 0.35720  0.21270  0.01920  Biso   1.000  H
  C17      1.0000 0.09320  0.81130  0.97060  Biso   1.000  C
  C18      1.0000 0.40680  0.68870  0.47060  Biso   1.000  C
  C19      1.0000 0.90680  0.81130  0.52940  Biso   1.000  C
  C20      1.0000 0.59320  0.68870  0.02940  Biso   1.000  C
  C21      1.0000 0.90680  0.18870  0.02940  Biso   1.000  C
  C22      1.0000 0.59320  0.31130  0.52940  Biso   1.000  C
  C23      1.0000 0.09320  0.18870  0.47060  Biso   1.000  C
  C24      1.0000 0.40680  0.31130  0.97060  Biso   1.000  C
  H17      1.0000 0.07080  0.76270  0.94930  Biso   1.000  H
  H18      1.0000 0.42920  0.73730  0.44930  Biso   1.000  H
  H19      1.0000 0.92920  0.76270  0.55070  Biso   1.000  H
  H20      1.0000 0.57080  0.73730  0.05070  Biso   1.000  H
  H21      1.0000 0.92920  0.23730  0.05070  Biso   1.000  H
  H22      1.0000 0.57080  0.26270  0.55070  Biso   1.000  H
  H23      1.0000 0.07080  0.23730  0.44930  Biso   1.000  H
  H24      1.0000 0.42920  0.26270  0.94930  Biso   1.000  H
  C25      1.0000 0.08310  0.91370  0.95985  Biso   1.000  C
  C26      1.0000 0.41690  0.58630  0.45985  Biso   1.000  C
  C27      1.0000 0.91690  0.91370  0.54015  Biso   1.000  C
  C28      1.0000 0.58310  0.58630  0.04015  Biso   1.000  C
  C29      1.0000 0.91690  0.08630  0.04015  Biso   1.000  C
  C30      1.0000 0.58310  0.41370  0.54015  Biso   1.000  C
  C31      1.0000 0.08310  0.08630  0.45985  Biso   1.000  C
  C32      1.0000 0.41690  0.41370  0.95985  Biso   1.000  C
  C33      1.0000 0.11770  0.98290  0.99367  Biso   1.000  C
  C34      1.0000 0.38230  0.51710  0.49367  Biso   1.000  C
  C35      1.0000 0.88230  0.98290  0.50633  Biso   1.000  C
  C36      1.0000 0.61770  0.51710  0.00633  Biso   1.000  C
  C37      1.0000 0.88230  0.01710  0.00633  Biso   1.000  C
  C38      1.0000 0.61770  0.48290  0.50633  Biso   1.000  C
  C39      1.0000 0.11770  0.01710  0.49367  Biso   1.000  C
  C40      1.0000 0.38230  0.48290  0.99367  Biso   1.000  C
  C41      1.0000 0.03850  0.95350  0.91740  Biso   1.000  C
  C42      1.0000 0.46150  0.54650  0.41740  Biso   1.000  C
  C43      1.0000 0.96150  0.95350  0.58260  Biso   1.000  C
  C44      1.0000 0.53850  0.54650  0.08260  Biso   1.000  C
  C45      1.0000 0.96150  0.04650  0.08260  Biso   1.000  C
  C46      1.0000 0.53850  0.45350  0.58260  Biso   1.000  C
  C47      1.0000 0.03850  0.04650  0.41740  Biso   1.000  C
  C48      1.0000 0.46150  0.45350  0.91740  Biso   1.000  C
  H25      1.0000 0.01460  0.90880  0.89460  Biso   1.000  H
  H26      1.0000 0.48540  0.59120  0.39460  Biso   1.000  H
  H27      1.0000 0.98540  0.90880  0.60540  Biso   1.000  H
  H28      1.0000 0.51460  0.59120  0.10540  Biso   1.000  H
  H29      1.0000 0.98540  0.09120  0.10540  Biso   1.000  H
  H30      1.0000 0.51460  0.40880  0.60540  Biso   1.000  H
  H31      1.0000 0.01460  0.09120  0.39460  Biso   1.000  H
  H32      1.0000 0.48540  0.40880  0.89460  Biso   1.000  H
  C49      1.0000 0.03100  0.05410  0.91030  Biso   1.000  C
  C50      1.0000 0.46900  0.44590  0.41030  Biso   1.000  C
  C51      1.0000 0.96900  0.05410  0.58970  Biso   1.000  C
  C52      1.0000 0.53100  0.44590  0.08970  Biso   1.000  C
  C53      1.0000 0.96900  0.94590  0.08970  Biso   1.000  C
  C54      1.0000 0.53100  0.55410  0.58970  Biso   1.000  C
  C55      1.0000 0.03100  0.94590  0.41030  Biso   1.000  C
  C56      1.0000 0.46900  0.55410  0.91030  Biso   1.000  C
  H33      1.0000 0.00180  0.07760  0.88260  Biso   1.000  H
  H34      1.0000 0.49820  0.42240  0.38260  Biso   1.000  H
  H35      1.0000 0.99820  0.07760  0.61740  Biso   1.000  H
  H36      1.0000 0.50180  0.42240  0.11740  Biso   1.000  H
  H37      1.0000 0.99820  0.92240  0.11740  Biso   1.000  H
  H38      1.0000 0.50180  0.57760  0.61740  Biso   1.000  H
  H39      1.0000 0.00180  0.92240  0.38260  Biso   1.000  H
  H40      1.0000 0.49820  0.57760  0.88260  Biso   1.000  H
  C57      1.0000 0.06630  0.12550  0.94356  Biso   1.000  C
  C58      1.0000 0.43370  0.37450  0.44356  Biso   1.000  C
  C59      1.0000 0.93370  0.12550  0.55644  Biso   1.000  C
  C60      1.0000 0.56630  0.37450  0.05644  Biso   1.000  C
  C61      1.0000 0.93370  0.87450  0.05644  Biso   1.000  C
  C62      1.0000 0.56630  0.62550  0.55644  Biso   1.000  C
  C63      1.0000 0.06630  0.87450  0.44356  Biso   1.000  C
  C64      1.0000 0.43370  0.62550  0.94356  Biso   1.000  C
  C65      1.0000 0.10890  0.08940  0.98570  Biso   1.000  C
  C66      1.0000 0.39110  0.41060  0.48570  Biso   1.000  C
  C67      1.0000 0.89110  0.08940  0.51430  Biso   1.000  C
  C68      1.0000 0.60890  0.41060  0.01430  Biso   1.000  C
  C69      1.0000 0.89110  0.91060  0.01430  Biso   1.000  C
  C70      1.0000 0.60890  0.58940  0.51430  Biso   1.000  C
  C71      1.0000 0.10890  0.91060  0.48570  Biso   1.000  C
  C72      1.0000 0.39110  0.58940  0.98570  Biso   1.000  C
  C73      1.0000 0.06310  0.23280  0.93840  Biso   1.000  C
  C74      1.0000 0.43690  0.26720  0.43840  Biso   1.000  C
  C75      1.0000 0.93690  0.23280  0.56160  Biso   1.000  C
  C76      1.0000 0.56310  0.26720  0.06160  Biso   1.000  C
  C77      1.0000 0.93690  0.76720  0.06160  Biso   1.000  C
  C78      1.0000 0.56310  0.73280  0.56160  Biso   1.000  C
  C79      1.0000 0.06310  0.76720  0.43840  Biso   1.000  C
  C80      1.0000 0.43690  0.73280  0.93840  Biso   1.000  C
  H41      1.0000 0.03630  0.26150  0.91100  Biso   1.000  H
  H42      1.0000 0.46370  0.23850  0.41100  Biso   1.000  H
  H43      1.0000 0.96370  0.26150  0.58900  Biso   1.000  H
  H44      1.0000 0.53630  0.23850  0.08900  Biso   1.000  H
  H45      1.0000 0.96370  0.73850  0.08900  Biso   1.000  H
  H46      1.0000 0.53630  0.76150  0.58900  Biso   1.000  H
  H47      1.0000 0.03630  0.73850  0.41100  Biso   1.000  H
  H48      1.0000 0.46370  0.76150  0.91100  Biso   1.000  H
  C81      1.0000 0.09890  0.29400  0.97320  Biso   1.000  C
  C82      1.0000 0.40110  0.20600  0.47320  Biso   1.000  C
  C83      1.0000 0.90110  0.29400  0.52680  Biso   1.000  C
  C84      1.0000 0.59890  0.20600  0.02680  Biso   1.000  C
  C85      1.0000 0.90110  0.70600  0.02680  Biso   1.000  C
  C86      1.0000 0.59890  0.79400  0.52680  Biso   1.000  C
  C87      1.0000 0.09890  0.70600  0.47320  Biso   1.000  C
  C88      1.0000 0.40110  0.79400  0.97320  Biso   1.000  C
  H49      1.0000 0.09750  0.36420  0.96930  Biso   1.000  H
  H50      1.0000 0.40250  0.13580  0.46930  Biso   1.000  H
  H51      1.0000 0.90250  0.36420  0.53070  Biso   1.000  H
  H52      1.0000 0.59750  0.13580  0.03070  Biso   1.000  H
  H53      1.0000 0.90250  0.63580  0.03070  Biso   1.000  H
  H54      1.0000 0.59750  0.86420  0.53070  Biso   1.000  H
  H55      1.0000 0.09750  0.63580  0.46930  Biso   1.000  H
  H56      1.0000 0.40250  0.86420  0.96930  Biso   1.000  H
  C89      1.0000 0.13740  0.25130  0.01450  Biso   1.000  C
  C90      1.0000 0.36260  0.24870  0.51450  Biso   1.000  C
  C91      1.0000 0.86260  0.25130  0.48550  Biso   1.000  C
  C92      1.0000 0.63740  0.24870  0.98550  Biso   1.000  C
  C93      1.0000 0.86260  0.74870  0.98550  Biso   1.000  C
  C94      1.0000 0.63740  0.75130  0.48550  Biso   1.000  C
  C95      1.0000 0.13740  0.74870  0.51450  Biso   1.000  C
  C96      1.0000 0.36260  0.75130  0.01450  Biso   1.000  C
  H57      1.0000 0.15980  0.29400  0.03870  Biso   1.000  H
  H58      1.0000 0.34020  0.20600  0.53870  Biso   1.000  H
  H59      1.0000 0.84020  0.29400  0.46130  Biso   1.000  H
  H60      1.0000 0.65980  0.20600  0.96130  Biso   1.000  H
  H61      1.0000 0.84020  0.70600  0.96130  Biso   1.000  H
  H62      1.0000 0.65980  0.79400  0.46130  Biso   1.000  H
  H63      1.0000 0.15980  0.70600  0.53870  Biso   1.000  H
  H64      1.0000 0.34020  0.79400  0.03870  Biso   1.000  H
  C97      1.0000 0.85510  0.50500  0.42206  Biso   1.000  C
  C98      1.0000 0.64490  0.99500  0.92206  Biso   1.000  C
  C99      1.0000 0.14490  0.50500  0.07794  Biso   1.000  C
  C100     1.0000 0.35510  0.99500  0.57794  Biso   1.000  C
  C101     1.0000 0.14490  0.49500  0.57794  Biso   1.000  C
  C102     1.0000 0.35510  0.00500  0.07794  Biso   1.000  C
  C103     1.0000 0.85510  0.49500  0.92206  Biso   1.000  C
  C104     1.0000 0.64490  0.00500  0.42206  Biso   1.000  C
  C105     1.0000 0.93630  0.47700  0.39851  Biso   1.000  C
  C106     1.0000 0.56370  0.02300  0.89851  Biso   1.000  C
  C107     1.0000 0.06370  0.47700  0.10149  Biso   1.000  C
  C108     1.0000 0.43630  0.02300  0.60149  Biso   1.000  C
  C109     1.0000 0.06370  0.52300  0.60149  Biso   1.000  C
  C110     1.0000 0.43630  0.97700  0.10149  Biso   1.000  C
  C111     1.0000 0.93630  0.52300  0.89851  Biso   1.000  C
  C112     1.0000 0.56370  0.97700  0.39851  Biso   1.000  C
  C113     1.0000 0.94710  0.47540  0.34641  Biso   1.000  C
  C114     1.0000 0.55290  0.02460  0.84641  Biso   1.000  C
  C115     1.0000 0.05290  0.47540  0.15359  Biso   1.000  C
  C116     1.0000 0.44710  0.02460  0.65359  Biso   1.000  C
  C117     1.0000 0.05290  0.52460  0.65359  Biso   1.000  C
  C118     1.0000 0.44710  0.97540  0.15359  Biso   1.000  C
  C119     1.0000 0.94710  0.52460  0.84641  Biso   1.000  C
  C120     1.0000 0.55290  0.97540  0.34641  Biso   1.000  C
  H65      1.0000 0.90280  0.48580  0.32510  Biso   1.000  H
  H66      1.0000 0.59720  0.01420  0.82510  Biso   1.000  H
  H67      1.0000 0.09720  0.48580  0.17490  Biso   1.000  H
  H68      1.0000 0.40280  0.01420  0.67490  Biso   1.000  H
  H69      1.0000 0.09720  0.51420  0.67490  Biso   1.000  H
  H70      1.0000 0.40280  0.98580  0.17490  Biso   1.000  H
  H71      1.0000 0.90280  0.51420  0.82510  Biso   1.000  H
  H72      1.0000 0.59720  0.98580  0.32510  Biso   1.000  H
  C121     1.0000 0.02300  0.45870  0.32666  Biso   1.000  C
  C122     1.0000 0.47700  0.04130  0.82666  Biso   1.000  C
  C123     1.0000 0.97700  0.45870  0.17334  Biso   1.000  C
  C124     1.0000 0.52300  0.04130  0.67334  Biso   1.000  C
  C125     1.0000 0.97700  0.54130  0.67334  Biso   1.000  C
  C126     1.0000 0.52300  0.95870  0.17334  Biso   1.000  C
  C127     1.0000 0.02300  0.54130  0.82666  Biso   1.000  C
  C128     1.0000 0.47700  0.95870  0.32666  Biso   1.000  C
  H73      1.0000 0.02930  0.45910  0.29190  Biso   1.000  H
  H74      1.0000 0.47070  0.04090  0.79190  Biso   1.000  H
  H75      1.0000 0.97070  0.45910  0.20810  Biso   1.000  H
  H76      1.0000 0.52930  0.04090  0.70810  Biso   1.000  H
  H77      1.0000 0.97070  0.54090  0.70810  Biso   1.000  H
  H78      1.0000 0.52930  0.95910  0.20810  Biso   1.000  H
  H79      1.0000 0.02930  0.54090  0.79190  Biso   1.000  H
  H80      1.0000 0.47070  0.95910  0.29190  Biso   1.000  H
  C129     1.0000 0.09090  0.44120  0.35679  Biso   1.000  C
  C130     1.0000 0.40910  0.05880  0.85679  Biso   1.000  C
  C131     1.0000 0.90910  0.44120  0.14321  Biso   1.000  C
  C132     1.0000 0.59090  0.05880  0.64321  Biso   1.000  C
  C133     1.0000 0.90910  0.55880  0.64321  Biso   1.000  C
  C134     1.0000 0.59090  0.94120  0.14321  Biso   1.000  C
  C135     1.0000 0.09090  0.55880  0.85679  Biso   1.000  C
  C136     1.0000 0.40910  0.94120  0.35679  Biso   1.000  C
  C137     1.0000 0.07890  0.44140  0.40871  Biso   1.000  C
  C138     1.0000 0.42110  0.05860  0.90871  Biso   1.000  C
  C139     1.0000 0.92110  0.44140  0.09129  Biso   1.000  C
  C140     1.0000 0.57890  0.05860  0.59129  Biso   1.000  C
  C141     1.0000 0.92110  0.55860  0.59129  Biso   1.000  C
  C142     1.0000 0.57890  0.94140  0.09129  Biso   1.000  C
  C143     1.0000 0.07890  0.55860  0.90871  Biso   1.000  C
  C144     1.0000 0.42110  0.94140  0.40871  Biso   1.000  C
  H81      1.0000 0.12270  0.43000  0.43020  Biso   1.000  H
  H82      1.0000 0.37730  0.07000  0.93020  Biso   1.000  H
  H83      1.0000 0.87730  0.43000  0.06980  Biso   1.000  H
  H84      1.0000 0.62270  0.07000  0.56980  Biso   1.000  H
  H85      1.0000 0.87730  0.57000  0.56980  Biso   1.000  H
  H86      1.0000 0.62270  0.93000  0.06980  Biso   1.000  H
  H87      1.0000 0.12270  0.57000  0.93020  Biso   1.000  H
  H88      1.0000 0.37730  0.93000  0.43020  Biso   1.000  H
  C145     1.0000 0.00250  0.45830  0.42832  Biso   1.000  C
  C146     1.0000 0.49750  0.04170  0.92832  Biso   1.000  C
  C147     1.0000 0.99750  0.45830  0.07168  Biso   1.000  C
  C148     1.0000 0.50250  0.04170  0.57168  Biso   1.000  C
  C149     1.0000 0.99750  0.54170  0.57168  Biso   1.000  C
  C150     1.0000 0.50250  0.95830  0.07168  Biso   1.000  C
  C151     1.0000 0.00250  0.54170  0.92832  Biso   1.000  C
  C152     1.0000 0.49750  0.95830  0.42832  Biso   1.000  C
  H89      1.0000 0.99570  0.45700  0.46310  Biso   1.000  H
  H90      1.0000 0.50430  0.04300  0.96310  Biso   1.000  H
  H91      1.0000 0.00430  0.45700  0.03690  Biso   1.000  H
  H92      1.0000 0.49570  0.04300  0.53690  Biso   1.000  H
  H93      1.0000 0.00430  0.54300  0.53690  Biso   1.000  H
  H94      1.0000 0.49570  0.95700  0.03690  Biso   1.000  H
  H95      1.0000 0.99570  0.54300  0.96310  Biso   1.000  H
  H96      1.0000 0.50430  0.95700  0.46310  Biso   1.000  H
  C153     1.0000 0.17550  0.43030  0.33201  Biso   1.000  C
  C154     1.0000 0.32450  0.06970  0.83201  Biso   1.000  C
  C155     1.0000 0.82450  0.43030  0.16799  Biso   1.000  C
  C156     1.0000 0.67550  0.06970  0.66799  Biso   1.000  C
  C157     1.0000 0.82450  0.56970  0.66799  Biso   1.000  C
  C158     1.0000 0.67550  0.93030  0.16799  Biso   1.000  C
  C159     1.0000 0.17550  0.56970  0.83201  Biso   1.000  C
  C160     1.0000 0.32450  0.93030  0.33201  Biso   1.000  C
  C161     1.0000 0.17280  0.36870  0.28279  Biso   1.000  C
  C162     1.0000 0.32720  0.13130  0.78279  Biso   1.000  C
  C163     1.0000 0.82720  0.36870  0.21721  Biso   1.000  C
  C164     1.0000 0.67280  0.13130  0.71721  Biso   1.000  C
  C165     1.0000 0.82720  0.63130  0.71721  Biso   1.000  C
  C166     1.0000 0.67280  0.86870  0.21721  Biso   1.000  C
  C167     1.0000 0.17280  0.63130  0.78279  Biso   1.000  C
  C168     1.0000 0.32720  0.86870  0.28279  Biso   1.000  C
  C169     1.0000 0.22030  0.39080  0.24115  Biso   1.000  C
  C170     1.0000 0.27970  0.10920  0.74115  Biso   1.000  C
  C171     1.0000 0.77970  0.39080  0.25885  Biso   1.000  C
  C172     1.0000 0.72030  0.10920  0.75885  Biso   1.000  C
  C173     1.0000 0.77970  0.60920  0.75885  Biso   1.000  C
  C174     1.0000 0.72030  0.89080  0.25885  Biso   1.000  C
  C175     1.0000 0.22030  0.60920  0.74115  Biso   1.000  C
  C176     1.0000 0.27970  0.89080  0.24115  Biso   1.000  C
  H97      1.0000 0.25320  0.44850  0.24150  Biso   1.000  H
  H98      1.0000 0.24680  0.05150  0.74150  Biso   1.000  H
  H99      1.0000 0.74680  0.44850  0.25850  Biso   1.000  H
  H100     1.0000 0.75320  0.05150  0.75850  Biso   1.000  H
  H101     1.0000 0.74680  0.55150  0.75850  Biso   1.000  H
  H102     1.0000 0.75320  0.94850  0.25850  Biso   1.000  H
  H103     1.0000 0.25320  0.55150  0.74150  Biso   1.000  H
  H104     1.0000 0.24680  0.94850  0.24150  Biso   1.000  H
  C177     1.0000 0.22000  0.32940  0.19909  Biso   1.000  C
  C178     1.0000 0.28000  0.17060  0.69909  Biso   1.000  C
  C179     1.0000 0.78000  0.32940  0.30091  Biso   1.000  C
  C180     1.0000 0.72000  0.17060  0.80091  Biso   1.000  C
  C181     1.0000 0.78000  0.67060  0.80091  Biso   1.000  C
  C182     1.0000 0.72000  0.82940  0.30091  Biso   1.000  C
  C183     1.0000 0.22000  0.67060  0.69909  Biso   1.000  C
  C184     1.0000 0.28000  0.82940  0.19909  Biso   1.000  C
  H105     1.0000 0.25270  0.34640  0.17170  Biso   1.000  H
  H106     1.0000 0.24730  0.15360  0.67170  Biso   1.000  H
  H107     1.0000 0.74730  0.34640  0.32830  Biso   1.000  H
  H108     1.0000 0.75270  0.15360  0.82830  Biso   1.000  H
  H109     1.0000 0.74730  0.65360  0.82830  Biso   1.000  H
  H110     1.0000 0.75270  0.84640  0.32830  Biso   1.000  H
  H111     1.0000 0.25270  0.65360  0.67170  Biso   1.000  H
  H112     1.0000 0.24730  0.84640  0.17170  Biso   1.000  H
  C185     1.0000 0.17210  0.24340  0.19687  Biso   1.000  C
  C186     1.0000 0.32790  0.25660  0.69687  Biso   1.000  C
  C187     1.0000 0.82790  0.24340  0.30313  Biso   1.000  C
  C188     1.0000 0.67210  0.25660  0.80313  Biso   1.000  C
  C189     1.0000 0.82790  0.75660  0.80313  Biso   1.000  C
  C190     1.0000 0.67210  0.74340  0.30313  Biso   1.000  C
  C191     1.0000 0.17210  0.75660  0.69687  Biso   1.000  C
  C192     1.0000 0.32790  0.74340  0.19687  Biso   1.000  C
  C193     1.0000 0.12410  0.22110  0.23796  Biso   1.000  C
  C194     1.0000 0.37590  0.27890  0.73796  Biso   1.000  C
  C195     1.0000 0.87590  0.22110  0.26204  Biso   1.000  C
  C196     1.0000 0.62410  0.27890  0.76204  Biso   1.000  C
  C197     1.0000 0.87590  0.77890  0.76204  Biso   1.000  C
  C198     1.0000 0.62410  0.72110  0.26204  Biso   1.000  C
  C199     1.0000 0.12410  0.77890  0.73796  Biso   1.000  C
  C200     1.0000 0.37590  0.72110  0.23796  Biso   1.000  C
  H113     1.0000 0.09080  0.16380  0.23720  Biso   1.000  H
  H114     1.0000 0.40920  0.33620  0.73720  Biso   1.000  H
  H115     1.0000 0.90920  0.16380  0.26280  Biso   1.000  H
  H116     1.0000 0.59080  0.33620  0.76280  Biso   1.000  H
  H117     1.0000 0.90920  0.83620  0.76280  Biso   1.000  H
  H118     1.0000 0.59080  0.66380  0.26280  Biso   1.000  H
  H119     1.0000 0.09080  0.83620  0.73720  Biso   1.000  H
  H120     1.0000 0.40920  0.66380  0.23720  Biso   1.000  H
  C201     1.0000 0.12450  0.28200  0.28006  Biso   1.000  C
  C202     1.0000 0.37550  0.21800  0.78006  Biso   1.000  C
  C203     1.0000 0.87550  0.28200  0.21994  Biso   1.000  C
  C204     1.0000 0.62450  0.21800  0.71994  Biso   1.000  C
  C205     1.0000 0.87550  0.71800  0.71994  Biso   1.000  C
  C206     1.0000 0.62450  0.78200  0.21994  Biso   1.000  C
  C207     1.0000 0.12450  0.71800  0.78006  Biso   1.000  C
  C208     1.0000 0.37550  0.78200  0.28006  Biso   1.000  C
  H121     1.0000 0.09170  0.26480  0.30730  Biso   1.000  H
  H122     1.0000 0.40830  0.23520  0.80730  Biso   1.000  H
  H123     1.0000 0.90830  0.26480  0.19270  Biso   1.000  H
  H124     1.0000 0.59170  0.23520  0.69270  Biso   1.000  H
  H125     1.0000 0.90830  0.73520  0.69270  Biso   1.000  H
  H126     1.0000 0.59170  0.76480  0.19270  Biso   1.000  H
  H127     1.0000 0.09170  0.73520  0.80730  Biso   1.000  H
  H128     1.0000 0.40830  0.76480  0.30730  Biso   1.000  H
  C209     1.0000 0.20650  0.53990  0.32340  Biso   1.000  C
  C210     1.0000 0.29350  0.96010  0.82340  Biso   1.000  C
  C211     1.0000 0.79350  0.53990  0.17660  Biso   1.000  C
  C212     1.0000 0.70650  0.96010  0.67660  Biso   1.000  C
  C213     1.0000 0.79350  0.46010  0.67660  Biso   1.000  C
  C214     1.0000 0.70650  0.03990  0.17660  Biso   1.000  C
  C215     1.0000 0.20650  0.46010  0.82340  Biso   1.000  C
  C216     1.0000 0.29350  0.03990  0.32340  Biso   1.000  C
  C217     1.0000 0.23540  0.37360  0.36670  Biso   1.000  C
  C218     1.0000 0.26460  0.12640  0.86670  Biso   1.000  C
  C219     1.0000 0.76460  0.37360  0.13330  Biso   1.000  C
  C220     1.0000 0.73540  0.12640  0.63330  Biso   1.000  C
  C221     1.0000 0.76460  0.62640  0.63330  Biso   1.000  C
  C222     1.0000 0.73540  0.87360  0.13330  Biso   1.000  C
  C223     1.0000 0.23540  0.62640  0.86670  Biso   1.000  C
  C224     1.0000 0.26460  0.87360  0.36670  Biso   1.000  C
  C225     1.0000 0.17160  0.17290  0.15184  Biso   1.000  C
  C226     1.0000 0.32840  0.32710  0.65184  Biso   1.000  C
  C227     1.0000 0.82840  0.17290  0.34816  Biso   1.000  C
  C228     1.0000 0.67160  0.32710  0.84816  Biso   1.000  C
  C229     1.0000 0.82840  0.82710  0.84816  Biso   1.000  C
  C230     1.0000 0.67160  0.67290  0.34816  Biso   1.000  C
  C231     1.0000 0.17160  0.82710  0.65184  Biso   1.000  C
  C232     1.0000 0.32840  0.67290  0.15184  Biso   1.000  C
  Cu1      1.0000 0.20434  0.07325  0.07364  Biso   1.000  Cu
  Cu2      1.0000 0.29566  0.42675  0.57364  Biso   1.000  Cu
  Cu3      1.0000 0.79566  0.07325  0.42636  Biso   1.000  Cu
  Cu4      1.0000 0.70434  0.42675  0.92636  Biso   1.000  Cu
  Cu5      1.0000 0.79566  0.92675  0.92636  Biso   1.000  Cu
  Cu6      1.0000 0.70434  0.57325  0.42636  Biso   1.000  Cu
  Cu7      1.0000 0.20434  0.92675  0.57364  Biso   1.000  Cu
  Cu8      1.0000 0.29566  0.57325  0.07364  Biso   1.000  Cu
  F1       1.0000 0.16780  0.58470  0.28618  Biso   1.000  F
  F2       1.0000 0.33220  0.91530  0.78618  Biso   1.000  F
  F3       1.0000 0.83220  0.58470  0.21382  Biso   1.000  F
  F4       1.0000 0.66780  0.91530  0.71382  Biso   1.000  F
  F5       1.0000 0.83220  0.41530  0.71382  Biso   1.000  F
  F6       1.0000 0.66780  0.08470  0.21382  Biso   1.000  F
  F7       1.0000 0.16780  0.41530  0.78618  Biso   1.000  F
  F8       1.0000 0.33220  0.08470  0.28618  Biso   1.000  F
  F9       1.0000 0.28650  0.54290  0.31361  Biso   1.000  F
  F10      1.0000 0.21350  0.95710  0.81361  Biso   1.000  F
  F11      1.0000 0.71350  0.54290  0.18639  Biso   1.000  F
  F12      1.0000 0.78650  0.95710  0.68639  Biso   1.000  F
  F13      1.0000 0.71350  0.45710  0.68639  Biso   1.000  F
  F14      1.0000 0.78650  0.04290  0.18639  Biso   1.000  F
  F15      1.0000 0.28650  0.45710  0.81361  Biso   1.000  F
  F16      1.0000 0.21350  0.04290  0.31361  Biso   1.000  F
  F17      1.0000 0.19540  0.59690  0.36460  Biso   1.000  F
  F18      1.0000 0.30460  0.90310  0.86460  Biso   1.000  F
  F19      1.0000 0.80460  0.59690  0.13540  Biso   1.000  F
  F20      1.0000 0.69540  0.90310  0.63540  Biso   1.000  F
  F21      1.0000 0.80460  0.40310  0.63540  Biso   1.000  F
  F22      1.0000 0.69540  0.09690  0.13540  Biso   1.000  F
  F23      1.0000 0.19540  0.40310  0.86460  Biso   1.000  F
  F24      1.0000 0.30460  0.09690  0.36460  Biso   1.000  F
  F25      1.0000 0.25757  0.42900  0.40700  Biso   1.000  F
  F26      1.0000 0.24243  0.07100  0.90700  Biso   1.000  F
  F27      1.0000 0.74243  0.42900  0.09300  Biso   1.000  F
  F28      1.0000 0.75757  0.07100  0.59300  Biso   1.000  F
  F29      1.0000 0.74243  0.57100  0.59300  Biso   1.000  F
  F30      1.0000 0.75757  0.92900  0.09300  Biso   1.000  F
  F31      1.0000 0.25757  0.57100  0.90700  Biso   1.000  F
  F32      1.0000 0.24243  0.92900  0.40700  Biso   1.000  F
  F33      1.0000 0.30413  0.34810  0.34275  Biso   1.000  F
  F34      1.0000 0.19587  0.15190  0.84275  Biso   1.000  F
  F35      1.0000 0.69587  0.34810  0.15725  Biso   1.000  F
  F36      1.0000 0.80413  0.15190  0.65725  Biso   1.000  F
  F37      1.0000 0.69587  0.65190  0.65725  Biso   1.000  F
  F38      1.0000 0.80413  0.84810  0.15725  Biso   1.000  F
  F39      1.0000 0.30413  0.65190  0.84275  Biso   1.000  F
  F40      1.0000 0.19587  0.84810  0.34275  Biso   1.000  F
  F41      1.0000 0.20380  0.28670  0.38379  Biso   1.000  F
  F42      1.0000 0.29620  0.21330  0.88379  Biso   1.000  F
  F43      1.0000 0.79620  0.28670  0.11621  Biso   1.000  F
  F44      1.0000 0.70380  0.21330  0.61621  Biso   1.000  F
  F45      1.0000 0.79620  0.71330  0.61621  Biso   1.000  F
  F46      1.0000 0.70380  0.78670  0.11621  Biso   1.000  F
  F47      1.0000 0.20380  0.71330  0.88379  Biso   1.000  F
  F48      1.0000 0.29620  0.78670  0.38379  Biso   1.000  F
  N1       1.0000 0.16010  0.95430  0.03539  Biso   1.000  N
  N2       1.0000 0.33990  0.54570  0.53539  Biso   1.000  N
  N3       1.0000 0.83990  0.95430  0.46461  Biso   1.000  N
  N4       1.0000 0.66010  0.54570  0.96461  Biso   1.000  N
  N5       1.0000 0.83990  0.04570  0.96461  Biso   1.000  N
  N6       1.0000 0.66010  0.45430  0.46461  Biso   1.000  N
  N7       1.0000 0.16010  0.04570  0.53539  Biso   1.000  N
  N8       1.0000 0.33990  0.45430  0.03539  Biso   1.000  N
  N9       1.0000 0.14330  0.15110  0.02051  Biso   1.000  N
  N10      1.0000 0.35670  0.34890  0.52051  Biso   1.000  N
  N11      1.0000 0.85670  0.15110  0.47949  Biso   1.000  N
  N12      1.0000 0.64330  0.34890  0.97949  Biso   1.000  N
  N13      1.0000 0.85670  0.84890  0.97949  Biso   1.000  N
  N14      1.0000 0.64330  0.65110  0.47949  Biso   1.000  N
  N15      1.0000 0.14330  0.84890  0.52051  Biso   1.000  N
  N16      1.0000 0.35670  0.65110  0.02051  Biso   1.000  N
  O1       1.0000 0.79320  0.50120  0.39282  Biso   1.000  O
  O2       1.0000 0.70680  0.99880  0.89282  Biso   1.000  O
  O3       1.0000 0.20680  0.50120  0.10718  Biso   1.000  O
  O4       1.0000 0.29320  0.99880  0.60718  Biso   1.000  O
  O5       1.0000 0.20680  0.49880  0.60718  Biso   1.000  O
  O6       1.0000 0.29320  0.00120  0.10718  Biso   1.000  O
  O7       1.0000 0.79320  0.49880  0.89282  Biso   1.000  O
  O8       1.0000 0.70680  0.00120  0.39282  Biso   1.000  O
  O9       1.0000 0.85210  0.53020  0.46661  Biso   1.000  O
  O10      1.0000 0.64790  0.96980  0.96661  Biso   1.000  O
  O11      1.0000 0.14790  0.53020  0.03339  Biso   1.000  O
  O12      1.0000 0.35210  0.96980  0.53339  Biso   1.000  O
  O13      1.0000 0.14790  0.46980  0.53339  Biso   1.000  O
  O14      1.0000 0.35210  0.03020  0.03339  Biso   1.000  O
  O15      1.0000 0.85210  0.46980  0.96661  Biso   1.000  O
  O16      1.0000 0.64790  0.03020  0.46661  Biso   1.000  O
  O17      1.0000 0.22080  0.19450  0.11588  Biso   1.000  O
  O18      1.0000 0.27920  0.30550  0.61588  Biso   1.000  O
  O19      1.0000 0.77920  0.19450  0.38412  Biso   1.000  O
  O20      1.0000 0.72080  0.30550  0.88412  Biso   1.000  O
  O21      1.0000 0.77920  0.80550  0.88412  Biso   1.000  O
  O22      1.0000 0.72080  0.69450  0.38412  Biso   1.000  O
  O23      1.0000 0.22080  0.80550  0.61588  Biso   1.000  O
  O24      1.0000 0.27920  0.69450  0.11588  Biso   1.000  O
  O25      1.0000 0.12710  0.09760  0.15084  Biso   1.000  O
  O26      1.0000 0.37290  0.40240  0.65084  Biso   1.000  O
  O27      1.0000 0.87290  0.09760  0.34916  Biso   1.000  O
  O28      1.0000 0.62710  0.40240  0.84916  Biso   1.000  O
  O29      1.0000 0.87290  0.90240  0.84916  Biso   1.000  O
  O30      1.0000 0.62710  0.59760  0.34916  Biso   1.000  O
  O31      1.0000 0.12710  0.90240  0.65084  Biso   1.000  O
  O32      1.0000 0.37290  0.59760  0.15084  Biso   1.000  O
  N17      1.0000 0.50000  0.30100  0.25000  Biso   1.000  N
  N18      1.0000 0.00000  0.19900  0.75000  Biso   1.000  N
  N19      1.0000 0.50000  0.69900  0.75000  Biso   1.000  N
  N20      1.0000 0.00000  0.80100  0.25000  Biso   1.000  N
  O33      1.0000 0.56750  0.25870  0.32520  Biso   1.000  O
  O34      1.0000 0.93250  0.24130  0.82520  Biso   1.000  O
  O35      1.0000 0.43250  0.25870  0.17480  Biso   1.000  O
  O36      1.0000 0.06750  0.24130  0.67480  Biso   1.000  O
  O37      1.0000 0.43250  0.74130  0.67480  Biso   1.000  O
  O38      1.0000 0.06750  0.75870  0.17480  Biso   1.000  O
  O39      1.0000 0.56750  0.74130  0.82520  Biso   1.000  O
  O40      1.0000 0.93250  0.75870  0.32520  Biso   1.000  O
  C233     1.0000 0.52850  0.24250  0.28500  Biso   1.000  C
  C234     1.0000 0.97150  0.25750  0.78500  Biso   1.000  C
  C235     1.0000 0.47150  0.24250  0.21500  Biso   1.000  C
  C236     1.0000 0.02850  0.25750  0.71500  Biso   1.000  C
  C237     1.0000 0.47150  0.75750  0.71500  Biso   1.000  C
  C238     1.0000 0.02850  0.74250  0.21500  Biso   1.000  C
  C239     1.0000 0.52850  0.75750  0.78500  Biso   1.000  C
  C240     1.0000 0.97150  0.74250  0.28500  Biso   1.000  C
  C241     1.0000 0.53600  0.43860  0.24570  Biso   1.000  C
  C242     1.0000 0.96400  0.06140  0.74570  Biso   1.000  C
  C243     1.0000 0.46400  0.43860  0.25430  Biso   1.000  C
  C244     1.0000 0.03600  0.06140  0.75430  Biso   1.000  C
  C245     1.0000 0.46400  0.56140  0.75430  Biso   1.000  C
  C246     1.0000 0.03600  0.93860  0.25430  Biso   1.000  C
  C247     1.0000 0.53600  0.56140  0.74570  Biso   1.000  C
  C248     1.0000 0.96400  0.93860  0.24570  Biso   1.000  C
