data_image0
_cell_length_a       25.643
_cell_length_b       11.004
_cell_length_c       24.351
_cell_angle_alpha    90
_cell_angle_beta     115.518
_cell_angle_gamma    90

_symmetry_space_group_name_H-M    "P 1"
_symmetry_int_tables_number       1

loop_
  _symmetry_equiv_pos_as_xyz
  'x, y, z'

loop_
  _atom_site_label
  _atom_site_occupancy
  _atom_site_fract_x
  _atom_site_fract_y
  _atom_site_fract_z
  _atom_site_thermal_displace_type
  _atom_site_B_iso_or_equiv
  _atom_site_type_symbol
  C1       1.0000 0.43389  0.95210  0.38938  Biso   1.000  C
  C2       1.0000 0.56611  0.45210  0.11062  Biso   1.000  C
  C3       1.0000 0.56611  0.04790  0.61062  Biso   1.000  C
  C4       1.0000 0.43389  0.54790  0.88938  Biso   1.000  C
  C5       1.0000 0.39531  0.91380  0.32562  Biso   1.000  C
  C6       1.0000 0.60469  0.41380  0.17438  Biso   1.000  C
  C7       1.0000 0.60469  0.08620  0.67438  Biso   1.000  C
  C8       1.0000 0.39531  0.58620  0.82562  Biso   1.000  C
  C9       1.0000 0.34683  0.98110  0.28998  Biso   1.000  C
  C10      1.0000 0.65317  0.48110  0.21002  Biso   1.000  C
  C11      1.0000 0.65317  0.01890  0.71002  Biso   1.000  C
  C12      1.0000 0.34683  0.51890  0.78998  Biso   1.000  C
  H1       1.0000 0.33850  0.05180  0.30560  Biso   1.000  H
  H2       1.0000 0.66150  0.55180  0.19440  Biso   1.000  H
  H3       1.0000 0.66150  0.94820  0.69440  Biso   1.000  H
  H4       1.0000 0.33850  0.44820  0.80560  Biso   1.000  H
  C13      1.0000 0.31041  0.94470  0.23119  Biso   1.000  C
  C14      1.0000 0.68959  0.44470  0.26881  Biso   1.000  C
  C15      1.0000 0.68959  0.05530  0.76881  Biso   1.000  C
  C16      1.0000 0.31041  0.55530  0.73119  Biso   1.000  C
  H5       1.0000 0.27790  0.99080  0.20810  Biso   1.000  H
  H6       1.0000 0.72210  0.49080  0.29190  Biso   1.000  H
  H7       1.0000 0.72210  0.00920  0.79190  Biso   1.000  H
  H8       1.0000 0.27790  0.50920  0.70810  Biso   1.000  H
  C17      1.0000 0.32203  0.83960  0.20637  Biso   1.000  C
  C18      1.0000 0.67797  0.33960  0.29363  Biso   1.000  C
  C19      1.0000 0.67797  0.16040  0.79363  Biso   1.000  C
  C20      1.0000 0.32203  0.66040  0.70637  Biso   1.000  C
  C21      1.0000 0.37094  0.77180  0.24347  Biso   1.000  C
  C22      1.0000 0.62906  0.27180  0.25653  Biso   1.000  C
  C23      1.0000 0.62906  0.22820  0.75653  Biso   1.000  C
  C24      1.0000 0.37094  0.72820  0.74347  Biso   1.000  C
  H9       1.0000 0.37930  0.70040  0.22840  Biso   1.000  H
  H10      1.0000 0.62070  0.20040  0.27160  Biso   1.000  H
  H11      1.0000 0.62070  0.29960  0.77160  Biso   1.000  H
  H12      1.0000 0.37930  0.79960  0.72840  Biso   1.000  H
  C25      1.0000 0.40676  0.80830  0.30142  Biso   1.000  C
  C26      1.0000 0.59324  0.30830  0.19858  Biso   1.000  C
  C27      1.0000 0.59324  0.19170  0.69858  Biso   1.000  C
  C28      1.0000 0.40676  0.69170  0.80142  Biso   1.000  C
  H13      1.0000 0.43910  0.76190  0.32480  Biso   1.000  H
  H14      1.0000 0.56090  0.26190  0.17520  Biso   1.000  H
  H15      1.0000 0.56090  0.23810  0.67520  Biso   1.000  H
  H16      1.0000 0.43910  0.73810  0.82480  Biso   1.000  H
  C29      1.0000 0.28279  0.79080  0.14247  Biso   1.000  C
  C30      1.0000 0.71721  0.29080  0.35753  Biso   1.000  C
  C31      1.0000 0.71721  0.20920  0.85753  Biso   1.000  C
  C32      1.0000 0.28279  0.70920  0.64247  Biso   1.000  C
  C33      1.0000 0.31887  0.73270  0.11239  Biso   1.000  C
  C34      1.0000 0.68113  0.23270  0.38761  Biso   1.000  C
  C35      1.0000 0.68113  0.26730  0.88761  Biso   1.000  C
  C36      1.0000 0.31887  0.76730  0.61239  Biso   1.000  C
  C37      1.0000 0.30530  0.62250  0.08120  Biso   1.000  C
  C38      1.0000 0.69470  0.12250  0.41880  Biso   1.000  C
  C39      1.0000 0.69470  0.37750  0.91880  Biso   1.000  C
  C40      1.0000 0.30530  0.87750  0.58120  Biso   1.000  C
  H17      1.0000 0.27260  0.57990  0.07730  Biso   1.000  H
  H18      1.0000 0.72740  0.07990  0.42270  Biso   1.000  H
  H19      1.0000 0.72740  0.42010  0.92270  Biso   1.000  H
  H20      1.0000 0.27260  0.92010  0.57730  Biso   1.000  H
  C41      1.0000 0.34030  0.57600  0.05590  Biso   1.000  C
  C42      1.0000 0.65970  0.07600  0.44410  Biso   1.000  C
  C43      1.0000 0.65970  0.42400  0.94410  Biso   1.000  C
  C44      1.0000 0.34030  0.92400  0.55590  Biso   1.000  C
  H21      1.0000 0.33130  0.50160  0.03580  Biso   1.000  H
  H22      1.0000 0.66870  0.00160  0.46420  Biso   1.000  H
  H23      1.0000 0.66870  0.49840  0.96420  Biso   1.000  H
  H24      1.0000 0.33130  0.99840  0.53580  Biso   1.000  H
  C45      1.0000 0.38877  0.63990  0.06031  Biso   1.000  C
  C46      1.0000 0.61123  0.13990  0.43969  Biso   1.000  C
  C47      1.0000 0.61123  0.36010  0.93969  Biso   1.000  C
  C48      1.0000 0.38877  0.86010  0.56031  Biso   1.000  C
  C49      1.0000 0.40194  0.75040  0.09053  Biso   1.000  C
  C50      1.0000 0.59806  0.25040  0.40947  Biso   1.000  C
  C51      1.0000 0.59806  0.24960  0.90947  Biso   1.000  C
  C52      1.0000 0.40194  0.74960  0.59053  Biso   1.000  C
  H25      1.0000 0.43400  0.79410  0.09340  Biso   1.000  H
  H26      1.0000 0.56600  0.29410  0.40660  Biso   1.000  H
  H27      1.0000 0.56600  0.20590  0.90660  Biso   1.000  H
  H28      1.0000 0.43400  0.70590  0.59340  Biso   1.000  H
  C53      1.0000 0.36759  0.79570  0.11639  Biso   1.000  C
  C54      1.0000 0.63241  0.29570  0.38361  Biso   1.000  C
  C55      1.0000 0.63241  0.20430  0.88361  Biso   1.000  C
  C56      1.0000 0.36759  0.70430  0.61639  Biso   1.000  C
  H29      1.0000 0.37710  0.86960  0.13690  Biso   1.000  H
  H30      1.0000 0.62290  0.36960  0.36310  Biso   1.000  H
  H31      1.0000 0.62290  0.13040  0.86310  Biso   1.000  H
  H32      1.0000 0.37710  0.63040  0.63690  Biso   1.000  H
  C57      1.0000 0.42827  0.58760  0.03451  Biso   1.000  C
  C58      1.0000 0.57173  0.08760  0.46549  Biso   1.000  C
  C59      1.0000 0.57173  0.41240  0.96549  Biso   1.000  C
  C60      1.0000 0.42827  0.91240  0.53451  Biso   1.000  C
  C61      1.0000 0.21461  0.68600  0.36079  Biso   1.000  C
  C62      1.0000 0.78539  0.18600  0.13921  Biso   1.000  C
  C63      1.0000 0.78539  0.31400  0.63921  Biso   1.000  C
  C64      1.0000 0.21461  0.81400  0.86079  Biso   1.000  C
  C65      1.0000 0.24630  0.58210  0.40465  Biso   1.000  C
  C66      1.0000 0.75370  0.08210  0.09535  Biso   1.000  C
  C67      1.0000 0.75370  0.41790  0.59535  Biso   1.000  C
  C68      1.0000 0.24630  0.91790  0.90465  Biso   1.000  C
  C69      1.0000 0.25989  0.76790  0.35290  Biso   1.000  C
  C70      1.0000 0.74011  0.26790  0.14710  Biso   1.000  C
  C71      1.0000 0.74011  0.23210  0.64710  Biso   1.000  C
  C72      1.0000 0.25989  0.73210  0.85290  Biso   1.000  C
  C73      1.0000 0.17983  0.75420  0.38996  Biso   1.000  C
  C74      1.0000 0.82017  0.25420  0.11004  Biso   1.000  C
  C75      1.0000 0.82017  0.24580  0.61004  Biso   1.000  C
  C76      1.0000 0.17983  0.74580  0.88996  Biso   1.000  C
  C77      1.0000 0.12887  0.70000  0.38525  Biso   1.000  C
  C78      1.0000 0.87113  0.20000  0.11475  Biso   1.000  C
  C79      1.0000 0.87113  0.30000  0.61475  Biso   1.000  C
  C80      1.0000 0.12887  0.80000  0.88525  Biso   1.000  C
  H33      1.0000 0.11680  0.62700  0.36440  Biso   1.000  H
  H34      1.0000 0.88320  0.12700  0.13560  Biso   1.000  H
  H35      1.0000 0.88320  0.37300  0.63560  Biso   1.000  H
  H36      1.0000 0.11680  0.87300  0.86440  Biso   1.000  H
  C81      1.0000 0.09632  0.75340  0.41116  Biso   1.000  C
  C82      1.0000 0.90368  0.25340  0.08884  Biso   1.000  C
  C83      1.0000 0.90368  0.24660  0.58884  Biso   1.000  C
  C84      1.0000 0.09632  0.74660  0.91116  Biso   1.000  C
  H37      1.0000 0.06290  0.71520  0.40840  Biso   1.000  H
  H38      1.0000 0.93710  0.21520  0.09160  Biso   1.000  H
  H39      1.0000 0.93710  0.28480  0.59160  Biso   1.000  H
  H40      1.0000 0.06290  0.78480  0.90840  Biso   1.000  H
  C85      1.0000 0.11291  0.86360  0.44129  Biso   1.000  C
  C86      1.0000 0.88709  0.36360  0.05871  Biso   1.000  C
  C87      1.0000 0.88709  0.13640  0.55871  Biso   1.000  C
  C88      1.0000 0.11291  0.63640  0.94129  Biso   1.000  C
  C89      1.0000 0.16302  0.91830  0.44600  Biso   1.000  C
  C90      1.0000 0.83698  0.41830  0.05400  Biso   1.000  C
  C91      1.0000 0.83698  0.08170  0.55400  Biso   1.000  C
  C92      1.0000 0.16302  0.58170  0.94600  Biso   1.000  C
  H41      1.0000 0.17410  0.99290  0.46560  Biso   1.000  H
  H42      1.0000 0.82590  0.49290  0.03440  Biso   1.000  H
  H43      1.0000 0.82590  0.00710  0.53440  Biso   1.000  H
  H44      1.0000 0.17410  0.50710  0.96560  Biso   1.000  H
  C93      1.0000 0.19717  0.86270  0.42157  Biso   1.000  C
  C94      1.0000 0.80283  0.36270  0.07843  Biso   1.000  C
  C95      1.0000 0.80283  0.13730  0.57843  Biso   1.000  C
  C96      1.0000 0.19717  0.63730  0.92157  Biso   1.000  C
  H45      1.0000 0.23180  0.89850  0.42650  Biso   1.000  H
  H46      1.0000 0.76820  0.39850  0.07350  Biso   1.000  H
  H47      1.0000 0.76820  0.10150  0.57350  Biso   1.000  H
  H48      1.0000 0.23180  0.60150  0.92650  Biso   1.000  H
  C97      1.0000 0.07475  0.92060  0.46711  Biso   1.000  C
  C98      1.0000 0.92525  0.42060  0.03289  Biso   1.000  C
  C99      1.0000 0.92525  0.07940  0.53289  Biso   1.000  C
  C100     1.0000 0.07475  0.57940  0.96711  Biso   1.000  C
  C101     1.0000 0.17448  0.64020  0.29655  Biso   1.000  C
  C102     1.0000 0.82552  0.14020  0.20345  Biso   1.000  C
  C103     1.0000 0.82552  0.35980  0.70345  Biso   1.000  C
  C104     1.0000 0.17448  0.85980  0.79655  Biso   1.000  C
  C105     1.0000 0.12882  0.71590  0.25917  Biso   1.000  C
  C106     1.0000 0.87118  0.21590  0.24083  Biso   1.000  C
  C107     1.0000 0.87118  0.28410  0.74083  Biso   1.000  C
  C108     1.0000 0.12882  0.78410  0.75917  Biso   1.000  C
  H49      1.0000 0.12280  0.78940  0.27440  Biso   1.000  H
  H50      1.0000 0.87720  0.28940  0.22560  Biso   1.000  H
  H51      1.0000 0.87720  0.21060  0.72560  Biso   1.000  H
  H52      1.0000 0.12280  0.71060  0.77440  Biso   1.000  H
  C109     1.0000 0.09286  0.68310  0.20038  Biso   1.000  C
  C110     1.0000 0.90714  0.18310  0.29962  Biso   1.000  C
  C111     1.0000 0.90714  0.31690  0.79962  Biso   1.000  C
  C112     1.0000 0.09286  0.81690  0.70038  Biso   1.000  C
  H53      1.0000 0.06230  0.73360  0.17670  Biso   1.000  H
  H54      1.0000 0.93770  0.23360  0.32330  Biso   1.000  H
  H55      1.0000 0.93770  0.26640  0.82330  Biso   1.000  H
  H56      1.0000 0.06230  0.76640  0.67670  Biso   1.000  H
  C113     1.0000 0.10181  0.57470  0.17596  Biso   1.000  C
  C114     1.0000 0.89819  0.07470  0.32404  Biso   1.000  C
  C115     1.0000 0.89819  0.42530  0.82404  Biso   1.000  C
  C116     1.0000 0.10181  0.92530  0.67596  Biso   1.000  C
  C117     1.0000 0.14644  0.49850  0.21256  Biso   1.000  C
  C118     1.0000 0.85356  0.99850  0.28744  Biso   1.000  C
  C119     1.0000 0.85356  0.50150  0.78744  Biso   1.000  C
  C120     1.0000 0.14644  0.00150  0.71256  Biso   1.000  C
  H57      1.0000 0.15230  0.42520  0.19710  Biso   1.000  H
  H58      1.0000 0.84770  0.92520  0.30290  Biso   1.000  H
  H59      1.0000 0.84770  0.57480  0.80290  Biso   1.000  H
  H60      1.0000 0.15230  0.07480  0.69710  Biso   1.000  H
  C121     1.0000 0.18246  0.53110  0.27228  Biso   1.000  C
  C122     1.0000 0.81754  0.03110  0.22772  Biso   1.000  C
  C123     1.0000 0.81754  0.46890  0.72772  Biso   1.000  C
  C124     1.0000 0.18246  0.96890  0.77228  Biso   1.000  C
  H61      1.0000 0.21220  0.47930  0.29630  Biso   1.000  H
  H62      1.0000 0.78780  0.97930  0.20370  Biso   1.000  H
  H63      1.0000 0.78780  0.52070  0.70370  Biso   1.000  H
  H64      1.0000 0.21220  0.02070  0.79630  Biso   1.000  H
  C125     1.0000 0.06461  0.54320  0.11114  Biso   1.000  C
  C126     1.0000 0.93539  0.04320  0.38886  Biso   1.000  C
  C127     1.0000 0.93539  0.45680  0.88886  Biso   1.000  C
  C128     1.0000 0.06461  0.95680  0.61114  Biso   1.000  C
  C129     1.0000 0.55648  0.63120  0.54883  Biso   1.000  C
  C130     1.0000 0.44352  0.13120  0.95117  Biso   1.000  C
  C131     1.0000 0.44352  0.36880  0.45117  Biso   1.000  C
  C132     1.0000 0.55648  0.86880  0.04883  Biso   1.000  C
  H65      1.0000 0.54050  0.65380  0.57510  Biso   1.000  H
  H66      1.0000 0.45950  0.15380  0.92490  Biso   1.000  H
  H67      1.0000 0.45950  0.34620  0.42490  Biso   1.000  H
  H68      1.0000 0.54050  0.84620  0.07510  Biso   1.000  H
  C133     1.0000 0.58421  0.68330  0.47433  Biso   1.000  C
  C134     1.0000 0.41579  0.18330  0.02567  Biso   1.000  C
  C135     1.0000 0.41579  0.31670  0.52567  Biso   1.000  C
  C136     1.0000 0.58421  0.81670  0.97433  Biso   1.000  C
  H69      1.0000 0.58850  0.74180  0.44900  Biso   1.000  H
  H70      1.0000 0.41150  0.24180  0.05100  Biso   1.000  H
  H71      1.0000 0.41150  0.25820  0.55100  Biso   1.000  H
  H72      1.0000 0.58850  0.75820  0.94900  Biso   1.000  H
  C137     1.0000 0.60172  0.56550  0.47152  Biso   1.000  C
  C138     1.0000 0.39828  0.06550  0.02848  Biso   1.000  C
  C139     1.0000 0.39828  0.43450  0.52848  Biso   1.000  C
  C140     1.0000 0.60172  0.93450  0.97152  Biso   1.000  C
  H73      1.0000 0.61710  0.54480  0.44450  Biso   1.000  H
  H74      1.0000 0.38290  0.04480  0.05550  Biso   1.000  H
  H75      1.0000 0.38290  0.45520  0.55550  Biso   1.000  H
  H76      1.0000 0.61710  0.95520  0.94450  Biso   1.000  H
  C141     1.0000 0.59585  0.47950  0.50965  Biso   1.000  C
  C142     1.0000 0.40415  0.97950  0.99035  Biso   1.000  C
  C143     1.0000 0.40415  0.52050  0.49035  Biso   1.000  C
  C144     1.0000 0.59585  0.02050  0.00965  Biso   1.000  C
  H77      1.0000 0.60680  0.39960  0.50800  Biso   1.000  H
  H78      1.0000 0.39320  0.89960  0.99200  Biso   1.000  H
  H79      1.0000 0.39320  0.60040  0.49200  Biso   1.000  H
  H80      1.0000 0.60680  0.10040  0.00800  Biso   1.000  H
  C145     1.0000 0.57376  0.51160  0.55022  Biso   1.000  C
  C146     1.0000 0.42624  0.01160  0.94978  Biso   1.000  C
  C147     1.0000 0.42624  0.48840  0.44978  Biso   1.000  C
  C148     1.0000 0.57376  0.98840  0.05022  Biso   1.000  C
  C149     1.0000 0.56961  0.42240  0.59490  Biso   1.000  C
  C150     1.0000 0.43039  0.92240  0.90510  Biso   1.000  C
  C151     1.0000 0.43039  0.57760  0.40510  Biso   1.000  C
  C152     1.0000 0.56961  0.07760  0.09490  Biso   1.000  C
  H81      1.0000 0.60640  0.41630  0.62960  Biso   1.000  H
  H82      1.0000 0.39360  0.91630  0.87040  Biso   1.000  H
  H83      1.0000 0.39360  0.58370  0.37040  Biso   1.000  H
  H84      1.0000 0.60640  0.08370  0.12960  Biso   1.000  H
  H85      1.0000 0.54110  0.44990  0.60780  Biso   1.000  H
  H86      1.0000 0.45890  0.94990  0.89220  Biso   1.000  H
  H87      1.0000 0.45890  0.55010  0.39220  Biso   1.000  H
  H88      1.0000 0.54110  0.05010  0.10780  Biso   1.000  H
  H89      1.0000 0.55870  0.34420  0.57590  Biso   1.000  H
  H90      1.0000 0.44130  0.84420  0.92410  Biso   1.000  H
  H91      1.0000 0.44130  0.65580  0.42410  Biso   1.000  H
  H92      1.0000 0.55870  0.15580  0.07590  Biso   1.000  H
  C153     1.0000 0.06986  0.34980  0.56772  Biso   1.000  C
  C154     1.0000 0.93014  0.84980  0.93228  Biso   1.000  C
  C155     1.0000 0.93014  0.65020  0.43228  Biso   1.000  C
  C156     1.0000 0.06986  0.15020  0.06772  Biso   1.000  C
  H93      1.0000 0.07280  0.30530  0.60140  Biso   1.000  H
  H94      1.0000 0.92720  0.80530  0.89860  Biso   1.000  H
  H95      1.0000 0.92720  0.69470  0.39860  Biso   1.000  H
  H96      1.0000 0.07280  0.19470  0.10140  Biso   1.000  H
  C157     1.0000 0.08198  0.47330  0.57530  Biso   1.000  C
  C158     1.0000 0.91802  0.97330  0.92470  Biso   1.000  C
  C159     1.0000 0.91802  0.52670  0.42470  Biso   1.000  C
  C160     1.0000 0.08198  0.02670  0.07530  Biso   1.000  C
  C161     1.0000 0.07748  0.53700  0.52480  Biso   1.000  C
  C162     1.0000 0.92252  0.03700  0.97520  Biso   1.000  C
  C163     1.0000 0.92252  0.46300  0.47520  Biso   1.000  C
  C164     1.0000 0.07748  0.96300  0.02480  Biso   1.000  C
  H97      1.0000 0.08480  0.62010  0.52740  Biso   1.000  H
  H98      1.0000 0.91520  0.12010  0.97260  Biso   1.000  H
  H99      1.0000 0.91520  0.37990  0.47260  Biso   1.000  H
  H100     1.0000 0.08480  0.87990  0.02740  Biso   1.000  H
  C165     1.0000 0.06193  0.47680  0.47010  Biso   1.000  C
  C166     1.0000 0.93807  0.97680  0.02990  Biso   1.000  C
  C167     1.0000 0.93807  0.52320  0.52990  Biso   1.000  C
  C168     1.0000 0.06193  0.02320  0.97010  Biso   1.000  C
  H101     1.0000 0.05930  0.51850  0.43580  Biso   1.000  H
  H102     1.0000 0.94070  0.01850  0.06420  Biso   1.000  H
  H103     1.0000 0.94070  0.48150  0.56420  Biso   1.000  H
  H104     1.0000 0.05930  0.98150  0.93580  Biso   1.000  H
  C169     1.0000 0.05036  0.35420  0.46720  Biso   1.000  C
  C170     1.0000 0.94964  0.85420  0.03280  Biso   1.000  C
  C171     1.0000 0.94964  0.64580  0.53280  Biso   1.000  C
  C172     1.0000 0.05036  0.14580  0.96720  Biso   1.000  C
  H105     1.0000 0.03940  0.31400  0.43030  Biso   1.000  H
  H106     1.0000 0.96060  0.81400  0.06970  Biso   1.000  H
  H107     1.0000 0.96060  0.68600  0.56970  Biso   1.000  H
  H108     1.0000 0.03940  0.18600  0.93030  Biso   1.000  H
  C173     1.0000 0.09784  0.53160  0.63600  Biso   1.000  C
  C174     1.0000 0.90216  0.03160  0.86400  Biso   1.000  C
  C175     1.0000 0.90216  0.46840  0.36400  Biso   1.000  C
  C176     1.0000 0.09784  0.96840  0.13600  Biso   1.000  C
  H109     1.0000 0.06460  0.53330  0.64450  Biso   1.000  H
  H110     1.0000 0.93540  0.03330  0.85550  Biso   1.000  H
  H111     1.0000 0.93540  0.46670  0.35550  Biso   1.000  H
  H112     1.0000 0.06460  0.96670  0.14450  Biso   1.000  H
  H113     1.0000 0.12810  0.48560  0.66690  Biso   1.000  H
  H114     1.0000 0.87190  0.98560  0.83310  Biso   1.000  H
  H115     1.0000 0.87190  0.51440  0.33310  Biso   1.000  H
  H116     1.0000 0.12810  0.01440  0.16690  Biso   1.000  H
  H117     1.0000 0.11100  0.61300  0.63540  Biso   1.000  H
  H118     1.0000 0.88900  0.11300  0.86460  Biso   1.000  H
  H119     1.0000 0.88900  0.38700  0.36460  Biso   1.000  H
  H120     1.0000 0.11100  0.88700  0.13540  Biso   1.000  H
  C177     1.0000 0.43470  0.12880  0.20060  Biso   1.000  C
  C178     1.0000 0.56530  0.62880  0.29940  Biso   1.000  C
  C179     1.0000 0.56530  0.87120  0.79940  Biso   1.000  C
  C180     1.0000 0.43470  0.37120  0.70060  Biso   1.000  C
  H121     1.0000 0.39480  0.10520  0.18080  Biso   1.000  H
  H122     1.0000 0.60520  0.60520  0.31920  Biso   1.000  H
  H123     1.0000 0.60520  0.89480  0.81920  Biso   1.000  H
  H124     1.0000 0.39480  0.39480  0.68080  Biso   1.000  H
  H125     1.0000 0.45510  0.07490  0.23410  Biso   1.000  H
  H126     1.0000 0.54490  0.57490  0.26590  Biso   1.000  H
  H127     1.0000 0.54490  0.92510  0.76590  Biso   1.000  H
  H128     1.0000 0.45510  0.42510  0.73410  Biso   1.000  H
  H129     1.0000 0.45130  0.12450  0.17210  Biso   1.000  H
  H130     1.0000 0.54870  0.62450  0.32790  Biso   1.000  H
  H131     1.0000 0.54870  0.87550  0.82790  Biso   1.000  H
  H132     1.0000 0.45130  0.37550  0.67210  Biso   1.000  H
  C181     1.0000 0.43920  0.25930  0.22440  Biso   1.000  C
  C182     1.0000 0.56080  0.75930  0.27560  Biso   1.000  C
  C183     1.0000 0.56080  0.74070  0.77560  Biso   1.000  C
  C184     1.0000 0.43920  0.24070  0.72440  Biso   1.000  C
  C185     1.0000 0.44010  0.36060  0.19000  Biso   1.000  C
  C186     1.0000 0.55990  0.86060  0.31000  Biso   1.000  C
  C187     1.0000 0.55990  0.63940  0.81000  Biso   1.000  C
  C188     1.0000 0.44010  0.13940  0.69000  Biso   1.000  C
  H133     1.0000 0.42930  0.34980  0.14870  Biso   1.000  H
  H134     1.0000 0.57070  0.84980  0.35130  Biso   1.000  H
  H135     1.0000 0.57070  0.65020  0.85130  Biso   1.000  H
  H136     1.0000 0.42930  0.15020  0.64870  Biso   1.000  H
  C189     1.0000 0.45530  0.46970  0.21290  Biso   1.000  C
  C190     1.0000 0.54470  0.96970  0.28710  Biso   1.000  C
  C191     1.0000 0.54470  0.53030  0.78710  Biso   1.000  C
  C192     1.0000 0.45530  0.03030  0.71290  Biso   1.000  C
  H137     1.0000 0.45480  0.53760  0.18990  Biso   1.000  H
  H138     1.0000 0.54520  0.03760  0.31010  Biso   1.000  H
  H139     1.0000 0.54520  0.46240  0.81010  Biso   1.000  H
  H140     1.0000 0.45480  0.96240  0.68990  Biso   1.000  H
  C193     1.0000 0.47560  0.47330  0.28680  Biso   1.000  C
  C194     1.0000 0.52440  0.97330  0.21320  Biso   1.000  C
  C195     1.0000 0.52440  0.52670  0.71320  Biso   1.000  C
  C196     1.0000 0.47560  0.02670  0.78680  Biso   1.000  C
  C197     1.0000 0.45140  0.26370  0.28530  Biso   1.000  C
  C198     1.0000 0.54860  0.76370  0.21470  Biso   1.000  C
  C199     1.0000 0.54860  0.73630  0.71470  Biso   1.000  C
  C200     1.0000 0.45140  0.23630  0.78530  Biso   1.000  C
  H141     1.0000 0.45110  0.19490  0.30730  Biso   1.000  H
  H142     1.0000 0.54890  0.69490  0.19270  Biso   1.000  H
  H143     1.0000 0.54890  0.80510  0.69270  Biso   1.000  H
  H144     1.0000 0.45110  0.30510  0.80730  Biso   1.000  H
  N1       1.0000 0.46400  0.37520  0.31050  Biso   1.000  N
  N2       1.0000 0.53600  0.87520  0.18950  Biso   1.000  N
  N3       1.0000 0.53600  0.62480  0.68950  Biso   1.000  N
  N4       1.0000 0.46400  0.12480  0.81050  Biso   1.000  N
  C201     1.0000 0.19810  0.22670  0.01260  Biso   1.000  C
  C202     1.0000 0.80190  0.72670  0.48740  Biso   1.000  C
  C203     1.0000 0.80190  0.77330  0.98740  Biso   1.000  C
  C204     1.0000 0.19810  0.27330  0.51260  Biso   1.000  C
  H145     1.0000 0.22150  0.20840  0.99180  Biso   1.000  H
  H146     1.0000 0.77850  0.70840  0.50820  Biso   1.000  H
  H147     1.0000 0.77850  0.79160  0.00820  Biso   1.000  H
  H148     1.0000 0.22150  0.29160  0.49180  Biso   1.000  H
  H149     1.0000 0.16810  0.28260  0.98870  Biso   1.000  H
  H150     1.0000 0.83190  0.78260  0.51130  Biso   1.000  H
  H151     1.0000 0.83190  0.71740  0.01130  Biso   1.000  H
  H152     1.0000 0.16810  0.21740  0.48870  Biso   1.000  H
  H153     1.0000 0.18100  0.15320  0.01850  Biso   1.000  H
  H154     1.0000 0.81900  0.65320  0.48150  Biso   1.000  H
  H155     1.0000 0.81900  0.84680  0.98150  Biso   1.000  H
  H156     1.0000 0.18100  0.34680  0.51850  Biso   1.000  H
  C205     1.0000 0.20500  0.31050  0.10950  Biso   1.000  C
  C206     1.0000 0.79500  0.81050  0.39050  Biso   1.000  C
  C207     1.0000 0.79500  0.68950  0.89050  Biso   1.000  C
  C208     1.0000 0.20500  0.18950  0.60950  Biso   1.000  C
  H157     1.0000 0.18930  0.23720  0.11780  Biso   1.000  H
  H158     1.0000 0.81070  0.73720  0.38220  Biso   1.000  H
  H159     1.0000 0.81070  0.76280  0.88220  Biso   1.000  H
  H160     1.0000 0.18930  0.26280  0.61780  Biso   1.000  H
  H161     1.0000 0.17420  0.36650  0.08800  Biso   1.000  H
  H162     1.0000 0.82580  0.86650  0.41200  Biso   1.000  H
  H163     1.0000 0.82580  0.63350  0.91200  Biso   1.000  H
  H164     1.0000 0.17420  0.13350  0.58800  Biso   1.000  H
  H165     1.0000 0.23150  0.34650  0.14710  Biso   1.000  H
  H166     1.0000 0.76850  0.84650  0.35290  Biso   1.000  H
  H167     1.0000 0.76850  0.65350  0.85290  Biso   1.000  H
  H168     1.0000 0.23150  0.15350  0.64710  Biso   1.000  H
  C209     1.0000 0.29010  0.29230  0.09370  Biso   1.000  C
  C210     1.0000 0.70990  0.79230  0.40630  Biso   1.000  C
  C211     1.0000 0.70990  0.70770  0.90630  Biso   1.000  C
  C212     1.0000 0.29010  0.20770  0.59370  Biso   1.000  C
  H169     1.0000 0.31130  0.31820  0.13360  Biso   1.000  H
  H170     1.0000 0.68870  0.81820  0.36640  Biso   1.000  H
  H171     1.0000 0.68870  0.68180  0.86640  Biso   1.000  H
  H172     1.0000 0.31130  0.18180  0.63360  Biso   1.000  H
  C213     1.0000 0.05380  0.24500  0.21820  Biso   1.000  C
  C214     1.0000 0.94620  0.74500  0.28180  Biso   1.000  C
  C215     1.0000 0.94620  0.75500  0.78180  Biso   1.000  C
  C216     1.0000 0.05380  0.25500  0.71820  Biso   1.000  C
  H173     1.0000 0.03240  0.17020  0.20930  Biso   1.000  H
  H174     1.0000 0.96760  0.67020  0.29070  Biso   1.000  H
  H175     1.0000 0.96760  0.82980  0.79070  Biso   1.000  H
  H176     1.0000 0.03240  0.32980  0.70930  Biso   1.000  H
  H177     1.0000 0.09280  0.22900  0.22450  Biso   1.000  H
  H178     1.0000 0.90720  0.72900  0.27550  Biso   1.000  H
  H179     1.0000 0.90720  0.77100  0.77550  Biso   1.000  H
  H180     1.0000 0.09280  0.27100  0.72450  Biso   1.000  H
  H181     1.0000 0.03600  0.30010  0.18460  Biso   1.000  H
  H182     1.0000 0.96400  0.80010  0.31540  Biso   1.000  H
  H183     1.0000 0.96400  0.69990  0.81540  Biso   1.000  H
  H184     1.0000 0.03600  0.19990  0.68460  Biso   1.000  H
  C217     1.0000 0.08030  0.22880  0.32930  Biso   1.000  C
  C218     1.0000 0.91970  0.72880  0.17070  Biso   1.000  C
  C219     1.0000 0.91970  0.77120  0.67070  Biso   1.000  C
  C220     1.0000 0.08030  0.27120  0.82930  Biso   1.000  C
  H185     1.0000 0.07080  0.26450  0.35980  Biso   1.000  H
  H186     1.0000 0.92920  0.76450  0.14020  Biso   1.000  H
  H187     1.0000 0.92920  0.73550  0.64020  Biso   1.000  H
  H188     1.0000 0.07080  0.23550  0.85980  Biso   1.000  H
  H189     1.0000 0.12150  0.22820  0.34350  Biso   1.000  H
  H190     1.0000 0.87850  0.72820  0.15650  Biso   1.000  H
  H191     1.0000 0.87850  0.77180  0.65650  Biso   1.000  H
  H192     1.0000 0.12150  0.27180  0.84350  Biso   1.000  H
  H193     1.0000 0.06600  0.14700  0.32150  Biso   1.000  H
  H194     1.0000 0.93400  0.64700  0.17850  Biso   1.000  H
  H195     1.0000 0.93400  0.85300  0.67850  Biso   1.000  H
  H196     1.0000 0.06600  0.35300  0.82150  Biso   1.000  H
  C221     1.0000 0.03040  0.40460  0.27360  Biso   1.000  C
  C222     1.0000 0.96960  0.90460  0.22640  Biso   1.000  C
  C223     1.0000 0.96960  0.59540  0.72640  Biso   1.000  C
  C224     1.0000 0.03040  0.09540  0.77360  Biso   1.000  C
  H197     1.0000 0.01350  0.44540  0.23660  Biso   1.000  H
  H198     1.0000 0.98650  0.94540  0.26340  Biso   1.000  H
  H199     1.0000 0.98650  0.55460  0.76340  Biso   1.000  H
  H200     1.0000 0.01350  0.05460  0.73660  Biso   1.000  H
  C225     1.0000 0.31260  0.29440  0.31870  Biso   1.000  C
  C226     1.0000 0.68740  0.79440  0.18130  Biso   1.000  C
  C227     1.0000 0.68740  0.70560  0.68130  Biso   1.000  C
  C228     1.0000 0.31260  0.20560  0.81870  Biso   1.000  C
  H201     1.0000 0.34920  0.25420  0.33160  Biso   1.000  H
  H202     1.0000 0.65080  0.75420  0.16840  Biso   1.000  H
  H203     1.0000 0.65080  0.74580  0.66840  Biso   1.000  H
  H204     1.0000 0.34920  0.24580  0.83160  Biso   1.000  H
  H205     1.0000 0.31810  0.37230  0.33820  Biso   1.000  H
  H206     1.0000 0.68190  0.87230  0.16180  Biso   1.000  H
  H207     1.0000 0.68190  0.62770  0.66180  Biso   1.000  H
  H208     1.0000 0.31810  0.12770  0.83820  Biso   1.000  H
  H209     1.0000 0.29570  0.30530  0.27540  Biso   1.000  H
  H210     1.0000 0.70430  0.80530  0.22460  Biso   1.000  H
  H211     1.0000 0.70430  0.69470  0.72460  Biso   1.000  H
  H212     1.0000 0.29570  0.19470  0.77540  Biso   1.000  H
  C229     1.0000 0.29300  0.18600  0.39830  Biso   1.000  C
  C230     1.0000 0.70700  0.68600  0.10170  Biso   1.000  C
  C231     1.0000 0.70700  0.81400  0.60170  Biso   1.000  C
  C232     1.0000 0.29300  0.31400  0.89830  Biso   1.000  C
  H213     1.0000 0.26310  0.14020  0.40250  Biso   1.000  H
  H214     1.0000 0.73690  0.64020  0.09750  Biso   1.000  H
  H215     1.0000 0.73690  0.85980  0.59750  Biso   1.000  H
  H216     1.0000 0.26310  0.35980  0.90250  Biso   1.000  H
  H217     1.0000 0.30120  0.25770  0.42310  Biso   1.000  H
  H218     1.0000 0.69880  0.75770  0.07690  Biso   1.000  H
  H219     1.0000 0.69880  0.74230  0.57690  Biso   1.000  H
  H220     1.0000 0.30120  0.24230  0.92310  Biso   1.000  H
  H221     1.0000 0.32730  0.13720  0.41120  Biso   1.000  H
  H222     1.0000 0.67270  0.63720  0.08880  Biso   1.000  H
  H223     1.0000 0.67270  0.86280  0.58880  Biso   1.000  H
  H224     1.0000 0.32730  0.36280  0.91120  Biso   1.000  H
  C233     1.0000 0.22400  0.18020  0.29200  Biso   1.000  C
  C234     1.0000 0.77600  0.68020  0.20800  Biso   1.000  C
  C235     1.0000 0.77600  0.81980  0.70800  Biso   1.000  C
  C236     1.0000 0.22400  0.31980  0.79200  Biso   1.000  C
  H225     1.0000 0.20170  0.13050  0.30430  Biso   1.000  H
  H226     1.0000 0.79830  0.63050  0.19570  Biso   1.000  H
  H227     1.0000 0.79830  0.86950  0.69570  Biso   1.000  H
  H228     1.0000 0.20170  0.36950  0.80430  Biso   1.000  H
  C237     1.0000 0.24057  0.70130  0.15090  Biso   1.000  C
  C238     1.0000 0.75943  0.20130  0.34910  Biso   1.000  C
  C239     1.0000 0.75943  0.29870  0.84910  Biso   1.000  C
  C240     1.0000 0.24057  0.79870  0.65090  Biso   1.000  C
  C241     1.0000 0.24681  0.89390  0.09848  Biso   1.000  C
  C242     1.0000 0.75319  0.39390  0.40152  Biso   1.000  C
  C243     1.0000 0.75319  0.10610  0.90152  Biso   1.000  C
  C244     1.0000 0.24681  0.60610  0.59848  Biso   1.000  C
  Cu1      1.0000 0.52697  0.89392  0.50841  Biso   1.000  Cu
  Cu2      1.0000 0.47303  0.39392  0.99159  Biso   1.000  Cu
  Cu3      1.0000 0.47303  0.10608  0.49159  Biso   1.000  Cu
  Cu4      1.0000 0.52697  0.60608  0.00841  Biso   1.000  Cu
  Cu5      1.0000 0.02619  0.10680  0.50674  Biso   1.000  Cu
  Cu6      1.0000 0.97381  0.60680  0.99326  Biso   1.000  Cu
  Cu7      1.0000 0.97381  0.89320  0.49326  Biso   1.000  Cu
  Cu8      1.0000 0.02619  0.39320  0.00674  Biso   1.000  Cu
  F1       1.0000 0.27408  0.62070  0.46198  Biso   1.000  F
  F2       1.0000 0.72592  0.12070  0.03802  Biso   1.000  F
  F3       1.0000 0.72592  0.37930  0.53802  Biso   1.000  F
  F4       1.0000 0.27408  0.87930  0.96198  Biso   1.000  F
  F5       1.0000 0.20979  0.49460  0.40406  Biso   1.000  F
  F6       1.0000 0.79021  0.99460  0.09594  Biso   1.000  F
  F7       1.0000 0.79021  0.50540  0.59594  Biso   1.000  F
  F8       1.0000 0.20979  0.00540  0.90406  Biso   1.000  F
  F9       1.0000 0.28630  0.52800  0.39048  Biso   1.000  F
  F10      1.0000 0.71370  0.02800  0.10952  Biso   1.000  F
  F11      1.0000 0.71370  0.47200  0.60952  Biso   1.000  F
  F12      1.0000 0.28630  0.97200  0.89048  Biso   1.000  F
  F13      1.0000 0.30381  0.80030  0.40649  Biso   1.000  F
  F14      1.0000 0.69619  0.30030  0.09351  Biso   1.000  F
  F15      1.0000 0.69619  0.19970  0.59351  Biso   1.000  F
  F16      1.0000 0.30381  0.69970  0.90649  Biso   1.000  F
  F17      1.0000 0.28376  0.71400  0.32013  Biso   1.000  F
  F18      1.0000 0.71624  0.21400  0.17987  Biso   1.000  F
  F19      1.0000 0.71624  0.28600  0.67987  Biso   1.000  F
  F20      1.0000 0.28376  0.78600  0.82013  Biso   1.000  F
  F21      1.0000 0.23592  0.87170  0.32393  Biso   1.000  F
  F22      1.0000 0.76408  0.37170  0.17607  Biso   1.000  F
  F23      1.0000 0.76408  0.12830  0.67607  Biso   1.000  F
  F24      1.0000 0.23592  0.62830  0.82393  Biso   1.000  F
  F25      1.0000 0.20652  0.94140  0.11357  Biso   1.000  F
  F26      1.0000 0.79348  0.44140  0.38643  Biso   1.000  F
  F27      1.0000 0.79348  0.05860  0.88643  Biso   1.000  F
  F28      1.0000 0.20652  0.55860  0.61357  Biso   1.000  F
  F29      1.0000 0.21911  0.85330  0.04143  Biso   1.000  F
  F30      1.0000 0.78089  0.35330  0.45857  Biso   1.000  F
  F31      1.0000 0.78089  0.14670  0.95857  Biso   1.000  F
  F32      1.0000 0.21911  0.64670  0.54143  Biso   1.000  F
  F33      1.0000 0.28069  0.98580  0.09773  Biso   1.000  F
  F34      1.0000 0.71931  0.48580  0.40227  Biso   1.000  F
  F35      1.0000 0.71931  0.01420  0.90227  Biso   1.000  F
  F36      1.0000 0.28069  0.51420  0.59773  Biso   1.000  F
  F37      1.0000 0.26871  0.60070  0.18030  Biso   1.000  F
  F38      1.0000 0.73129  0.10070  0.31970  Biso   1.000  F
  F39      1.0000 0.73129  0.39930  0.81970  Biso   1.000  F
  F40      1.0000 0.26871  0.89930  0.68030  Biso   1.000  F
  F41      1.0000 0.19761  0.66440  0.09807  Biso   1.000  F
  F42      1.0000 0.80239  0.16440  0.40193  Biso   1.000  F
  F43      1.0000 0.80239  0.33560  0.90193  Biso   1.000  F
  F44      1.0000 0.19761  0.83560  0.59807  Biso   1.000  F
  F45      1.0000 0.21556  0.74940  0.18374  Biso   1.000  F
  F46      1.0000 0.78444  0.24940  0.31626  Biso   1.000  F
  F47      1.0000 0.78444  0.25060  0.81626  Biso   1.000  F
  F48      1.0000 0.21556  0.75060  0.68374  Biso   1.000  F
  N5       1.0000 0.05435  0.29140  0.51532  Biso   1.000  N
  N6       1.0000 0.94565  0.79140  0.98468  Biso   1.000  N
  N7       1.0000 0.94565  0.70860  0.48468  Biso   1.000  N
  N8       1.0000 0.05435  0.20860  0.01532  Biso   1.000  N
  N9       1.0000 0.56136  0.71620  0.51200  Biso   1.000  N
  N10      1.0000 0.43864  0.21620  0.98800  Biso   1.000  N
  N11      1.0000 0.43864  0.28380  0.48800  Biso   1.000  N
  N12      1.0000 0.56136  0.78380  0.01200  Biso   1.000  N
  N13      1.0000 0.05410  0.29960  0.27340  Biso   1.000  N
  N14      1.0000 0.94590  0.79960  0.22660  Biso   1.000  N
  N15      1.0000 0.94590  0.70040  0.72660  Biso   1.000  N
  N16      1.0000 0.05410  0.20040  0.77340  Biso   1.000  N
  N17      1.0000 0.27423  0.22050  0.33530  Biso   1.000  N
  N18      1.0000 0.72577  0.72050  0.16470  Biso   1.000  N
  N19      1.0000 0.72577  0.77950  0.66470  Biso   1.000  N
  N20      1.0000 0.27423  0.27950  0.83530  Biso   1.000  N
  N21      1.0000 0.23480  0.28260  0.07300  Biso   1.000  N
  N22      1.0000 0.76520  0.78260  0.42700  Biso   1.000  N
  N23      1.0000 0.76520  0.71740  0.92700  Biso   1.000  N
  N24      1.0000 0.23480  0.21740  0.57300  Biso   1.000  N
  O1       1.0000 0.08299  0.03100  0.48287  Biso   1.000  O
  O2       1.0000 0.91701  0.53100  0.01713  Biso   1.000  O
  O3       1.0000 0.91701  0.96900  0.51713  Biso   1.000  O
  O4       1.0000 0.08299  0.46900  0.98287  Biso   1.000  O
  O5       1.0000 0.03707  0.85300  0.47044  Biso   1.000  O
  O6       1.0000 0.96293  0.35300  0.02956  Biso   1.000  O
  O7       1.0000 0.96293  0.14700  0.52956  Biso   1.000  O
  O8       1.0000 0.03707  0.64700  0.97044  Biso   1.000  O
  O9       1.0000 0.07285  0.44240  0.09139  Biso   1.000  O
  O10      1.0000 0.92715  0.94240  0.40861  Biso   1.000  O
  O11      1.0000 0.92715  0.55760  0.90861  Biso   1.000  O
  O12      1.0000 0.07285  0.05760  0.59139  Biso   1.000  O
  O13      1.0000 0.02723  0.62030  0.08007  Biso   1.000  O
  O14      1.0000 0.97277  0.12030  0.41993  Biso   1.000  O
  O15      1.0000 0.97277  0.37970  0.91993  Biso   1.000  O
  O16      1.0000 0.02723  0.87970  0.58007  Biso   1.000  O
  O17      1.0000 0.47246  0.87800  0.42160  Biso   1.000  O
  O18      1.0000 0.52754  0.37800  0.07840  Biso   1.000  O
  O19      1.0000 0.52754  0.12200  0.57840  Biso   1.000  O
  O20      1.0000 0.47246  0.62200  0.92160  Biso   1.000  O
  O21      1.0000 0.42503  0.05490  0.40710  Biso   1.000  O
  O22      1.0000 0.57497  0.55490  0.09290  Biso   1.000  O
  O23      1.0000 0.57497  0.94510  0.59290  Biso   1.000  O
  O24      1.0000 0.42503  0.44510  0.90710  Biso   1.000  O
  O25      1.0000 0.46651  0.65610  0.03328  Biso   1.000  O
  O26      1.0000 0.53349  0.15610  0.46672  Biso   1.000  O
  O27      1.0000 0.53349  0.34390  0.96672  Biso   1.000  O
  O28      1.0000 0.46651  0.84390  0.53328  Biso   1.000  O
  O29      1.0000 0.41949  0.47820  0.01680  Biso   1.000  O
  O30      1.0000 0.58051  0.97820  0.48320  Biso   1.000  O
  O31      1.0000 0.58051  0.52180  0.98320  Biso   1.000  O
  O32      1.0000 0.41949  0.02180  0.51680  Biso   1.000  O
  O33      1.0000 0.31610  0.26800  0.06180  Biso   1.000  O
  O34      1.0000 0.68390  0.76800  0.43820  Biso   1.000  O
  O35      1.0000 0.68390  0.73200  0.93820  Biso   1.000  O
  O36      1.0000 0.31610  0.23200  0.56180  Biso   1.000  O
  O37      1.0000 0.02790  0.45530  0.31740  Biso   1.000  O
  O38      1.0000 0.97210  0.95530  0.18260  Biso   1.000  O
  O39      1.0000 0.97210  0.54470  0.68260  Biso   1.000  O
  O40      1.0000 0.02790  0.04470  0.81740  Biso   1.000  O
  O41      1.0000 0.20511  0.20340  0.23760  Biso   1.000  O
  O42      1.0000 0.79489  0.70340  0.26240  Biso   1.000  O
  O43      1.0000 0.79489  0.79660  0.76240  Biso   1.000  O
  O44      1.0000 0.20511  0.29660  0.73760  Biso   1.000  O
