data_image0
_cell_length_a       9.4427
_cell_length_b       12.638
_cell_length_c       8.6742
_cell_angle_alpha    90
_cell_angle_beta     112.48
_cell_angle_gamma    90

_symmetry_space_group_name_H-M    "P 1"
_symmetry_int_tables_number       1

loop_
  _symmetry_equiv_pos_as_xyz
  'x, y, z'

loop_
  _atom_site_label
  _atom_site_occupancy
  _atom_site_fract_x
  _atom_site_fract_y
  _atom_site_fract_z
  _atom_site_thermal_displace_type
  _atom_site_B_iso_or_equiv
  _atom_site_type_symbol
  O1       1.0000 0.48060  0.48559  0.18830  Biso   1.000  O
  O2       1.0000 0.51940  0.98559  0.31170  Biso   1.000  O
  O3       1.0000 0.51940  0.51441  0.81170  Biso   1.000  O
  O4       1.0000 0.48060  0.01441  0.68830  Biso   1.000  O
  O5       1.0000 0.66670  0.44825  0.43340  Biso   1.000  O
  O6       1.0000 0.33330  0.94825  0.06660  Biso   1.000  O
  O7       1.0000 0.33330  0.55175  0.56660  Biso   1.000  O
  O8       1.0000 0.66670  0.05175  0.93340  Biso   1.000  O
  C1       1.0000 0.60590  0.44430  0.27480  Biso   1.000  C
  C2       1.0000 0.39410  0.94430  0.22520  Biso   1.000  C
  C3       1.0000 0.39410  0.55570  0.72520  Biso   1.000  C
  C4       1.0000 0.60590  0.05570  0.77480  Biso   1.000  C
  Cu1      1.0000 0.50000  0.50000  0.50000  Biso   1.000  Cu
  Cu2      1.0000 0.50000  0.00000  0.00000  Biso   1.000  Cu
  S1       1.0000 0.64111  0.23818  0.19930  Biso   1.000  S
  S2       1.0000 0.35889  0.73818  0.30070  Biso   1.000  S
  S3       1.0000 0.35889  0.76182  0.80070  Biso   1.000  S
  S4       1.0000 0.64111  0.26182  0.69930  Biso   1.000  S
  N1       1.0000 0.40530  0.14240  0.95780  Biso   1.000  N
  N2       1.0000 0.59470  0.64240  0.54220  Biso   1.000  N
  N3       1.0000 0.59470  0.85760  0.04220  Biso   1.000  N
  N4       1.0000 0.40530  0.35760  0.45780  Biso   1.000  N
  C5       1.0000 0.46330  0.23210  0.03300  Biso   1.000  C
  C6       1.0000 0.53670  0.73210  0.46700  Biso   1.000  C
  C7       1.0000 0.53670  0.76790  0.96700  Biso   1.000  C
  C8       1.0000 0.46330  0.26790  0.53300  Biso   1.000  C
  N5       1.0000 0.37080  0.31600  0.96730  Biso   1.000  N
  N6       1.0000 0.62920  0.81600  0.53270  Biso   1.000  N
  N7       1.0000 0.62920  0.68400  0.03270  Biso   1.000  N
  N8       1.0000 0.37080  0.18400  0.46730  Biso   1.000  N
  H1       1.0000 0.38860  0.38080  0.99910  Biso   1.000  H
  H2       1.0000 0.61140  0.88080  0.50090  Biso   1.000  H
  H3       1.0000 0.61140  0.61920  0.00090  Biso   1.000  H
  H4       1.0000 0.38860  0.11920  0.49910  Biso   1.000  H
  C9       1.0000 0.69000  0.37710  0.19110  Biso   1.000  C
  C10      1.0000 0.31000  0.87710  0.30890  Biso   1.000  C
  C11      1.0000 0.31000  0.62290  0.80890  Biso   1.000  C
  C12      1.0000 0.69000  0.12290  0.69110  Biso   1.000  C
  H5       1.0000 0.79970  0.38680  0.24780  Biso   1.000  H
  H6       1.0000 0.20030  0.88680  0.25220  Biso   1.000  H
  H7       1.0000 0.20030  0.61320  0.75220  Biso   1.000  H
  H8       1.0000 0.79970  0.11320  0.74780  Biso   1.000  H
  H9       1.0000 0.66100  0.39900  0.07590  Biso   1.000  H
  H10      1.0000 0.33900  0.89900  0.42410  Biso   1.000  H
  H11      1.0000 0.33900  0.60100  0.92410  Biso   1.000  H
  H12      1.0000 0.66100  0.10100  0.57590  Biso   1.000  H
  C13      1.0000 0.24190  0.27750  0.83850  Biso   1.000  C
  C14      1.0000 0.75810  0.77750  0.66150  Biso   1.000  C
  C15      1.0000 0.75810  0.72250  0.16150  Biso   1.000  C
  C16      1.0000 0.24190  0.22250  0.33850  Biso   1.000  C
  C17      1.0000 0.26250  0.16870  0.83500  Biso   1.000  C
  C18      1.0000 0.73750  0.66870  0.66500  Biso   1.000  C
  C19      1.0000 0.73750  0.83130  0.16500  Biso   1.000  C
  C20      1.0000 0.26250  0.33130  0.33500  Biso   1.000  C
  C21      1.0000 0.15250  0.10590  0.71870  Biso   1.000  C
  C22      1.0000 0.84750  0.60590  0.78130  Biso   1.000  C
  C23      1.0000 0.84750  0.89410  0.28130  Biso   1.000  C
  C24      1.0000 0.15250  0.39410  0.21870  Biso   1.000  C
  H13      1.0000 0.16560  0.03310  0.71520  Biso   1.000  H
  H14      1.0000 0.83440  0.53310  0.78480  Biso   1.000  H
  H15      1.0000 0.83440  0.96690  0.28480  Biso   1.000  H
  H16      1.0000 0.16560  0.46690  0.21520  Biso   1.000  H
  C25      1.0000 0.11120  0.32820  0.72840  Biso   1.000  C
  C26      1.0000 0.88880  0.82820  0.77160  Biso   1.000  C
  C27      1.0000 0.88880  0.67180  0.27160  Biso   1.000  C
  C28      1.0000 0.11120  0.17180  0.22840  Biso   1.000  C
  H17      1.0000 0.09810  0.40100  0.73200  Biso   1.000  H
  H18      1.0000 0.90190  0.90100  0.76800  Biso   1.000  H
  H19      1.0000 0.90190  0.59900  0.26800  Biso   1.000  H
  H20      1.0000 0.09810  0.09900  0.23200  Biso   1.000  H
  C29      1.0000 0.00260  0.26480  0.61420  Biso   1.000  C
  C30      1.0000 0.99740  0.76480  0.88580  Biso   1.000  C
  C31      1.0000 0.99740  0.73520  0.38580  Biso   1.000  C
  C32      1.0000 0.00260  0.23520  0.11420  Biso   1.000  C
  H21      1.0000 0.91340  0.29550  0.53900  Biso   1.000  H
  H22      1.0000 0.08660  0.79550  0.96100  Biso   1.000  H
  H23      1.0000 0.08660  0.70450  0.46100  Biso   1.000  H
  H24      1.0000 0.91340  0.20450  0.03900  Biso   1.000  H
  C33      1.0000 0.02340  0.15530  0.60860  Biso   1.000  C
  C34      1.0000 0.97660  0.65530  0.89140  Biso   1.000  C
  C35      1.0000 0.97660  0.84470  0.39140  Biso   1.000  C
  C36      1.0000 0.02340  0.34470  0.10860  Biso   1.000  C
  H25      1.0000 0.94840  0.11500  0.52890  Biso   1.000  H
  H26      1.0000 0.05160  0.61500  0.97110  Biso   1.000  H
  H27      1.0000 0.05160  0.88500  0.47110  Biso   1.000  H
  H28      1.0000 0.94840  0.38500  0.02890  Biso   1.000  H
