data_image0
_cell_length_a       27.353
_cell_length_b       17.844
_cell_length_c       10.6753
_cell_angle_alpha    90
_cell_angle_beta     90
_cell_angle_gamma    90

_symmetry_space_group_name_H-M    "P 1"
_symmetry_int_tables_number       1

loop_
  _symmetry_equiv_pos_as_xyz
  'x, y, z'

loop_
  _atom_site_label
  _atom_site_occupancy
  _atom_site_fract_x
  _atom_site_fract_y
  _atom_site_fract_z
  _atom_site_thermal_displace_type
  _atom_site_B_iso_or_equiv
  _atom_site_type_symbol
  C1       1.0000 0.53240  0.94725  0.70170  Biso   1.000  C
  C2       1.0000 0.96760  0.05275  0.70170  Biso   1.000  C
  C3       1.0000 0.96760  0.44725  0.79830  Biso   1.000  C
  C4       1.0000 0.53240  0.55275  0.79830  Biso   1.000  C
  C5       1.0000 0.46760  0.05275  0.29830  Biso   1.000  C
  C6       1.0000 0.03240  0.94725  0.29830  Biso   1.000  C
  C7       1.0000 0.03240  0.55275  0.20170  Biso   1.000  C
  C8       1.0000 0.46760  0.44725  0.20170  Biso   1.000  C
  C9       1.0000 0.55345  0.91404  0.81900  Biso   1.000  C
  C10      1.0000 0.94655  0.08596  0.81900  Biso   1.000  C
  C11      1.0000 0.94655  0.41404  0.68100  Biso   1.000  C
  C12      1.0000 0.55345  0.58596  0.68100  Biso   1.000  C
  C13      1.0000 0.44655  0.08596  0.18100  Biso   1.000  C
  C14      1.0000 0.05345  0.91404  0.18100  Biso   1.000  C
  C15      1.0000 0.05345  0.58596  0.31900  Biso   1.000  C
  C16      1.0000 0.44655  0.41404  0.31900  Biso   1.000  C
  C17      1.0000 0.57409  0.84554  0.81630  Biso   1.000  C
  C18      1.0000 0.92591  0.15446  0.81630  Biso   1.000  C
  C19      1.0000 0.92591  0.34554  0.68370  Biso   1.000  C
  C20      1.0000 0.57409  0.65446  0.68370  Biso   1.000  C
  C21      1.0000 0.42591  0.15446  0.18370  Biso   1.000  C
  C22      1.0000 0.07409  0.84554  0.18370  Biso   1.000  C
  C23      1.0000 0.07409  0.65446  0.31630  Biso   1.000  C
  C24      1.0000 0.42591  0.34554  0.31630  Biso   1.000  C
  H1       1.0000 0.57550  0.81990  0.74060  Biso   1.000  H
  H2       1.0000 0.92450  0.18010  0.74060  Biso   1.000  H
  H3       1.0000 0.92450  0.31990  0.75940  Biso   1.000  H
  H4       1.0000 0.57550  0.68010  0.75940  Biso   1.000  H
  H5       1.0000 0.42450  0.18010  0.25940  Biso   1.000  H
  H6       1.0000 0.07550  0.81990  0.25940  Biso   1.000  H
  H7       1.0000 0.07550  0.68010  0.24060  Biso   1.000  H
  H8       1.0000 0.42450  0.31990  0.24060  Biso   1.000  H
  C25      1.0000 0.59360  0.81153  0.92380  Biso   1.000  C
  C26      1.0000 0.90640  0.18847  0.92380  Biso   1.000  C
  C27      1.0000 0.90640  0.31153  0.57620  Biso   1.000  C
  C28      1.0000 0.59360  0.68847  0.57620  Biso   1.000  C
  C29      1.0000 0.40640  0.18847  0.07620  Biso   1.000  C
  C30      1.0000 0.09360  0.81153  0.07620  Biso   1.000  C
  C31      1.0000 0.09360  0.68847  0.42380  Biso   1.000  C
  C32      1.0000 0.40640  0.31153  0.42380  Biso   1.000  C
  H9       1.0000 0.60620  0.76320  0.92050  Biso   1.000  H
  H10      1.0000 0.89380  0.23680  0.92050  Biso   1.000  H
  H11      1.0000 0.89380  0.26320  0.57950  Biso   1.000  H
  H12      1.0000 0.60620  0.73680  0.57950  Biso   1.000  H
  H13      1.0000 0.39380  0.23680  0.07950  Biso   1.000  H
  H14      1.0000 0.10620  0.76320  0.07950  Biso   1.000  H
  H15      1.0000 0.10620  0.73680  0.42050  Biso   1.000  H
  H16      1.0000 0.39380  0.26320  0.42050  Biso   1.000  H
  C33      1.0000 0.59366  0.85206  0.03610  Biso   1.000  C
  C34      1.0000 0.90634  0.14794  0.03610  Biso   1.000  C
  C35      1.0000 0.90634  0.35206  0.46390  Biso   1.000  C
  C36      1.0000 0.59366  0.64794  0.46390  Biso   1.000  C
  C37      1.0000 0.40634  0.14794  0.96390  Biso   1.000  C
  C38      1.0000 0.09366  0.85206  0.96390  Biso   1.000  C
  C39      1.0000 0.09366  0.64794  0.53610  Biso   1.000  C
  C40      1.0000 0.40634  0.35206  0.53610  Biso   1.000  C
  C41      1.0000 0.57310  0.92150  0.03980  Biso   1.000  C
  C42      1.0000 0.92690  0.07850  0.03980  Biso   1.000  C
  C43      1.0000 0.92690  0.42150  0.46020  Biso   1.000  C
  C44      1.0000 0.57310  0.57850  0.46020  Biso   1.000  C
  C45      1.0000 0.42690  0.07850  0.96020  Biso   1.000  C
  C46      1.0000 0.07310  0.92150  0.96020  Biso   1.000  C
  C47      1.0000 0.07310  0.57850  0.53980  Biso   1.000  C
  C48      1.0000 0.42690  0.42150  0.53980  Biso   1.000  C
  H17      1.0000 0.57280  0.94810  0.11470  Biso   1.000  H
  H18      1.0000 0.92720  0.05190  0.11470  Biso   1.000  H
  H19      1.0000 0.92720  0.44810  0.38530  Biso   1.000  H
  H20      1.0000 0.57280  0.55190  0.38530  Biso   1.000  H
  H21      1.0000 0.42720  0.05190  0.88530  Biso   1.000  H
  H22      1.0000 0.07280  0.94810  0.88530  Biso   1.000  H
  H23      1.0000 0.07280  0.55190  0.61470  Biso   1.000  H
  H24      1.0000 0.42720  0.44810  0.61470  Biso   1.000  H
  C49      1.0000 0.55230  0.95347  0.93190  Biso   1.000  C
  C50      1.0000 0.94770  0.04653  0.93190  Biso   1.000  C
  C51      1.0000 0.94770  0.45347  0.56810  Biso   1.000  C
  C52      1.0000 0.55230  0.54653  0.56810  Biso   1.000  C
  C53      1.0000 0.44770  0.04653  0.06810  Biso   1.000  C
  C54      1.0000 0.05230  0.95347  0.06810  Biso   1.000  C
  C55      1.0000 0.05230  0.54653  0.43190  Biso   1.000  C
  C56      1.0000 0.44770  0.45347  0.43190  Biso   1.000  C
  H25      1.0000 0.53790  0.00060  0.93570  Biso   1.000  H
  H26      1.0000 0.96210  0.99940  0.93570  Biso   1.000  H
  H27      1.0000 0.96210  0.50060  0.56430  Biso   1.000  H
  H28      1.0000 0.53790  0.49940  0.56430  Biso   1.000  H
  H29      1.0000 0.46210  0.99940  0.06430  Biso   1.000  H
  H30      1.0000 0.03790  0.00060  0.06430  Biso   1.000  H
  H31      1.0000 0.03790  0.49940  0.43570  Biso   1.000  H
  H32      1.0000 0.46210  0.50060  0.43570  Biso   1.000  H
  C57      1.0000 0.64271  0.76015  0.13380  Biso   1.000  C
  C58      1.0000 0.85729  0.23985  0.13380  Biso   1.000  C
  C59      1.0000 0.85729  0.26015  0.36620  Biso   1.000  C
  C60      1.0000 0.64271  0.73985  0.36620  Biso   1.000  C
  C61      1.0000 0.35729  0.23985  0.86620  Biso   1.000  C
  C62      1.0000 0.14271  0.76015  0.86620  Biso   1.000  C
  C63      1.0000 0.14271  0.73985  0.63380  Biso   1.000  C
  C64      1.0000 0.35729  0.26015  0.63380  Biso   1.000  C
  H33      1.0000 0.66380  0.76430  0.06120  Biso   1.000  H
  H34      1.0000 0.83620  0.23570  0.06120  Biso   1.000  H
  H35      1.0000 0.83620  0.26430  0.43880  Biso   1.000  H
  H36      1.0000 0.66380  0.73570  0.43880  Biso   1.000  H
  H37      1.0000 0.33620  0.23570  0.93880  Biso   1.000  H
  H38      1.0000 0.16380  0.76430  0.93880  Biso   1.000  H
  H39      1.0000 0.16380  0.73570  0.56120  Biso   1.000  H
  H40      1.0000 0.33620  0.26430  0.56120  Biso   1.000  H
  H41      1.0000 0.62190  0.71670  0.12240  Biso   1.000  H
  H42      1.0000 0.87810  0.28330  0.12240  Biso   1.000  H
  H43      1.0000 0.87810  0.21670  0.37760  Biso   1.000  H
  H44      1.0000 0.62190  0.78330  0.37760  Biso   1.000  H
  H45      1.0000 0.37810  0.28330  0.87760  Biso   1.000  H
  H46      1.0000 0.12190  0.71670  0.87760  Biso   1.000  H
  H47      1.0000 0.12190  0.78330  0.62240  Biso   1.000  H
  H48      1.0000 0.37810  0.21670  0.62240  Biso   1.000  H
  C65      1.0000 0.67347  0.75000  0.25000  Biso   1.000  C
  C66      1.0000 0.82653  0.25000  0.25000  Biso   1.000  C
  C67      1.0000 0.32653  0.25000  0.75000  Biso   1.000  C
  C68      1.0000 0.17347  0.75000  0.75000  Biso   1.000  C
  C69      1.0000 0.70461  0.81901  0.26850  Biso   1.000  C
  C70      1.0000 0.79539  0.18099  0.26850  Biso   1.000  C
  C71      1.0000 0.79539  0.31901  0.23150  Biso   1.000  C
  C72      1.0000 0.70461  0.68099  0.23150  Biso   1.000  C
  C73      1.0000 0.29539  0.18099  0.73150  Biso   1.000  C
  C74      1.0000 0.20461  0.81901  0.73150  Biso   1.000  C
  C75      1.0000 0.20461  0.68099  0.76850  Biso   1.000  C
  C76      1.0000 0.29539  0.31901  0.76850  Biso   1.000  C
  H49      1.0000 0.72340  0.82970  0.19350  Biso   1.000  H
  H50      1.0000 0.77660  0.17030  0.19350  Biso   1.000  H
  H51      1.0000 0.77660  0.32970  0.30650  Biso   1.000  H
  H52      1.0000 0.72340  0.67030  0.30650  Biso   1.000  H
  H53      1.0000 0.27660  0.17030  0.80650  Biso   1.000  H
  H54      1.0000 0.22340  0.82970  0.80650  Biso   1.000  H
  H55      1.0000 0.22340  0.67030  0.69350  Biso   1.000  H
  H56      1.0000 0.27660  0.32970  0.69350  Biso   1.000  H
  H57      1.0000 0.68430  0.86210  0.28770  Biso   1.000  H
  H58      1.0000 0.81570  0.13790  0.28770  Biso   1.000  H
  H59      1.0000 0.81570  0.36210  0.21230  Biso   1.000  H
  H60      1.0000 0.68430  0.63790  0.21230  Biso   1.000  H
  H61      1.0000 0.31570  0.13790  0.71230  Biso   1.000  H
  H62      1.0000 0.18430  0.86210  0.71230  Biso   1.000  H
  H63      1.0000 0.18430  0.63790  0.78770  Biso   1.000  H
  H64      1.0000 0.31570  0.36210  0.78770  Biso   1.000  H
  C77      1.0000 0.78012  0.84097  0.38360  Biso   1.000  C
  C78      1.0000 0.71988  0.15903  0.38360  Biso   1.000  C
  C79      1.0000 0.71988  0.34097  0.11640  Biso   1.000  C
  C80      1.0000 0.78012  0.65903  0.11640  Biso   1.000  C
  C81      1.0000 0.21988  0.15903  0.61640  Biso   1.000  C
  C82      1.0000 0.28012  0.84097  0.61640  Biso   1.000  C
  C83      1.0000 0.28012  0.65903  0.88360  Biso   1.000  C
  C84      1.0000 0.21988  0.34097  0.88360  Biso   1.000  C
  C85      1.0000 0.81217  0.81246  0.46900  Biso   1.000  C
  C86      1.0000 0.68783  0.18754  0.46900  Biso   1.000  C
  C87      1.0000 0.68783  0.31246  0.03100  Biso   1.000  C
  C88      1.0000 0.81217  0.68754  0.03100  Biso   1.000  C
  C89      1.0000 0.18783  0.18754  0.53100  Biso   1.000  C
  C90      1.0000 0.31217  0.81246  0.53100  Biso   1.000  C
  C91      1.0000 0.31217  0.68754  0.96900  Biso   1.000  C
  C92      1.0000 0.18783  0.31246  0.96900  Biso   1.000  C
  H65      1.0000 0.80340  0.77090  0.51650  Biso   1.000  H
  H66      1.0000 0.69660  0.22910  0.51650  Biso   1.000  H
  H67      1.0000 0.69660  0.27090  0.98350  Biso   1.000  H
  H68      1.0000 0.80340  0.72910  0.98350  Biso   1.000  H
  H69      1.0000 0.19660  0.22910  0.48350  Biso   1.000  H
  H70      1.0000 0.30340  0.77090  0.48350  Biso   1.000  H
  H71      1.0000 0.30340  0.72910  0.01650  Biso   1.000  H
  H72      1.0000 0.19660  0.27090  0.01650  Biso   1.000  H
  C93      1.0000 0.85677  0.84416  0.48530  Biso   1.000  C
  C94      1.0000 0.64323  0.15584  0.48530  Biso   1.000  C
  C95      1.0000 0.64323  0.34416  0.01470  Biso   1.000  C
  C96      1.0000 0.85677  0.65584  0.01470  Biso   1.000  C
  C97      1.0000 0.14323  0.15584  0.51470  Biso   1.000  C
  C98      1.0000 0.35677  0.84416  0.51470  Biso   1.000  C
  C99      1.0000 0.35677  0.65584  0.98530  Biso   1.000  C
  C100     1.0000 0.14323  0.34416  0.98530  Biso   1.000  C
  H73      1.0000 0.87980  0.82030  0.53560  Biso   1.000  H
  H74      1.0000 0.62020  0.17970  0.53560  Biso   1.000  H
  H75      1.0000 0.62020  0.32030  0.96440  Biso   1.000  H
  H76      1.0000 0.87980  0.67970  0.96440  Biso   1.000  H
  H77      1.0000 0.12020  0.17970  0.46440  Biso   1.000  H
  H78      1.0000 0.37980  0.82030  0.46440  Biso   1.000  H
  H79      1.0000 0.37980  0.67970  0.03560  Biso   1.000  H
  H80      1.0000 0.12020  0.32030  0.03560  Biso   1.000  H
  C101     1.0000 0.86834  0.91008  0.42940  Biso   1.000  C
  C102     1.0000 0.63166  0.08992  0.42940  Biso   1.000  C
  C103     1.0000 0.63166  0.41008  0.07060  Biso   1.000  C
  C104     1.0000 0.86834  0.58992  0.07060  Biso   1.000  C
  C105     1.0000 0.13166  0.08992  0.57060  Biso   1.000  C
  C106     1.0000 0.36834  0.91008  0.57060  Biso   1.000  C
  C107     1.0000 0.36834  0.58992  0.92940  Biso   1.000  C
  C108     1.0000 0.13166  0.41008  0.92940  Biso   1.000  C
  C109     1.0000 0.83391  0.94365  0.34910  Biso   1.000  C
  C110     1.0000 0.66609  0.05635  0.34910  Biso   1.000  C
  C111     1.0000 0.66609  0.44365  0.15090  Biso   1.000  C
  C112     1.0000 0.83391  0.55635  0.15090  Biso   1.000  C
  C113     1.0000 0.16609  0.05635  0.65090  Biso   1.000  C
  C114     1.0000 0.33391  0.94365  0.65090  Biso   1.000  C
  C115     1.0000 0.33391  0.55635  0.84910  Biso   1.000  C
  C116     1.0000 0.16609  0.44365  0.84910  Biso   1.000  C
  H81      1.0000 0.84080  0.98980  0.31280  Biso   1.000  H
  H82      1.0000 0.65920  0.01020  0.31280  Biso   1.000  H
  H83      1.0000 0.65920  0.48980  0.18720  Biso   1.000  H
  H84      1.0000 0.84080  0.51020  0.18720  Biso   1.000  H
  H85      1.0000 0.15920  0.01020  0.68720  Biso   1.000  H
  H86      1.0000 0.34080  0.98980  0.68720  Biso   1.000  H
  H87      1.0000 0.34080  0.51020  0.81280  Biso   1.000  H
  H88      1.0000 0.15920  0.48980  0.81280  Biso   1.000  H
  C117     1.0000 0.79055  0.90896  0.32420  Biso   1.000  C
  C118     1.0000 0.70945  0.09104  0.32420  Biso   1.000  C
  C119     1.0000 0.70945  0.40896  0.17580  Biso   1.000  C
  C120     1.0000 0.79055  0.59104  0.17580  Biso   1.000  C
  C121     1.0000 0.20945  0.09104  0.67580  Biso   1.000  C
  C122     1.0000 0.29055  0.90896  0.67580  Biso   1.000  C
  C123     1.0000 0.29055  0.59104  0.82420  Biso   1.000  C
  C124     1.0000 0.20945  0.40896  0.82420  Biso   1.000  C
  H89      1.0000 0.76830  0.93020  0.26870  Biso   1.000  H
  H90      1.0000 0.73170  0.06980  0.26870  Biso   1.000  H
  H91      1.0000 0.73170  0.43020  0.23130  Biso   1.000  H
  H92      1.0000 0.76830  0.56980  0.23130  Biso   1.000  H
  H93      1.0000 0.23170  0.06980  0.73130  Biso   1.000  H
  H94      1.0000 0.26830  0.93020  0.73130  Biso   1.000  H
  H95      1.0000 0.26830  0.56980  0.76870  Biso   1.000  H
  H96      1.0000 0.23170  0.43020  0.76870  Biso   1.000  H
  C125     1.0000 0.91707  0.94615  0.45240  Biso   1.000  C
  C126     1.0000 0.58293  0.05385  0.45240  Biso   1.000  C
  C127     1.0000 0.58293  0.44615  0.04760  Biso   1.000  C
  C128     1.0000 0.91707  0.55385  0.04760  Biso   1.000  C
  C129     1.0000 0.08293  0.05385  0.54760  Biso   1.000  C
  C130     1.0000 0.41707  0.94615  0.54760  Biso   1.000  C
  C131     1.0000 0.41707  0.55385  0.95240  Biso   1.000  C
  C132     1.0000 0.08293  0.44615  0.95240  Biso   1.000  C
  Cu1      1.0000 0.48678  0.06021  0.56113  Biso   1.000  Cu
  Cu2      1.0000 0.01322  0.93979  0.56113  Biso   1.000  Cu
  Cu3      1.0000 0.01322  0.56021  0.93887  Biso   1.000  Cu
  Cu4      1.0000 0.48678  0.43979  0.93887  Biso   1.000  Cu
  Cu5      1.0000 0.51322  0.93979  0.43887  Biso   1.000  Cu
  Cu6      1.0000 0.98678  0.06021  0.43887  Biso   1.000  Cu
  Cu7      1.0000 0.98678  0.43979  0.06113  Biso   1.000  Cu
  Cu8      1.0000 0.51322  0.56021  0.06113  Biso   1.000  Cu
  O1       1.0000 0.51326  0.01030  0.71023  Biso   1.000  O
  O2       1.0000 0.98674  0.98970  0.71023  Biso   1.000  O
  O3       1.0000 0.98674  0.51030  0.78977  Biso   1.000  O
  O4       1.0000 0.51326  0.48970  0.78977  Biso   1.000  O
  O5       1.0000 0.48674  0.98970  0.28977  Biso   1.000  O
  O6       1.0000 0.01326  0.01030  0.28977  Biso   1.000  O
  O7       1.0000 0.01326  0.48970  0.21023  Biso   1.000  O
  O8       1.0000 0.48674  0.51030  0.21023  Biso   1.000  O
  O9       1.0000 0.53665  0.90940  0.60423  Biso   1.000  O
  O10      1.0000 0.96335  0.09060  0.60423  Biso   1.000  O
  O11      1.0000 0.96335  0.40940  0.89577  Biso   1.000  O
  O12      1.0000 0.53665  0.59060  0.89577  Biso   1.000  O
  O13      1.0000 0.46335  0.09060  0.39577  Biso   1.000  O
  O14      1.0000 0.03665  0.90940  0.39577  Biso   1.000  O
  O15      1.0000 0.03665  0.59060  0.10423  Biso   1.000  O
  O16      1.0000 0.46335  0.40940  0.10423  Biso   1.000  O
  O17      1.0000 0.61306  0.82613  0.14407  Biso   1.000  O
  O18      1.0000 0.88694  0.17387  0.14407  Biso   1.000  O
  O19      1.0000 0.88694  0.32613  0.35593  Biso   1.000  O
  O20      1.0000 0.61306  0.67387  0.35593  Biso   1.000  O
  O21      1.0000 0.38694  0.17387  0.85593  Biso   1.000  O
  O22      1.0000 0.11306  0.82613  0.85593  Biso   1.000  O
  O23      1.0000 0.11306  0.67387  0.64407  Biso   1.000  O
  O24      1.0000 0.38694  0.32613  0.64407  Biso   1.000  O
  O25      1.0000 0.73689  0.80203  0.37252  Biso   1.000  O
  O26      1.0000 0.76311  0.19797  0.37252  Biso   1.000  O
  O27      1.0000 0.76311  0.30203  0.12748  Biso   1.000  O
  O28      1.0000 0.73689  0.69797  0.12748  Biso   1.000  O
  O29      1.0000 0.26311  0.19797  0.62748  Biso   1.000  O
  O30      1.0000 0.23689  0.80203  0.62748  Biso   1.000  O
  O31      1.0000 0.23689  0.69797  0.87252  Biso   1.000  O
  O32      1.0000 0.26311  0.30203  0.87252  Biso   1.000  O
  O33      1.0000 0.92428  0.01023  0.40622  Biso   1.000  O
  O34      1.0000 0.57572  0.98977  0.40622  Biso   1.000  O
  O35      1.0000 0.57572  0.51023  0.09378  Biso   1.000  O
  O36      1.0000 0.92428  0.48977  0.09378  Biso   1.000  O
  O37      1.0000 0.07572  0.98977  0.59378  Biso   1.000  O
  O38      1.0000 0.42428  0.01023  0.59378  Biso   1.000  O
  O39      1.0000 0.42428  0.48977  0.90622  Biso   1.000  O
  O40      1.0000 0.07572  0.51023  0.90622  Biso   1.000  O
  O41      1.0000 0.94672  0.90910  0.51603  Biso   1.000  O
  O42      1.0000 0.55328  0.09090  0.51603  Biso   1.000  O
  O43      1.0000 0.55328  0.40910  0.98397  Biso   1.000  O
  O44      1.0000 0.94672  0.59090  0.98397  Biso   1.000  O
  O45      1.0000 0.05328  0.09090  0.48397  Biso   1.000  O
  O46      1.0000 0.44672  0.90910  0.48397  Biso   1.000  O
  O47      1.0000 0.44672  0.59090  0.01603  Biso   1.000  O
  O48      1.0000 0.05328  0.40910  0.01603  Biso   1.000  O
  O49      1.0000 0.46992  0.16459  0.65680  Biso   1.000  O
  O50      1.0000 0.03008  0.83541  0.65680  Biso   1.000  O
  O51      1.0000 0.03008  0.66459  0.84320  Biso   1.000  O
  O52      1.0000 0.46992  0.33541  0.84320  Biso   1.000  O
  O53      1.0000 0.53008  0.83541  0.34320  Biso   1.000  O
  O54      1.0000 0.96992  0.16459  0.34320  Biso   1.000  O
  O55      1.0000 0.96992  0.33541  0.15680  Biso   1.000  O
  O56      1.0000 0.53008  0.66459  0.15680  Biso   1.000  O
  H97      1.0000 0.48040  0.20610  0.60620  Biso   1.000  H
  H98      1.0000 0.01960  0.79390  0.60620  Biso   1.000  H
  H99      1.0000 0.01960  0.70610  0.89380  Biso   1.000  H
  H100     1.0000 0.48040  0.29390  0.89380  Biso   1.000  H
  H101     1.0000 0.51960  0.79390  0.39380  Biso   1.000  H
  H102     1.0000 0.98040  0.20610  0.39380  Biso   1.000  H
  H103     1.0000 0.98040  0.29390  0.10620  Biso   1.000  H
  H104     1.0000 0.51960  0.70610  0.10620  Biso   1.000  H
  H105     1.0000 0.48660  0.16600  0.73590  Biso   1.000  H
  H106     1.0000 0.01340  0.83400  0.73590  Biso   1.000  H
  H107     1.0000 0.01340  0.66600  0.76410  Biso   1.000  H
  H108     1.0000 0.48660  0.33400  0.76410  Biso   1.000  H
  H109     1.0000 0.51340  0.83400  0.26410  Biso   1.000  H
  H110     1.0000 0.98660  0.16600  0.26410  Biso   1.000  H
  H111     1.0000 0.98660  0.33400  0.23590  Biso   1.000  H
  H112     1.0000 0.51340  0.66600  0.23590  Biso   1.000  H
  C133     1.0000 0.88296  0.89305  0.90040  Biso   1.000  C
  C134     1.0000 0.61704  0.10695  0.90040  Biso   1.000  C
  C135     1.0000 0.61704  0.39305  0.59960  Biso   1.000  C
  C136     1.0000 0.88296  0.60695  0.59960  Biso   1.000  C
  C137     1.0000 0.11704  0.10695  0.09960  Biso   1.000  C
  C138     1.0000 0.38296  0.89305  0.09960  Biso   1.000  C
  C139     1.0000 0.38296  0.60695  0.40040  Biso   1.000  C
  C140     1.0000 0.11704  0.39305  0.40040  Biso   1.000  C
  H113     1.0000 0.91000  0.91400  0.85520  Biso   1.000  H
  H114     1.0000 0.59000  0.08600  0.85520  Biso   1.000  H
  H115     1.0000 0.59000  0.41400  0.64480  Biso   1.000  H
  H116     1.0000 0.91000  0.58600  0.64480  Biso   1.000  H
  H117     1.0000 0.09000  0.08600  0.14480  Biso   1.000  H
  H118     1.0000 0.41000  0.91400  0.14480  Biso   1.000  H
  H119     1.0000 0.41000  0.58600  0.35520  Biso   1.000  H
  H120     1.0000 0.09000  0.41400  0.35520  Biso   1.000  H
  H121     1.0000 0.86320  0.93280  0.93380  Biso   1.000  H
  H122     1.0000 0.63680  0.06720  0.93380  Biso   1.000  H
  H123     1.0000 0.63680  0.43280  0.56620  Biso   1.000  H
  H124     1.0000 0.86320  0.56720  0.56620  Biso   1.000  H
  H125     1.0000 0.13680  0.06720  0.06620  Biso   1.000  H
  H126     1.0000 0.36320  0.93280  0.06620  Biso   1.000  H
  H127     1.0000 0.36320  0.56720  0.43380  Biso   1.000  H
  H128     1.0000 0.13680  0.43280  0.43380  Biso   1.000  H
  H129     1.0000 0.86360  0.86290  0.84480  Biso   1.000  H
  H130     1.0000 0.63640  0.13710  0.84480  Biso   1.000  H
  H131     1.0000 0.63640  0.36290  0.65520  Biso   1.000  H
  H132     1.0000 0.86360  0.63710  0.65520  Biso   1.000  H
  H133     1.0000 0.13640  0.13710  0.15520  Biso   1.000  H
  H134     1.0000 0.36360  0.86290  0.15520  Biso   1.000  H
  H135     1.0000 0.36360  0.63710  0.34480  Biso   1.000  H
  H136     1.0000 0.13640  0.36290  0.34480  Biso   1.000  H
  C141     1.0000 0.87045  0.83349  0.12190  Biso   1.000  C
  C142     1.0000 0.62955  0.16651  0.12190  Biso   1.000  C
  C143     1.0000 0.62955  0.33349  0.37810  Biso   1.000  C
  C144     1.0000 0.87045  0.66651  0.37810  Biso   1.000  C
  C145     1.0000 0.12955  0.16651  0.87810  Biso   1.000  C
  C146     1.0000 0.37045  0.83349  0.87810  Biso   1.000  C
  C147     1.0000 0.37045  0.66651  0.62190  Biso   1.000  C
  C148     1.0000 0.12955  0.33349  0.62190  Biso   1.000  C
  H137     1.0000 0.86510  0.78090  0.13530  Biso   1.000  H
  H138     1.0000 0.63490  0.21910  0.13530  Biso   1.000  H
  H139     1.0000 0.63490  0.28090  0.36470  Biso   1.000  H
  H140     1.0000 0.86510  0.71910  0.36470  Biso   1.000  H
  H141     1.0000 0.13490  0.21910  0.86470  Biso   1.000  H
  H142     1.0000 0.36510  0.78090  0.86470  Biso   1.000  H
  H143     1.0000 0.36510  0.71910  0.63530  Biso   1.000  H
  H144     1.0000 0.13490  0.28090  0.63530  Biso   1.000  H
  H145     1.0000 0.83960  0.85810  0.10940  Biso   1.000  H
  H146     1.0000 0.66040  0.14190  0.10940  Biso   1.000  H
  H147     1.0000 0.66040  0.35810  0.39060  Biso   1.000  H
  H148     1.0000 0.83960  0.64190  0.39060  Biso   1.000  H
  H149     1.0000 0.16040  0.14190  0.89060  Biso   1.000  H
  H150     1.0000 0.33960  0.85810  0.89060  Biso   1.000  H
  H151     1.0000 0.33960  0.64190  0.60940  Biso   1.000  H
  H152     1.0000 0.16040  0.35810  0.60940  Biso   1.000  H
  H153     1.0000 0.88650  0.85450  0.19370  Biso   1.000  H
  H154     1.0000 0.61350  0.14550  0.19370  Biso   1.000  H
  H155     1.0000 0.61350  0.35450  0.30630  Biso   1.000  H
  H156     1.0000 0.88650  0.64550  0.30630  Biso   1.000  H
  H157     1.0000 0.11350  0.14550  0.80630  Biso   1.000  H
  H158     1.0000 0.38650  0.85450  0.80630  Biso   1.000  H
  H159     1.0000 0.38650  0.64550  0.69370  Biso   1.000  H
  H160     1.0000 0.11350  0.35450  0.69370  Biso   1.000  H
  C149     1.0000 0.94862  0.80505  0.99590  Biso   1.000  C
  C150     1.0000 0.55138  0.19495  0.99590  Biso   1.000  C
  C151     1.0000 0.55138  0.30505  0.50410  Biso   1.000  C
  C152     1.0000 0.94862  0.69495  0.50410  Biso   1.000  C
  C153     1.0000 0.05138  0.19495  0.00410  Biso   1.000  C
  C154     1.0000 0.44862  0.80505  0.00410  Biso   1.000  C
  C155     1.0000 0.44862  0.69495  0.49590  Biso   1.000  C
  C156     1.0000 0.05138  0.30505  0.49590  Biso   1.000  C
  C157     1.0000 0.96220  0.74589  0.09220  Biso   1.000  C
  C158     1.0000 0.53780  0.25411  0.09220  Biso   1.000  C
  C159     1.0000 0.53780  0.24589  0.40780  Biso   1.000  C
  C160     1.0000 0.96220  0.75411  0.40780  Biso   1.000  C
  C161     1.0000 0.03780  0.25411  0.90780  Biso   1.000  C
  C162     1.0000 0.46220  0.74589  0.90780  Biso   1.000  C
  C163     1.0000 0.46220  0.75411  0.59220  Biso   1.000  C
  C164     1.0000 0.03780  0.24589  0.59220  Biso   1.000  C
  H161     1.0000 0.93500  0.73770  0.14760  Biso   1.000  H
  H162     1.0000 0.56500  0.26230  0.14760  Biso   1.000  H
  H163     1.0000 0.56500  0.23770  0.35240  Biso   1.000  H
  H164     1.0000 0.93500  0.76230  0.35240  Biso   1.000  H
  H165     1.0000 0.06500  0.26230  0.85240  Biso   1.000  H
  H166     1.0000 0.43500  0.73770  0.85240  Biso   1.000  H
  H167     1.0000 0.43500  0.76230  0.64760  Biso   1.000  H
  H168     1.0000 0.06500  0.23770  0.64760  Biso   1.000  H
  H169     1.0000 0.98990  0.76270  0.13980  Biso   1.000  H
  H170     1.0000 0.51010  0.23730  0.13980  Biso   1.000  H
  H171     1.0000 0.51010  0.26270  0.36020  Biso   1.000  H
  H172     1.0000 0.98990  0.73730  0.36020  Biso   1.000  H
  H173     1.0000 0.01010  0.23730  0.86020  Biso   1.000  H
  H174     1.0000 0.48990  0.76270  0.86020  Biso   1.000  H
  H175     1.0000 0.48990  0.73730  0.63980  Biso   1.000  H
  H176     1.0000 0.01010  0.26270  0.63980  Biso   1.000  H
  H177     1.0000 0.97020  0.69990  0.05030  Biso   1.000  H
  H178     1.0000 0.52980  0.30010  0.05030  Biso   1.000  H
  H179     1.0000 0.52980  0.19990  0.44970  Biso   1.000  H
  H180     1.0000 0.97020  0.80010  0.44970  Biso   1.000  H
  H181     1.0000 0.02980  0.30010  0.94970  Biso   1.000  H
  H182     1.0000 0.47020  0.69990  0.94970  Biso   1.000  H
  H183     1.0000 0.47020  0.80010  0.55030  Biso   1.000  H
  H184     1.0000 0.02980  0.19990  0.55030  Biso   1.000  H
  N1       1.0000 0.90210  0.84432  0.00760  Biso   1.000  N
  N2       1.0000 0.59790  0.15568  0.00760  Biso   1.000  N
  N3       1.0000 0.59790  0.34432  0.49240  Biso   1.000  N
  N4       1.0000 0.90210  0.65568  0.49240  Biso   1.000  N
  N5       1.0000 0.09790  0.15568  0.99240  Biso   1.000  N
  N6       1.0000 0.40210  0.84432  0.99240  Biso   1.000  N
  N7       1.0000 0.40210  0.65568  0.50760  Biso   1.000  N
  N8       1.0000 0.09790  0.34432  0.50760  Biso   1.000  N
  O57      1.0000 0.97963  0.82635  0.91819  Biso   1.000  O
  O58      1.0000 0.52037  0.17365  0.91819  Biso   1.000  O
  O59      1.0000 0.52037  0.32635  0.58181  Biso   1.000  O
  O60      1.0000 0.97963  0.67365  0.58181  Biso   1.000  O
  O61      1.0000 0.02037  0.17365  0.08181  Biso   1.000  O
  O62      1.0000 0.47963  0.82635  0.08181  Biso   1.000  O
  O63      1.0000 0.47963  0.67365  0.41819  Biso   1.000  O
  O64      1.0000 0.02037  0.32635  0.41819  Biso   1.000  O
