data_image0
_cell_length_a       8.77
_cell_length_b       7.25
_cell_length_c       9.17
_cell_angle_alpha    90
_cell_angle_beta     98
_cell_angle_gamma    90

_symmetry_space_group_name_H-M    "P 1"
_symmetry_int_tables_number       1

loop_
  _symmetry_equiv_pos_as_xyz
  'x, y, z'

loop_
  _atom_site_label
  _atom_site_occupancy
  _atom_site_fract_x
  _atom_site_fract_y
  _atom_site_fract_z
  _atom_site_thermal_displace_type
  _atom_site_B_iso_or_equiv
  _atom_site_type_symbol
  Cu1      1.0000 0.00000  0.00000  0.00000  Biso   1.000  Cu
  Cu2      1.0000 0.00000  0.50000  0.50000  Biso   1.000  Cu
  Zn1      1.0000 0.50000  0.50000  0.00000  Biso   1.000  Zn
  Zn2      1.0000 0.50000  0.00000  0.50000  Biso   1.000  Zn
  C1       1.0000 0.03400  0.22600  0.27700  Biso   1.000  C
  C2       1.0000 0.96600  0.72600  0.22300  Biso   1.000  C
  C3       1.0000 0.96600  0.77400  0.72300  Biso   1.000  C
  C4       1.0000 0.03400  0.27400  0.77700  Biso   1.000  C
  C5       1.0000 0.67600  0.11200  0.06200  Biso   1.000  C
  C6       1.0000 0.32400  0.61200  0.43800  Biso   1.000  C
  C7       1.0000 0.32400  0.88800  0.93800  Biso   1.000  C
  C8       1.0000 0.67600  0.38800  0.56200  Biso   1.000  C
  O1       1.0000 0.09500  0.10300  0.20700  Biso   1.000  O
  O2       1.0000 0.90500  0.60300  0.29300  Biso   1.000  O
  O3       1.0000 0.90500  0.89700  0.79300  Biso   1.000  O
  O4       1.0000 0.09500  0.39700  0.70700  Biso   1.000  O
  O5       1.0000 0.08700  0.27900  0.40500  Biso   1.000  O
  O6       1.0000 0.91300  0.77900  0.09500  Biso   1.000  O
  O7       1.0000 0.91300  0.72100  0.59500  Biso   1.000  O
  O8       1.0000 0.08700  0.22100  0.90500  Biso   1.000  O
  O9       1.0000 0.56400  0.22200  0.08000  Biso   1.000  O
  O10      1.0000 0.43600  0.72200  0.42000  Biso   1.000  O
  O11      1.0000 0.43600  0.77800  0.92000  Biso   1.000  O
  O12      1.0000 0.56400  0.27800  0.58000  Biso   1.000  O
  O13      1.0000 0.78600  0.16400  0.99800  Biso   1.000  O
  O14      1.0000 0.21400  0.66400  0.50200  Biso   1.000  O
  O15      1.0000 0.21400  0.83600  0.00200  Biso   1.000  O
  O16      1.0000 0.78600  0.33600  0.49800  Biso   1.000  O
  O17      1.0000 0.28400  0.47400  0.07300  Biso   1.000  O
  O18      1.0000 0.71600  0.97400  0.42700  Biso   1.000  O
  O19      1.0000 0.71600  0.52600  0.92700  Biso   1.000  O
  O20      1.0000 0.28400  0.02600  0.57300  Biso   1.000  O
  O21      1.0000 0.58700  0.60700  0.20000  Biso   1.000  O
  O22      1.0000 0.41300  0.10700  0.30000  Biso   1.000  O
  O23      1.0000 0.41300  0.39300  0.80000  Biso   1.000  O
  O24      1.0000 0.58700  0.89300  0.70000  Biso   1.000  O
