data_image0
_cell_length_a       11.587
_cell_length_b       5.084
_cell_length_c       29.6
_cell_angle_alpha    90
_cell_angle_beta     103.76
_cell_angle_gamma    90

_symmetry_space_group_name_H-M    "P 1"
_symmetry_int_tables_number       1

loop_
  _symmetry_equiv_pos_as_xyz
  'x, y, z'

loop_
  _atom_site_label
  _atom_site_occupancy
  _atom_site_fract_x
  _atom_site_fract_y
  _atom_site_fract_z
  _atom_site_thermal_displace_type
  _atom_site_B_iso_or_equiv
  _atom_site_type_symbol
  Cu1      1.0000 0.98620  0.71720  0.97670  Biso   1.000  Cu
  Cu2      1.0000 0.01380  0.21720  0.52330  Biso   1.000  Cu
  Cu3      1.0000 0.01380  0.28280  0.02330  Biso   1.000  Cu
  Cu4      1.0000 0.98620  0.78280  0.47670  Biso   1.000  Cu
  C1       1.0000 0.33160  0.65310  0.91770  Biso   1.000  C
  C2       1.0000 0.66840  0.15310  0.58230  Biso   1.000  C
  C3       1.0000 0.66840  0.34690  0.08230  Biso   1.000  C
  C4       1.0000 0.33160  0.84690  0.41770  Biso   1.000  C
  C5       1.0000 0.37810  0.84000  0.89290  Biso   1.000  C
  C6       1.0000 0.62190  0.34000  0.60710  Biso   1.000  C
  C7       1.0000 0.62190  0.16000  0.10710  Biso   1.000  C
  C8       1.0000 0.37810  0.66000  0.39290  Biso   1.000  C
  Cl1      1.0000 0.49550  0.03410  0.92120  Biso   1.000  Cl
  Cl2      1.0000 0.50450  0.53410  0.57880  Biso   1.000  Cl
  Cl3      1.0000 0.50450  0.96590  0.07880  Biso   1.000  Cl
  Cl4      1.0000 0.49550  0.46590  0.42120  Biso   1.000  Cl
  C9       1.0000 0.33310  0.86720  0.84430  Biso   1.000  C
  C10      1.0000 0.66690  0.36720  0.65570  Biso   1.000  C
  C11      1.0000 0.66690  0.13280  0.15570  Biso   1.000  C
  C12      1.0000 0.33310  0.63280  0.34430  Biso   1.000  C
  C13      1.0000 0.24120  0.70710  0.82260  Biso   1.000  C
  C14      1.0000 0.75880  0.20710  0.67740  Biso   1.000  C
  C15      1.0000 0.75880  0.29290  0.17740  Biso   1.000  C
  C16      1.0000 0.24120  0.79290  0.32260  Biso   1.000  C
  C17      1.0000 0.19780  0.51570  0.84670  Biso   1.000  C
  C18      1.0000 0.80220  0.01570  0.65330  Biso   1.000  C
  C19      1.0000 0.80220  0.48430  0.15330  Biso   1.000  C
  C20      1.0000 0.19780  0.98430  0.34670  Biso   1.000  C
  C21      1.0000 0.24150  0.48740  0.89410  Biso   1.000  C
  C22      1.0000 0.75850  0.98740  0.60590  Biso   1.000  C
  C23      1.0000 0.75850  0.51260  0.10590  Biso   1.000  C
  C24      1.0000 0.24150  0.01260  0.39410  Biso   1.000  C
  O1       1.0000 0.37900  0.64710  0.96510  Biso   1.000  O
  O2       1.0000 0.62100  0.14710  0.53490  Biso   1.000  O
  O3       1.0000 0.62100  0.35290  0.03490  Biso   1.000  O
  O4       1.0000 0.37900  0.85290  0.46510  Biso   1.000  O
  C25      1.0000 0.33890  0.45200  0.99200  Biso   1.000  C
  C26      1.0000 0.66110  0.95200  0.50800  Biso   1.000  C
  C27      1.0000 0.66110  0.54800  0.00800  Biso   1.000  C
  C28      1.0000 0.33890  0.04800  0.49200  Biso   1.000  C
  C29      1.0000 0.21280  0.49040  0.99700  Biso   1.000  C
  C30      1.0000 0.78720  0.99040  0.50300  Biso   1.000  C
  C31      1.0000 0.78720  0.50960  0.00300  Biso   1.000  C
  C32      1.0000 0.21280  0.00960  0.49700  Biso   1.000  C
  O5       1.0000 0.15500  0.68600  0.97900  Biso   1.000  O
  O6       1.0000 0.84500  0.18600  0.52100  Biso   1.000  O
  O7       1.0000 0.84500  0.31400  0.02100  Biso   1.000  O
  O8       1.0000 0.15500  0.81400  0.47900  Biso   1.000  O
  O9       1.0000 0.82270  0.69010  0.98050  Biso   1.000  O
  O10      1.0000 0.17730  0.19010  0.51950  Biso   1.000  O
  O11      1.0000 0.17730  0.30990  0.01950  Biso   1.000  O
  O12      1.0000 0.82270  0.80990  0.48050  Biso   1.000  O
  H1       1.0000 0.34040  0.99780  0.82420  Biso   1.000  H
  H2       1.0000 0.65960  0.49780  0.67580  Biso   1.000  H
  H3       1.0000 0.65960  0.00220  0.17580  Biso   1.000  H
  H4       1.0000 0.34040  0.50220  0.32420  Biso   1.000  H
  H5       1.0000 0.20350  0.68360  0.78620  Biso   1.000  H
  H6       1.0000 0.79650  0.18360  0.71380  Biso   1.000  H
  H7       1.0000 0.79650  0.31640  0.21380  Biso   1.000  H
  H8       1.0000 0.20350  0.81640  0.28620  Biso   1.000  H
  H9       1.0000 0.12200  0.38580  0.83240  Biso   1.000  H
  H10      1.0000 0.87800  0.88580  0.66760  Biso   1.000  H
  H11      1.0000 0.87800  0.61420  0.16760  Biso   1.000  H
  H12      1.0000 0.12200  0.11420  0.33240  Biso   1.000  H
  H13      1.0000 0.22350  0.31130  0.91450  Biso   1.000  H
  H14      1.0000 0.77650  0.81130  0.58550  Biso   1.000  H
  H15      1.0000 0.77650  0.68870  0.08550  Biso   1.000  H
  H16      1.0000 0.22350  0.18870  0.41450  Biso   1.000  H
  H17      1.0000 0.37970  0.49510  0.01820  Biso   1.000  H
  H18      1.0000 0.62030  0.99510  0.48180  Biso   1.000  H
  H19      1.0000 0.62030  0.50490  0.98180  Biso   1.000  H
  H20      1.0000 0.37970  0.00490  0.51820  Biso   1.000  H
  H21      1.0000 0.34540  0.26780  0.98000  Biso   1.000  H
  H22      1.0000 0.65460  0.76780  0.52000  Biso   1.000  H
  H23      1.0000 0.65460  0.73220  0.02000  Biso   1.000  H
  H24      1.0000 0.34540  0.23220  0.48000  Biso   1.000  H
  C33      1.0000 0.79130  0.40440  0.82480  Biso   1.000  C
  C34      1.0000 0.20870  0.90440  0.67520  Biso   1.000  C
  C35      1.0000 0.20870  0.59560  0.17520  Biso   1.000  C
  C36      1.0000 0.79130  0.09560  0.32480  Biso   1.000  C
  C37      1.0000 0.78170  0.60430  0.79200  Biso   1.000  C
  C38      1.0000 0.21830  0.10430  0.70800  Biso   1.000  C
  C39      1.0000 0.21830  0.39570  0.20800  Biso   1.000  C
  C40      1.0000 0.78170  0.89570  0.29200  Biso   1.000  C
  Cl5      1.0000 0.90440  0.67720  0.76980  Biso   1.000  Cl
  Cl6      1.0000 0.09560  0.17720  0.73020  Biso   1.000  Cl
  Cl7      1.0000 0.09560  0.32280  0.23020  Biso   1.000  Cl
  Cl8      1.0000 0.90440  0.82280  0.26980  Biso   1.000  Cl
  C41      1.0000 0.67940  0.73980  0.77580  Biso   1.000  C
  C42      1.0000 0.32060  0.23980  0.72420  Biso   1.000  C
  C43      1.0000 0.32060  0.26020  0.22420  Biso   1.000  C
  C44      1.0000 0.67940  0.76020  0.27580  Biso   1.000  C
  C45      1.0000 0.58300  0.68560  0.79530  Biso   1.000  C
  C46      1.0000 0.41700  0.18560  0.70470  Biso   1.000  C
  C47      1.0000 0.41700  0.31440  0.20470  Biso   1.000  C
  C48      1.0000 0.58300  0.81440  0.29530  Biso   1.000  C
  C49      1.0000 0.59060  0.49320  0.82900  Biso   1.000  C
  C50      1.0000 0.40940  0.99320  0.67100  Biso   1.000  C
  C51      1.0000 0.40940  0.50680  0.17100  Biso   1.000  C
  C52      1.0000 0.59060  0.00680  0.32900  Biso   1.000  C
  C53      1.0000 0.69640  0.35400  0.84410  Biso   1.000  C
  C54      1.0000 0.30360  0.85400  0.65590  Biso   1.000  C
  C55      1.0000 0.30360  0.64600  0.15590  Biso   1.000  C
  C56      1.0000 0.69640  0.14600  0.34410  Biso   1.000  C
  O13      1.0000 0.89790  0.27370  0.83600  Biso   1.000  O
  O14      1.0000 0.10210  0.77370  0.66400  Biso   1.000  O
  O15      1.0000 0.10210  0.72630  0.16400  Biso   1.000  O
  O16      1.0000 0.89790  0.22630  0.33600  Biso   1.000  O
  C57      1.0000 0.92350  0.10810  0.87590  Biso   1.000  C
  C58      1.0000 0.07650  0.60810  0.62410  Biso   1.000  C
  C59      1.0000 0.07650  0.89190  0.12410  Biso   1.000  C
  C60      1.0000 0.92350  0.39190  0.37590  Biso   1.000  C
  C61      1.0000 0.94950  0.26710  0.92080  Biso   1.000  C
  C62      1.0000 0.05050  0.76710  0.57920  Biso   1.000  C
  C63      1.0000 0.05050  0.73290  0.07920  Biso   1.000  C
  C64      1.0000 0.94950  0.23290  0.42080  Biso   1.000  C
  O17      1.0000 0.95010  0.50800  0.91950  Biso   1.000  O
  O18      1.0000 0.04990  0.00800  0.58050  Biso   1.000  O
  O19      1.0000 0.04990  0.49200  0.08050  Biso   1.000  O
  O20      1.0000 0.95010  0.99200  0.41950  Biso   1.000  O
  O21      1.0000 0.02730  0.86920  0.04180  Biso   1.000  O
  O22      1.0000 0.97270  0.36920  0.45820  Biso   1.000  O
  O23      1.0000 0.97270  0.13080  0.95820  Biso   1.000  O
  O24      1.0000 0.02730  0.63080  0.54180  Biso   1.000  O
  H25      1.0000 0.65830  0.88380  0.74470  Biso   1.000  H
  H26      1.0000 0.34170  0.38380  0.75530  Biso   1.000  H
  H27      1.0000 0.34170  0.11620  0.25530  Biso   1.000  H
  H28      1.0000 0.65830  0.61620  0.24470  Biso   1.000  H
  H29      1.0000 0.50030  0.80930  0.78590  Biso   1.000  H
  H30      1.0000 0.49970  0.30930  0.71410  Biso   1.000  H
  H31      1.0000 0.49970  0.19070  0.21410  Biso   1.000  H
  H32      1.0000 0.50030  0.69070  0.28590  Biso   1.000  H
  H33      1.0000 0.53060  0.44990  0.85020  Biso   1.000  H
  H34      1.0000 0.46940  0.94990  0.64980  Biso   1.000  H
  H35      1.0000 0.46940  0.55010  0.14980  Biso   1.000  H
  H36      1.0000 0.53060  0.05010  0.35020  Biso   1.000  H
  H37      1.0000 0.69240  0.21600  0.86160  Biso   1.000  H
  H38      1.0000 0.30760  0.71600  0.63840  Biso   1.000  H
  H39      1.0000 0.30760  0.78400  0.13840  Biso   1.000  H
  H40      1.0000 0.69240  0.28400  0.36160  Biso   1.000  H
  H41      1.0000 0.86250  0.00100  0.87310  Biso   1.000  H
  H42      1.0000 0.13750  0.50100  0.62690  Biso   1.000  H
  H43      1.0000 0.13750  0.99900  0.12690  Biso   1.000  H
  H44      1.0000 0.86250  0.49900  0.37310  Biso   1.000  H
  H45      1.0000 0.98890  0.02850  0.87630  Biso   1.000  H
  H46      1.0000 0.01110  0.52850  0.62370  Biso   1.000  H
  H47      1.0000 0.01110  0.97150  0.12370  Biso   1.000  H
  H48      1.0000 0.98890  0.47150  0.37630  Biso   1.000  H
