data_image0
_cell_length_a       7.403
_cell_length_b       8.726
_cell_length_c       9.586
_cell_angle_alpha    107.58
_cell_angle_beta     96.66
_cell_angle_gamma    102.51

_symmetry_space_group_name_H-M    "P 1"
_symmetry_int_tables_number       1

loop_
  _symmetry_equiv_pos_as_xyz
  'x, y, z'

loop_
  _atom_site_label
  _atom_site_occupancy
  _atom_site_fract_x
  _atom_site_fract_y
  _atom_site_fract_z
  _atom_site_thermal_displace_type
  _atom_site_B_iso_or_equiv
  _atom_site_type_symbol
  C1       1.0000 0.86060  0.10260  0.84190  Biso   1.000  C
  C2       1.0000 0.13940  0.89740  0.15810  Biso   1.000  C
  C3       1.0000 0.78500  0.19570  0.95530  Biso   1.000  C
  C4       1.0000 0.21500  0.80430  0.04470  Biso   1.000  C
  H1       1.0000 0.65650  0.18790  0.93870  Biso   1.000  H
  H2       1.0000 0.34350  0.81210  0.06130  Biso   1.000  H
  C5       1.0000 0.89610  0.29870  0.09080  Biso   1.000  C
  C6       1.0000 0.10390  0.70130  0.90920  Biso   1.000  C
  H3       1.0000 0.84310  0.35950  0.16460  Biso   1.000  H
  H4       1.0000 0.15690  0.64050  0.83540  Biso   1.000  H
  C7       1.0000 0.08790  0.31080  0.11600  Biso   1.000  C
  C8       1.0000 0.91210  0.68920  0.88400  Biso   1.000  C
  C9       1.0000 0.16480  0.21680  0.00840  Biso   1.000  C
  C10      1.0000 0.83520  0.78320  0.99160  Biso   1.000  C
  H5       1.0000 0.29280  0.22350  0.02830  Biso   1.000  H
  H6       1.0000 0.70720  0.77650  0.97170  Biso   1.000  H
  C11      1.0000 0.05600  0.11180  0.87030  Biso   1.000  C
  C12      1.0000 0.94400  0.88820  0.12970  Biso   1.000  C
  C13      1.0000 0.15300  0.02410  0.75820  Biso   1.000  C
  C14      1.0000 0.84700  0.97590  0.24180  Biso   1.000  C
  O1       1.0000 0.08820  0.51650  0.38140  Biso   1.000  O
  O2       1.0000 0.91180  0.48350  0.61860  Biso   1.000  O
  O3       1.0000 0.31470  0.35720  0.36360  Biso   1.000  O
  O4       1.0000 0.68530  0.64280  0.63640  Biso   1.000  O
  O5       1.0000 0.33650  0.57660  0.25130  Biso   1.000  O
  O6       1.0000 0.66350  0.42340  0.74870  Biso   1.000  O
  O7       1.0000 0.44830  0.13850  0.54930  Biso   1.000  O
  O8       1.0000 0.55170  0.86150  0.45070  Biso   1.000  O
  O9       1.0000 0.16500  0.30350  0.63620  Biso   1.000  O
  O10      1.0000 0.83500  0.69650  0.36380  Biso   1.000  O
  O11      1.0000 0.74620  0.01300  0.71270  Biso   1.000  O
  O12      1.0000 0.25380  0.98700  0.28730  Biso   1.000  O
  O13      1.0000 0.06670  0.92330  0.62790  Biso   1.000  O
  O14      1.0000 0.93330  0.07670  0.37210  Biso   1.000  O
  O15      1.0000 0.32960  0.05270  0.79150  Biso   1.000  O
  O16      1.0000 0.67040  0.94730  0.20850  Biso   1.000  O
  O17      1.0000 0.35830  0.72500  0.64770  Biso   1.000  O
  O18      1.0000 0.64170  0.27500  0.35230  Biso   1.000  O
  Cu1      1.0000 0.19695  0.13645  0.45376  Biso   1.000  Cu
  Cu2      1.0000 0.80305  0.86355  0.54624  Biso   1.000  Cu
  Cu3      1.0000 0.43567  0.94751  0.62456  Biso   1.000  Cu
  Cu4      1.0000 0.56433  0.05249  0.37544  Biso   1.000  Cu
  S1       1.0000 0.23537  0.45130  0.28303  Biso   1.000  S
  S2       1.0000 0.76463  0.54870  0.71697  Biso   1.000  S
  O19      1.0000 0.39300  0.48610  0.89400  Biso   1.000  O
  O20      1.0000 0.60700  0.51390  0.10600  Biso   1.000  O
  O21      1.0000 0.84910  0.43400  0.64340  Biso   1.000  O
  O22      1.0000 0.15090  0.56600  0.35660  Biso   1.000  O
  O23      1.0000 0.58230  0.45640  0.76340  Biso   1.000  O
  O24      1.0000 0.41770  0.54360  0.23660  Biso   1.000  O
