data_image0
_cell_length_a       17.543
_cell_length_b       13.344
_cell_length_c       8.459
_cell_angle_alpha    77.89
_cell_angle_beta     81.43
_cell_angle_gamma    87.61

_symmetry_space_group_name_H-M    "P 1"
_symmetry_int_tables_number       1

loop_
  _symmetry_equiv_pos_as_xyz
  'x, y, z'

loop_
  _atom_site_label
  _atom_site_occupancy
  _atom_site_fract_x
  _atom_site_fract_y
  _atom_site_fract_z
  _atom_site_thermal_displace_type
  _atom_site_B_iso_or_equiv
  _atom_site_type_symbol
  Cu1      1.0000 0.92920  0.97610  0.58890  Biso   1.000  Cu
  Cu2      1.0000 0.07080  0.02390  0.41110  Biso   1.000  Cu
  Cu3      1.0000 0.57260  0.96770  0.95670  Biso   1.000  Cu
  Cu4      1.0000 0.42740  0.03230  0.04330  Biso   1.000  Cu
  N1       1.0000 0.81430  0.91080  0.71030  Biso   1.000  N
  N2       1.0000 0.18570  0.08920  0.28970  Biso   1.000  N
  C1       1.0000 0.75400  0.95250  0.79200  Biso   1.000  C
  C2       1.0000 0.24600  0.04750  0.20800  Biso   1.000  C
  N3       1.0000 0.68560  0.90640  0.85020  Biso   1.000  N
  N4       1.0000 0.31440  0.09360  0.14980  Biso   1.000  N
  C3       1.0000 0.67840  0.81140  0.82530  Biso   1.000  C
  C4       1.0000 0.32160  0.18860  0.17470  Biso   1.000  C
  C5       1.0000 0.73980  0.75500  0.76220  Biso   1.000  C
  C6       1.0000 0.26020  0.24500  0.23780  Biso   1.000  C
  C7       1.0000 0.61220  0.17880  0.45290  Biso   1.000  C
  C8       1.0000 0.38780  0.82120  0.54710  Biso   1.000  C
  C9       1.0000 0.68620  0.14270  0.41780  Biso   1.000  C
  C10      1.0000 0.31380  0.85730  0.58220  Biso   1.000  C
  C11      1.0000 0.80760  0.81210  0.69830  Biso   1.000  C
  C12      1.0000 0.19240  0.18790  0.30170  Biso   1.000  C
  N5       1.0000 0.76230  0.04460  0.82390  Biso   1.000  N
  N6       1.0000 0.23770  0.95540  0.17610  Biso   1.000  N
  H1       1.0000 0.62800  0.77400  0.86700  Biso   1.000  H
  H2       1.0000 0.37200  0.22600  0.13300  Biso   1.000  H
  H3       1.0000 0.84800  0.79900  0.56700  Biso   1.000  H
  H4       1.0000 0.15200  0.20100  0.43300  Biso   1.000  H
  H5       1.0000 0.80900  0.08600  0.77500  Biso   1.000  H
  H6       1.0000 0.19100  0.91400  0.22500  Biso   1.000  H
  H7       1.0000 0.72100  0.08200  0.88900  Biso   1.000  H
  H8       1.0000 0.27900  0.91800  0.11100  Biso   1.000  H
  C13      1.0000 0.90140  0.68370  0.38020  Biso   1.000  C
  C14      1.0000 0.09860  0.31630  0.61980  Biso   1.000  C
  C15      1.0000 0.83540  0.62610  0.43920  Biso   1.000  C
  C16      1.0000 0.16460  0.37390  0.56080  Biso   1.000  C
  Cl1      1.0000 0.70000  0.02690  0.35660  Biso   1.000  Cl
  Cl2      1.0000 0.30000  0.97310  0.64340  Biso   1.000  Cl
  C17      1.0000 0.75000  0.19730  0.43250  Biso   1.000  C
  C18      1.0000 0.25000  0.80270  0.56750  Biso   1.000  C
  C19      1.0000 0.73970  0.28770  0.48320  Biso   1.000  C
  C20      1.0000 0.26030  0.71230  0.51680  Biso   1.000  C
  C21      1.0000 0.66560  0.32500  0.52050  Biso   1.000  C
  C22      1.0000 0.33440  0.67500  0.47950  Biso   1.000  C
  C23      1.0000 0.60200  0.27150  0.50620  Biso   1.000  C
  C24      1.0000 0.39800  0.72850  0.49380  Biso   1.000  C
  O1       1.0000 0.55230  0.12300  0.42910  Biso   1.000  O
  O2       1.0000 0.44770  0.87700  0.57090  Biso   1.000  O
  C25      1.0000 0.48050  0.12790  0.53180  Biso   1.000  C
  C26      1.0000 0.51950  0.87210  0.46820  Biso   1.000  C
  C27      1.0000 0.48560  0.08060  0.71120  Biso   1.000  C
  C28      1.0000 0.51440  0.91940  0.28880  Biso   1.000  C
  O3       1.0000 0.54760  0.03610  0.74090  Biso   1.000  O
  O4       1.0000 0.45240  0.96390  0.25910  Biso   1.000  O
  O5       1.0000 0.57170  0.90620  0.19000  Biso   1.000  O
  O6       1.0000 0.42830  0.09380  0.81000  Biso   1.000  O
  H9       1.0000 0.79800  0.15600  0.38400  Biso   1.000  H
  H10      1.0000 0.20200  0.84400  0.61600  Biso   1.000  H
  H11      1.0000 0.79600  0.33600  0.48900  Biso   1.000  H
  H12      1.0000 0.20400  0.66400  0.51100  Biso   1.000  H
  H13      1.0000 0.67200  0.39200  0.57600  Biso   1.000  H
  H14      1.0000 0.32800  0.60800  0.42400  Biso   1.000  H
  H15      1.0000 0.54800  0.32000  0.50800  Biso   1.000  H
  H16      1.0000 0.45200  0.68000  0.49200  Biso   1.000  H
  H17      1.0000 0.46000  0.20100  0.52900  Biso   1.000  H
  H18      1.0000 0.54000  0.79900  0.47100  Biso   1.000  H
  H19      1.0000 0.45500  0.08300  0.46700  Biso   1.000  H
  H20      1.0000 0.54500  0.91700  0.53300  Biso   1.000  H
  Cl3      1.0000 0.83610  0.52470  0.60440  Biso   1.000  Cl
  Cl4      1.0000 0.16390  0.47530  0.39560  Biso   1.000  Cl
  C29      1.0000 0.76840  0.64910  0.36680  Biso   1.000  C
  C30      1.0000 0.23160  0.35090  0.63320  Biso   1.000  C
  C31      1.0000 0.76670  0.73280  0.23500  Biso   1.000  C
  C32      1.0000 0.23330  0.26720  0.76500  Biso   1.000  C
  C33      1.0000 0.83270  0.78770  0.17610  Biso   1.000  C
  C34      1.0000 0.16730  0.21230  0.82390  Biso   1.000  C
  C35      1.0000 0.89940  0.76480  0.24710  Biso   1.000  C
  C36      1.0000 0.10060  0.23520  0.75290  Biso   1.000  C
  O7       1.0000 0.96360  0.65750  0.45910  Biso   1.000  O
  O8       1.0000 0.03640  0.34250  0.54090  Biso   1.000  O
  C37      1.0000 0.03150  0.71590  0.40480  Biso   1.000  C
  C38      1.0000 0.96850  0.28410  0.59520  Biso   1.000  C
  C39      1.0000 0.02490  0.82330  0.44130  Biso   1.000  C
  C40      1.0000 0.97510  0.17670  0.55870  Biso   1.000  C
  O9       1.0000 0.96600  0.84500  0.52820  Biso   1.000  O
  O10      1.0000 0.03400  0.15500  0.47180  Biso   1.000  O
  O11      1.0000 0.91810  0.11950  0.62070  Biso   1.000  O
  O12      1.0000 0.08190  0.88050  0.37930  Biso   1.000  O
  H21      1.0000 0.72100  0.60400  0.44600  Biso   1.000  H
  H22      1.0000 0.27900  0.39600  0.55400  Biso   1.000  H
  H23      1.0000 0.69800  0.72200  0.20900  Biso   1.000  H
  H24      1.0000 0.30200  0.27800  0.79100  Biso   1.000  H
  H25      1.0000 0.82500  0.87400  0.08600  Biso   1.000  H
  H26      1.0000 0.17500  0.12600  0.91400  Biso   1.000  H
  H27      1.0000 0.95500  0.80400  0.18600  Biso   1.000  H
  H28      1.0000 0.04500  0.19600  0.81400  Biso   1.000  H
  H29      1.0000 0.04700  0.72400  0.28900  Biso   1.000  H
  H30      1.0000 0.95300  0.27600  0.71100  Biso   1.000  H
  H31      1.0000 0.06700  0.68600  0.46000  Biso   1.000  H
  H32      1.0000 0.93300  0.31400  0.54000  Biso   1.000  H
  C41      1.0000 0.07530  0.73160  0.95230  Biso   1.000  C
  C42      1.0000 0.92470  0.26840  0.04770  Biso   1.000  C
  C43      1.0000 0.13930  0.67030  0.98220  Biso   1.000  C
  C44      1.0000 0.86070  0.32970  0.01780  Biso   1.000  C
  Cl5      1.0000 0.20680  0.70910  0.08550  Biso   1.000  Cl
  Cl6      1.0000 0.79320  0.29090  0.91450  Biso   1.000  Cl
  C45      1.0000 0.14920  0.57870  0.93270  Biso   1.000  C
  C46      1.0000 0.85080  0.42130  0.06730  Biso   1.000  C
  C47      1.0000 0.09370  0.54610  0.85250  Biso   1.000  C
  C48      1.0000 0.90630  0.45390  0.14750  Biso   1.000  C
  C49      1.0000 0.02890  0.60530  0.82740  Biso   1.000  C
  C50      1.0000 0.97110  0.39470  0.17260  Biso   1.000  C
  C51      1.0000 0.01880  0.69920  0.87480  Biso   1.000  C
  C52      1.0000 0.98120  0.30080  0.12520  Biso   1.000  C
  O13      1.0000 0.06280  0.82030  0.01390  Biso   1.000  O
  O14      1.0000 0.93720  0.17970  0.98610  Biso   1.000  O
  C53      1.0000 0.09720  0.91060  0.91000  Biso   1.000  C
  C54      1.0000 0.90280  0.08940  0.09000  Biso   1.000  C
  C55      1.0000 0.05730  0.94590  0.76190  Biso   1.000  C
  C56      1.0000 0.94270  0.05410  0.23810  Biso   1.000  C
  O15      1.0000 0.98540  0.94340  0.77780  Biso   1.000  O
  O16      1.0000 0.01460  0.05660  0.22220  Biso   1.000  O
  O17      1.0000 0.89960  0.02170  0.36940  Biso   1.000  O
  O18      1.0000 0.10040  0.97830  0.63060  Biso   1.000  O
  H33      1.0000 0.19600  0.53000  0.97700  Biso   1.000  H
  H34      1.0000 0.80400  0.47000  0.02300  Biso   1.000  H
  H35      1.0000 0.10600  0.51500  0.71900  Biso   1.000  H
  H36      1.0000 0.89400  0.48500  0.28100  Biso   1.000  H
  H37      1.0000 0.98000  0.59300  0.77900  Biso   1.000  H
  H38      1.0000 0.02000  0.40700  0.22100  Biso   1.000  H
  H39      1.0000 0.96600  0.75100  0.85300  Biso   1.000  H
  H40      1.0000 0.03400  0.24900  0.14700  Biso   1.000  H
  H41      1.0000 0.15400  0.89400  0.87700  Biso   1.000  H
  H42      1.0000 0.84600  0.10600  0.12300  Biso   1.000  H
  H43      1.0000 0.08500  0.96900  0.00200  Biso   1.000  H
  H44      1.0000 0.91500  0.03100  0.99800  Biso   1.000  H
  C57      1.0000 0.44670  0.58410  0.85090  Biso   1.000  C
  C58      1.0000 0.55330  0.41590  0.14910  Biso   1.000  C
  C59      1.0000 0.50260  0.53750  0.75820  Biso   1.000  C
  C60      1.0000 0.49740  0.46250  0.24180  Biso   1.000  C
  Cl7      1.0000 0.58760  0.59370  0.66520  Biso   1.000  Cl
  Cl8      1.0000 0.41240  0.40630  0.33480  Biso   1.000  Cl
  C61      1.0000 0.49270  0.44550  0.71940  Biso   1.000  C
  C62      1.0000 0.50730  0.55450  0.28060  Biso   1.000  C
  C63      1.0000 0.41980  0.41000  0.79340  Biso   1.000  C
  C64      1.0000 0.58020  0.59000  0.20660  Biso   1.000  C
  C65      1.0000 0.36260  0.46090  0.88930  Biso   1.000  C
  C66      1.0000 0.63740  0.53910  0.11070  Biso   1.000  C
  C67      1.0000 0.37580  0.54150  0.91680  Biso   1.000  C
  C68      1.0000 0.62420  0.45850  0.08320  Biso   1.000  C
  O19      1.0000 0.46830  0.68020  0.86640  Biso   1.000  O
  O20      1.0000 0.53170  0.31980  0.13360  Biso   1.000  O
  C69      1.0000 0.41050  0.73710  0.95030  Biso   1.000  C
  C70      1.0000 0.58950  0.26290  0.04970  Biso   1.000  C
  C71      1.0000 0.44350  0.83810  0.96430  Biso   1.000  C
  C72      1.0000 0.55650  0.16190  0.03570  Biso   1.000  C
  O21      1.0000 0.51380  0.84870  0.93990  Biso   1.000  O
  O22      1.0000 0.48620  0.15130  0.06010  Biso   1.000  O
  O23      1.0000 0.60710  0.10010  0.98820  Biso   1.000  O
  O24      1.0000 0.39290  0.89990  0.01180  Biso   1.000  O
  H45      1.0000 0.41300  0.31800  0.78100  Biso   1.000  H
  H46      1.0000 0.58700  0.68200  0.21900  Biso   1.000  H
  H47      1.0000 0.39200  0.68900  0.07200  Biso   1.000  H
  H48      1.0000 0.60800  0.31100  0.92800  Biso   1.000  H
  H49      1.0000 0.37500  0.75000  0.87900  Biso   1.000  H
  H50      1.0000 0.62500  0.25000  0.12100  Biso   1.000  H
