data_image0
_cell_length_a       12.23
_cell_length_b       7.742
_cell_length_c       17.16
_cell_angle_alpha    90
_cell_angle_beta     90.93
_cell_angle_gamma    90

_symmetry_space_group_name_H-M    "P 1"
_symmetry_int_tables_number       1

loop_
  _symmetry_equiv_pos_as_xyz
  'x, y, z'

loop_
  _atom_site_label
  _atom_site_occupancy
  _atom_site_fract_x
  _atom_site_fract_y
  _atom_site_fract_z
  _atom_site_thermal_displace_type
  _atom_site_B_iso_or_equiv
  _atom_site_type_symbol
  Cu1      1.0000 0.00920  0.09740  0.14850  Biso   1.000  Cu
  Cu2      1.0000 0.99080  0.59740  0.35150  Biso   1.000  Cu
  Cu3      1.0000 0.99080  0.90260  0.85150  Biso   1.000  Cu
  Cu4      1.0000 0.00920  0.40260  0.64850  Biso   1.000  Cu
  C1       1.0000 0.21120  0.11830  0.06600  Biso   1.000  C
  C2       1.0000 0.78880  0.61830  0.43400  Biso   1.000  C
  C3       1.0000 0.78880  0.88170  0.93400  Biso   1.000  C
  C4       1.0000 0.21120  0.38170  0.56600  Biso   1.000  C
  C5       1.0000 0.06050  0.34910  0.90540  Biso   1.000  C
  C6       1.0000 0.93950  0.84910  0.59460  Biso   1.000  C
  C7       1.0000 0.93950  0.65090  0.09460  Biso   1.000  C
  C8       1.0000 0.06050  0.15090  0.40540  Biso   1.000  C
  C9       1.0000 0.14710  0.28030  0.94540  Biso   1.000  C
  C10      1.0000 0.85290  0.78030  0.55460  Biso   1.000  C
  C11      1.0000 0.85290  0.71970  0.05460  Biso   1.000  C
  C12      1.0000 0.14710  0.21970  0.44540  Biso   1.000  C
  C13      1.0000 0.32080  0.10050  0.04860  Biso   1.000  C
  C14      1.0000 0.67920  0.60050  0.45140  Biso   1.000  C
  C15      1.0000 0.67920  0.89950  0.95140  Biso   1.000  C
  C16      1.0000 0.32080  0.39950  0.54860  Biso   1.000  C
  C17      1.0000 0.39180  0.01940  0.09580  Biso   1.000  C
  C18      1.0000 0.60820  0.51940  0.40420  Biso   1.000  C
  C19      1.0000 0.60820  0.98060  0.90420  Biso   1.000  C
  C20      1.0000 0.39180  0.48060  0.59580  Biso   1.000  C
  C21      1.0000 0.35280  0.95320  0.16800  Biso   1.000  C
  C22      1.0000 0.64720  0.45320  0.33200  Biso   1.000  C
  C23      1.0000 0.64720  0.04680  0.83200  Biso   1.000  C
  C24      1.0000 0.35280  0.54680  0.66800  Biso   1.000  C
  C25      1.0000 0.24130  0.97300  0.18230  Biso   1.000  C
  C26      1.0000 0.75870  0.47300  0.31770  Biso   1.000  C
  C27      1.0000 0.75870  0.02700  0.81770  Biso   1.000  C
  C28      1.0000 0.24130  0.52700  0.68230  Biso   1.000  C
  C29      1.0000 0.13050  0.20410  0.01410  Biso   1.000  C
  C30      1.0000 0.86950  0.70410  0.48590  Biso   1.000  C
  C31      1.0000 0.86950  0.79590  0.98590  Biso   1.000  C
  C32      1.0000 0.13050  0.29590  0.51410  Biso   1.000  C
  C33      1.0000 0.98580  0.92720  0.22790  Biso   1.000  C
  C34      1.0000 0.01420  0.42720  0.27210  Biso   1.000  C
  C35      1.0000 0.01420  0.07280  0.77210  Biso   1.000  C
  C36      1.0000 0.98580  0.57280  0.72790  Biso   1.000  C
  C37      1.0000 0.94100  0.26710  0.00610  Biso   1.000  C
  C38      1.0000 0.05900  0.76710  0.49390  Biso   1.000  C
  C39      1.0000 0.05900  0.73290  0.99390  Biso   1.000  C
  C40      1.0000 0.94100  0.23290  0.50610  Biso   1.000  C
  C41      1.0000 0.83800  0.24180  0.05180  Biso   1.000  C
  C42      1.0000 0.16200  0.74180  0.44820  Biso   1.000  C
  C43      1.0000 0.16200  0.75820  0.94820  Biso   1.000  C
  C44      1.0000 0.83800  0.25820  0.55180  Biso   1.000  C
  C45      1.0000 0.76410  0.13060  0.16360  Biso   1.000  C
  C46      1.0000 0.23590  0.63060  0.33640  Biso   1.000  C
  C47      1.0000 0.23590  0.86940  0.83640  Biso   1.000  C
  C48      1.0000 0.76410  0.36940  0.66360  Biso   1.000  C
  C49      1.0000 0.66180  0.19840  0.13840  Biso   1.000  C
  C50      1.0000 0.33820  0.69840  0.36160  Biso   1.000  C
  C51      1.0000 0.33820  0.80160  0.86160  Biso   1.000  C
  C52      1.0000 0.66180  0.30160  0.63840  Biso   1.000  C
  C53      1.0000 0.65210  0.29100  0.07330  Biso   1.000  C
  C54      1.0000 0.34790  0.79100  0.42670  Biso   1.000  C
  C55      1.0000 0.34790  0.70900  0.92670  Biso   1.000  C
  C56      1.0000 0.65210  0.20900  0.57330  Biso   1.000  C
  C57      1.0000 0.74130  0.31490  0.02790  Biso   1.000  C
  C58      1.0000 0.25870  0.81490  0.47210  Biso   1.000  C
  C59      1.0000 0.25870  0.68510  0.97210  Biso   1.000  C
  C60      1.0000 0.74130  0.18510  0.52790  Biso   1.000  C
  C61      1.0000 0.95610  0.34270  0.93520  Biso   1.000  C
  C62      1.0000 0.04390  0.84270  0.56480  Biso   1.000  C
  C63      1.0000 0.04390  0.65730  0.06480  Biso   1.000  C
  C64      1.0000 0.95610  0.15730  0.43520  Biso   1.000  C
  H1       1.0000 0.07130  0.40340  0.85500  Biso   1.000  H
  H2       1.0000 0.92870  0.90340  0.64500  Biso   1.000  H
  H3       1.0000 0.92870  0.59660  0.14500  Biso   1.000  H
  H4       1.0000 0.07130  0.09660  0.35500  Biso   1.000  H
  H5       1.0000 0.21980  0.28720  0.92380  Biso   1.000  H
  H6       1.0000 0.78020  0.78720  0.57620  Biso   1.000  H
  H7       1.0000 0.78020  0.71280  0.07620  Biso   1.000  H
  H8       1.0000 0.21980  0.21280  0.42380  Biso   1.000  H
  H9       1.0000 0.34680  0.14950  0.99980  Biso   1.000  H
  H10      1.0000 0.65320  0.64950  0.50020  Biso   1.000  H
  H11      1.0000 0.65320  0.85050  0.00020  Biso   1.000  H
  H12      1.0000 0.34680  0.35050  0.49980  Biso   1.000  H
  H13      1.0000 0.46850  0.00640  0.08120  Biso   1.000  H
  H14      1.0000 0.53150  0.50640  0.41880  Biso   1.000  H
  H15      1.0000 0.53150  0.99360  0.91880  Biso   1.000  H
  H16      1.0000 0.46850  0.49360  0.58120  Biso   1.000  H
  H17      1.0000 0.40110  0.89410  0.20380  Biso   1.000  H
  H18      1.0000 0.59890  0.39410  0.29620  Biso   1.000  H
  H19      1.0000 0.59890  0.10590  0.79620  Biso   1.000  H
  H20      1.0000 0.40110  0.60590  0.70380  Biso   1.000  H
  H21      1.0000 0.21200  0.92970  0.23080  Biso   1.000  H
  H22      1.0000 0.78800  0.42970  0.26920  Biso   1.000  H
  H23      1.0000 0.78800  0.07030  0.76920  Biso   1.000  H
  H24      1.0000 0.21200  0.57030  0.73080  Biso   1.000  H
  H25      1.0000 0.77240  0.06720  0.21280  Biso   1.000  H
  H26      1.0000 0.22760  0.56720  0.28720  Biso   1.000  H
  H27      1.0000 0.22760  0.93280  0.78720  Biso   1.000  H
  H28      1.0000 0.77240  0.43280  0.71280  Biso   1.000  H
  H29      1.0000 0.59660  0.17680  0.16960  Biso   1.000  H
  H30      1.0000 0.40340  0.67680  0.33040  Biso   1.000  H
  H31      1.0000 0.40340  0.82320  0.83040  Biso   1.000  H
  H32      1.0000 0.59660  0.32320  0.66960  Biso   1.000  H
  H33      1.0000 0.58230  0.34380  0.05980  Biso   1.000  H
  H34      1.0000 0.41770  0.84380  0.44020  Biso   1.000  H
  H35      1.0000 0.41770  0.65620  0.94020  Biso   1.000  H
  H36      1.0000 0.58230  0.15620  0.55980  Biso   1.000  H
  H37      1.0000 0.73330  0.37940  0.97970  Biso   1.000  H
  H38      1.0000 0.26670  0.87940  0.52030  Biso   1.000  H
  H39      1.0000 0.26670  0.62060  0.02030  Biso   1.000  H
  H40      1.0000 0.73330  0.12060  0.47970  Biso   1.000  H
  H41      1.0000 0.89360  0.38980  0.90650  Biso   1.000  H
  H42      1.0000 0.10640  0.88980  0.59350  Biso   1.000  H
  H43      1.0000 0.10640  0.61020  0.09350  Biso   1.000  H
  H44      1.0000 0.89360  0.11020  0.40650  Biso   1.000  H
  N1       1.0000 0.17280  0.05230  0.13160  Biso   1.000  N
  N2       1.0000 0.82720  0.55230  0.36840  Biso   1.000  N
  N3       1.0000 0.82720  0.94770  0.86840  Biso   1.000  N
  N4       1.0000 0.17280  0.44770  0.63160  Biso   1.000  N
  N5       1.0000 0.37670  0.47650  0.15510  Biso   1.000  N
  N6       1.0000 0.62330  0.97650  0.34490  Biso   1.000  N
  N7       1.0000 0.62330  0.52350  0.84490  Biso   1.000  N
  N8       1.0000 0.37670  0.02350  0.65510  Biso   1.000  N
  N9       1.0000 0.03140  0.19700  0.04620  Biso   1.000  N
  N10      1.0000 0.96860  0.69700  0.45380  Biso   1.000  N
  N11      1.0000 0.96860  0.80300  0.95380  Biso   1.000  N
  N12      1.0000 0.03140  0.30300  0.54620  Biso   1.000  N
  N13      1.0000 0.97570  0.82800  0.27650  Biso   1.000  N
  N14      1.0000 0.02430  0.32800  0.22350  Biso   1.000  N
  N15      1.0000 0.02430  0.17200  0.72350  Biso   1.000  N
  N16      1.0000 0.97570  0.67200  0.77650  Biso   1.000  N
  N17      1.0000 0.85030  0.15270  0.11740  Biso   1.000  N
  N18      1.0000 0.14970  0.65270  0.38260  Biso   1.000  N
  N19      1.0000 0.14970  0.84730  0.88260  Biso   1.000  N
  N20      1.0000 0.85030  0.34730  0.61740  Biso   1.000  N
  O1       1.0000 0.27500  0.47230  0.15580  Biso   1.000  O
  O2       1.0000 0.72500  0.97230  0.34420  Biso   1.000  O
  O3       1.0000 0.72500  0.52770  0.84420  Biso   1.000  O
  O4       1.0000 0.27500  0.02770  0.65580  Biso   1.000  O
  O5       1.0000 0.42730  0.43380  0.21550  Biso   1.000  O
  O6       1.0000 0.57270  0.93380  0.28450  Biso   1.000  O
  O7       1.0000 0.57270  0.56620  0.78450  Biso   1.000  O
  O8       1.0000 0.42730  0.06620  0.71550  Biso   1.000  O
  O9       1.0000 0.42580  0.52460  0.09960  Biso   1.000  O
  O10      1.0000 0.57420  0.02460  0.40040  Biso   1.000  O
  O11      1.0000 0.57420  0.47540  0.90040  Biso   1.000  O
  O12      1.0000 0.42580  0.97540  0.59960  Biso   1.000  O
  O13      1.0000 0.38280  0.23120  0.35300  Biso   1.000  O
  O14      1.0000 0.61720  0.73120  0.14700  Biso   1.000  O
  O15      1.0000 0.61720  0.76880  0.64700  Biso   1.000  O
  O16      1.0000 0.38280  0.26880  0.85300  Biso   1.000  O
