data_image0
_cell_length_a       14.0087
_cell_length_b       13.3191
_cell_length_c       14.8297
_cell_angle_alpha    90
_cell_angle_beta     93.116
_cell_angle_gamma    90

_symmetry_space_group_name_H-M    "P 1"
_symmetry_int_tables_number       1

loop_
  _symmetry_equiv_pos_as_xyz
  'x, y, z'

loop_
  _atom_site_label
  _atom_site_occupancy
  _atom_site_fract_x
  _atom_site_fract_y
  _atom_site_fract_z
  _atom_site_thermal_displace_type
  _atom_site_B_iso_or_equiv
  _atom_site_type_symbol
  C1       1.0000 0.36680  0.49200  0.13810  Biso   1.000  C
  C2       1.0000 0.63320  0.99200  0.36190  Biso   1.000  C
  C3       1.0000 0.63320  0.50800  0.86190  Biso   1.000  C
  C4       1.0000 0.36680  0.00800  0.63810  Biso   1.000  C
  C5       1.0000 0.28932  0.43710  0.18284  Biso   1.000  C
  C6       1.0000 0.71068  0.93710  0.31716  Biso   1.000  C
  C7       1.0000 0.71068  0.56290  0.81716  Biso   1.000  C
  C8       1.0000 0.28932  0.06290  0.68284  Biso   1.000  C
  C9       1.0000 0.26454  0.34075  0.15442  Biso   1.000  C
  C10      1.0000 0.73546  0.84075  0.34558  Biso   1.000  C
  C11      1.0000 0.73546  0.65925  0.84558  Biso   1.000  C
  C12      1.0000 0.26454  0.15925  0.65442  Biso   1.000  C
  H1       1.0000 0.29820  0.30880  0.11040  Biso   1.000  H
  H2       1.0000 0.70180  0.80880  0.38960  Biso   1.000  H
  H3       1.0000 0.70180  0.69120  0.88960  Biso   1.000  H
  H4       1.0000 0.29820  0.19120  0.61040  Biso   1.000  H
  C13      1.0000 0.18900  0.29324  0.19268  Biso   1.000  C
  C14      1.0000 0.81100  0.79324  0.30732  Biso   1.000  C
  C15      1.0000 0.81100  0.70676  0.80732  Biso   1.000  C
  C16      1.0000 0.18900  0.20676  0.69268  Biso   1.000  C
  C17      1.0000 0.13907  0.33807  0.26027  Biso   1.000  C
  C18      1.0000 0.86093  0.83807  0.23973  Biso   1.000  C
  C19      1.0000 0.86093  0.66193  0.73973  Biso   1.000  C
  C20      1.0000 0.13907  0.16193  0.76027  Biso   1.000  C
  H5       1.0000 0.08870  0.30470  0.28560  Biso   1.000  H
  H6       1.0000 0.91130  0.80470  0.21440  Biso   1.000  H
  H7       1.0000 0.91130  0.69530  0.71440  Biso   1.000  H
  H8       1.0000 0.08870  0.19530  0.78560  Biso   1.000  H
  C21      1.0000 0.16520  0.43210  0.28901  Biso   1.000  C
  C22      1.0000 0.83480  0.93210  0.21099  Biso   1.000  C
  C23      1.0000 0.83480  0.56790  0.71099  Biso   1.000  C
  C24      1.0000 0.16520  0.06790  0.78901  Biso   1.000  C
  C25      1.0000 0.24050  0.48100  0.25134  Biso   1.000  C
  C26      1.0000 0.75950  0.98100  0.24866  Biso   1.000  C
  C27      1.0000 0.75950  0.51900  0.74866  Biso   1.000  C
  C28      1.0000 0.24050  0.01900  0.75134  Biso   1.000  C
  H9       1.0000 0.25860  0.54430  0.27240  Biso   1.000  H
  H10      1.0000 0.74140  0.04430  0.22760  Biso   1.000  H
  H11      1.0000 0.74140  0.45570  0.72760  Biso   1.000  H
  H12      1.0000 0.25860  0.95570  0.77240  Biso   1.000  H
  C29      1.0000 0.11450  0.47860  0.36660  Biso   1.000  C
  C30      1.0000 0.88550  0.97860  0.13340  Biso   1.000  C
  C31      1.0000 0.88550  0.52140  0.63340  Biso   1.000  C
  C32      1.0000 0.11450  0.02140  0.86660  Biso   1.000  C
  C33      1.0000 0.04010  0.25570  0.03780  Biso   1.000  C
  C34      1.0000 0.95990  0.75570  0.46220  Biso   1.000  C
  C35      1.0000 0.95990  0.74430  0.96220  Biso   1.000  C
  C36      1.0000 0.04010  0.24430  0.53780  Biso   1.000  C
  H13      1.0000 0.08370  0.29370  0.00360  Biso   1.000  H
  H14      1.0000 0.91630  0.79370  0.49640  Biso   1.000  H
  H15      1.0000 0.91630  0.70630  0.99640  Biso   1.000  H
  H16      1.0000 0.08370  0.20630  0.50360  Biso   1.000  H
  H17      1.0000 0.00840  0.29980  0.07790  Biso   1.000  H
  H18      1.0000 0.99160  0.79980  0.42210  Biso   1.000  H
  H19      1.0000 0.99160  0.70020  0.92210  Biso   1.000  H
  H20      1.0000 0.00840  0.20020  0.57790  Biso   1.000  H
  H21      1.0000 0.99340  0.22410  0.99740  Biso   1.000  H
  H22      1.0000 0.00660  0.72410  0.50260  Biso   1.000  H
  H23      1.0000 0.00660  0.77590  0.00260  Biso   1.000  H
  H24      1.0000 0.99340  0.27590  0.49740  Biso   1.000  H
  C37      1.0000 0.09515  0.17546  0.09295  Biso   1.000  C
  C38      1.0000 0.90485  0.67546  0.40705  Biso   1.000  C
  C39      1.0000 0.90485  0.82454  0.90705  Biso   1.000  C
  C40      1.0000 0.09515  0.32454  0.59295  Biso   1.000  C
  C41      1.0000 0.19275  0.10168  0.19075  Biso   1.000  C
  C42      1.0000 0.80725  0.60168  0.30925  Biso   1.000  C
  C43      1.0000 0.80725  0.89832  0.80925  Biso   1.000  C
  C44      1.0000 0.19275  0.39832  0.69075  Biso   1.000  C
  C45      1.0000 0.26625  0.08190  0.26370  Biso   1.000  C
  C46      1.0000 0.73375  0.58190  0.23630  Biso   1.000  C
  C47      1.0000 0.73375  0.91810  0.73630  Biso   1.000  C
  C48      1.0000 0.26625  0.41810  0.76370  Biso   1.000  C
  C49      1.0000 0.28530  0.14550  0.33620  Biso   1.000  C
  C50      1.0000 0.71470  0.64550  0.16380  Biso   1.000  C
  C51      1.0000 0.71470  0.85450  0.66380  Biso   1.000  C
  C52      1.0000 0.28530  0.35450  0.83620  Biso   1.000  C
  H25      1.0000 0.25240  0.20580  0.34040  Biso   1.000  H
  H26      1.0000 0.74760  0.70580  0.15960  Biso   1.000  H
  H27      1.0000 0.74760  0.79420  0.65960  Biso   1.000  H
  H28      1.0000 0.25240  0.29420  0.84040  Biso   1.000  H
  C53      1.0000 0.35270  0.11880  0.40160  Biso   1.000  C
  C54      1.0000 0.64730  0.61880  0.09840  Biso   1.000  C
  C55      1.0000 0.64730  0.88120  0.59840  Biso   1.000  C
  C56      1.0000 0.35270  0.38120  0.90160  Biso   1.000  C
  H29      1.0000 0.36490  0.16220  0.45000  Biso   1.000  H
  H30      1.0000 0.63510  0.66220  0.05000  Biso   1.000  H
  H31      1.0000 0.63510  0.83780  0.55000  Biso   1.000  H
  H32      1.0000 0.36490  0.33780  0.95000  Biso   1.000  H
  C57      1.0000 0.38460  0.97430  0.33030  Biso   1.000  C
  C58      1.0000 0.61540  0.47430  0.16970  Biso   1.000  C
  C59      1.0000 0.61540  0.02570  0.66970  Biso   1.000  C
  C60      1.0000 0.38460  0.52570  0.83030  Biso   1.000  C
  H33      1.0000 0.41920  0.91490  0.32780  Biso   1.000  H
  H34      1.0000 0.58080  0.41490  0.17220  Biso   1.000  H
  H35      1.0000 0.58080  0.08510  0.67220  Biso   1.000  H
  H36      1.0000 0.41920  0.58510  0.82780  Biso   1.000  H
  C61      1.0000 0.31890  0.99390  0.26120  Biso   1.000  C
  C62      1.0000 0.68110  0.49390  0.23880  Biso   1.000  C
  C63      1.0000 0.68110  0.00610  0.73880  Biso   1.000  C
  C64      1.0000 0.31890  0.50610  0.76120  Biso   1.000  C
  H37      1.0000 0.30960  0.94910  0.21350  Biso   1.000  H
  H38      1.0000 0.69040  0.44910  0.28650  Biso   1.000  H
  H39      1.0000 0.69040  0.05090  0.78650  Biso   1.000  H
  H40      1.0000 0.30960  0.55090  0.71350  Biso   1.000  H
  Cu1      1.0000 0.50000  0.00000  0.50000  Biso   1.000  Cu
  Cu2      1.0000 0.50000  0.50000  0.00000  Biso   1.000  Cu
  Cu3      1.0000 0.00000  0.00000  0.00000  Biso   1.000  Cu
  Cu4      1.0000 0.00000  0.50000  0.50000  Biso   1.000  Cu
  N1       1.0000 0.16114  0.19427  0.16125  Biso   1.000  N
  N2       1.0000 0.83886  0.69427  0.33875  Biso   1.000  N
  N3       1.0000 0.83886  0.80573  0.83875  Biso   1.000  N
  N4       1.0000 0.16114  0.30573  0.66125  Biso   1.000  N
  N5       1.0000 0.08777  0.07854  0.08265  Biso   1.000  N
  N6       1.0000 0.91223  0.57854  0.41735  Biso   1.000  N
  N7       1.0000 0.91223  0.92146  0.91735  Biso   1.000  N
  N8       1.0000 0.08777  0.42146  0.58265  Biso   1.000  N
  N9       1.0000 0.14880  0.03127  0.14430  Biso   1.000  N
  N10      1.0000 0.85120  0.53127  0.35570  Biso   1.000  N
  N11      1.0000 0.85120  0.96873  0.85570  Biso   1.000  N
  N12      1.0000 0.14880  0.46873  0.64430  Biso   1.000  N
  N13      1.0000 0.40205  0.03290  0.39933  Biso   1.000  N
  N14      1.0000 0.59795  0.53290  0.10067  Biso   1.000  N
  N15      1.0000 0.59795  0.96710  0.60067  Biso   1.000  N
  N16      1.0000 0.40205  0.46710  0.89933  Biso   1.000  N
  O1       1.0000 0.41333  0.44318  0.08511  Biso   1.000  O
  O2       1.0000 0.58667  0.94318  0.41489  Biso   1.000  O
  O3       1.0000 0.58667  0.55682  0.91489  Biso   1.000  O
  O4       1.0000 0.41333  0.05682  0.58511  Biso   1.000  O
  O5       1.0000 0.38050  0.58030  0.15610  Biso   1.000  O
  O6       1.0000 0.61950  0.08030  0.34390  Biso   1.000  O
  O7       1.0000 0.61950  0.41970  0.84390  Biso   1.000  O
  O8       1.0000 0.38050  0.91970  0.65610  Biso   1.000  O
  O9       1.0000 0.04775  0.42824  0.39708  Biso   1.000  O
  O10      1.0000 0.95225  0.92824  0.10292  Biso   1.000  O
  O11      1.0000 0.95225  0.57176  0.60292  Biso   1.000  O
  O12      1.0000 0.04775  0.07176  0.89708  Biso   1.000  O
  O13      1.0000 0.13920  0.56187  0.39750  Biso   1.000  O
  O14      1.0000 0.86080  0.06187  0.10250  Biso   1.000  O
  O15      1.0000 0.86080  0.43813  0.60250  Biso   1.000  O
  O16      1.0000 0.13920  0.93813  0.89750  Biso   1.000  O
