data_image0
_cell_length_a       8.056
_cell_length_b       8.506
_cell_length_c       12.785
_cell_angle_alpha    102.049
_cell_angle_beta     91.166
_cell_angle_gamma    100.076

_symmetry_space_group_name_H-M    "P 1"
_symmetry_int_tables_number       1

loop_
  _symmetry_equiv_pos_as_xyz
  'x, y, z'

loop_
  _atom_site_label
  _atom_site_occupancy
  _atom_site_fract_x
  _atom_site_fract_y
  _atom_site_fract_z
  _atom_site_thermal_displace_type
  _atom_site_B_iso_or_equiv
  _atom_site_type_symbol
  Cu1      1.0000 0.97814  0.79238  0.27770  Biso   1.000  Cu
  Cu2      1.0000 0.02186  0.20762  0.72230  Biso   1.000  Cu
  S1       1.0000 0.58445  0.67136  0.95487  Biso   1.000  S
  S2       1.0000 0.41555  0.32864  0.04513  Biso   1.000  S
  S3       1.0000 0.45554  0.80226  0.53632  Biso   1.000  S
  S4       1.0000 0.54446  0.19774  0.46368  Biso   1.000  S
  O1       1.0000 0.79230  0.74340  0.16730  Biso   1.000  O
  O2       1.0000 0.20770  0.25660  0.83270  Biso   1.000  O
  O3       1.0000 0.67950  0.95990  0.23490  Biso   1.000  O
  O4       1.0000 0.32050  0.04010  0.76510  Biso   1.000  O
  O5       1.0000 0.24490  0.63410  0.24580  Biso   1.000  O
  O6       1.0000 0.75510  0.36590  0.75420  Biso   1.000  O
  O7       1.0000 0.17790  0.82110  0.37710  Biso   1.000  O
  O8       1.0000 0.82210  0.17890  0.62290  Biso   1.000  O
  O9       1.0000 0.88730  0.00260  0.40960  Biso   1.000  O
  O10      1.0000 0.11270  0.99740  0.59040  Biso   1.000  O
  H1       1.0000 0.87500  0.05260  0.47230  Biso   1.000  H
  H2       1.0000 0.12500  0.94740  0.52770  Biso   1.000  H
  H3       1.0000 0.81430  0.01460  0.36450  Biso   1.000  H
  H4       1.0000 0.18570  0.98540  0.63550  Biso   1.000  H
  N1       1.0000 0.89780  0.04370  0.79800  Biso   1.000  N
  N2       1.0000 0.10220  0.95630  0.20200  Biso   1.000  N
  N3       1.0000 0.14060  0.39220  0.66140  Biso   1.000  N
  N4       1.0000 0.85940  0.60780  0.33860  Biso   1.000  N
  C1       1.0000 0.68530  0.83410  0.16860  Biso   1.000  C
  C2       1.0000 0.31470  0.16590  0.83140  Biso   1.000  C
  C3       1.0000 0.54250  0.78040  0.08290  Biso   1.000  C
  C4       1.0000 0.45750  0.21960  0.91710  Biso   1.000  C
  H5       1.0000 0.45110  0.71260  0.11010  Biso   1.000  H
  H6       1.0000 0.54890  0.28740  0.88990  Biso   1.000  H
  H7       1.0000 0.50140  0.87720  0.07300  Biso   1.000  H
  H8       1.0000 0.49860  0.12280  0.92700  Biso   1.000  H
  C5       1.0000 0.71080  0.82000  0.90130  Biso   1.000  C
  C6       1.0000 0.28920  0.18000  0.09870  Biso   1.000  C
  C7       1.0000 0.74750  0.77690  0.79590  Biso   1.000  C
  C8       1.0000 0.25250  0.22310  0.20410  Biso   1.000  C
  H9       1.0000 0.71100  0.67020  0.75760  Biso   1.000  H
  H10      1.0000 0.28900  0.32980  0.24240  Biso   1.000  H
  C9       1.0000 0.83720  0.89010  0.74740  Biso   1.000  C
  C10      1.0000 0.16280  0.10990  0.25260  Biso   1.000  C
  H11      1.0000 0.85720  0.85850  0.67530  Biso   1.000  H
  H12      1.0000 0.14280  0.14150  0.32470  Biso   1.000  H
  C11      1.0000 0.86700  0.08370  0.90060  Biso   1.000  C
  C12      1.0000 0.13300  0.91630  0.09940  Biso   1.000  C
  H13      1.0000 0.91010  0.18970  0.93800  Biso   1.000  H
  H14      1.0000 0.08990  0.81030  0.06200  Biso   1.000  H
  C13      1.0000 0.77540  0.97830  0.95510  Biso   1.000  C
  C14      1.0000 0.22460  0.02170  0.04490  Biso   1.000  C
  H15      1.0000 0.75710  0.01280  0.02720  Biso   1.000  H
  H16      1.0000 0.24290  0.98720  0.97280  Biso   1.000  H
  C15      1.0000 0.21960  0.53190  0.72540  Biso   1.000  C
  C16      1.0000 0.78040  0.46810  0.27460  Biso   1.000  C
  H17      1.0000 0.21110  0.54410  0.79900  Biso   1.000  H
  H18      1.0000 0.78890  0.45590  0.20100  Biso   1.000  H
  C17      1.0000 0.31230  0.65760  0.68810  Biso   1.000  C
  C18      1.0000 0.68770  0.34240  0.31190  Biso   1.000  C
  H19      1.0000 0.36470  0.75260  0.73560  Biso   1.000  H
  H20      1.0000 0.63530  0.24740  0.26440  Biso   1.000  H
  C19      1.0000 0.32690  0.64140  0.57840  Biso   1.000  C
  C20      1.0000 0.67310  0.35860  0.42160  Biso   1.000  C
  C21      1.0000 0.24240  0.49860  0.51230  Biso   1.000  C
  C22      1.0000 0.75760  0.50140  0.48770  Biso   1.000  C
  H21      1.0000 0.24710  0.48330  0.43830  Biso   1.000  H
  H22      1.0000 0.75290  0.51670  0.56170  Biso   1.000  H
  C23      1.0000 0.15160  0.37980  0.55680  Biso   1.000  C
  C24      1.0000 0.84840  0.62020  0.44320  Biso   1.000  C
  H23      1.0000 0.09450  0.28520  0.51100  Biso   1.000  H
  H24      1.0000 0.90550  0.71480  0.48900  Biso   1.000  H
  C25      1.0000 0.44380  0.73630  0.39330  Biso   1.000  C
  C26      1.0000 0.55620  0.26370  0.60670  Biso   1.000  C
  H25      1.0000 0.47400  0.62870  0.37610  Biso   1.000  H
  H26      1.0000 0.52600  0.37130  0.62390  Biso   1.000  H
  H27      1.0000 0.52890  0.80980  0.36540  Biso   1.000  H
  H28      1.0000 0.47110  0.19020  0.63460  Biso   1.000  H
  C27      1.0000 0.27540  0.72700  0.33360  Biso   1.000  C
  C28      1.0000 0.72460  0.27300  0.66640  Biso   1.000  C
  O11      1.0000 0.94220  0.51420  0.96340  Biso   1.000  O
  O12      1.0000 0.05780  0.48580  0.03660  Biso   1.000  O
  H29      1.0000 0.84340  0.50670  0.98620  Biso   1.000  H
  H30      1.0000 0.15660  0.49330  0.01380  Biso   1.000  H
  H31      1.0000 0.95600  0.57670  0.91900  Biso   1.000  H
  H32      1.0000 0.04400  0.42330  0.08100  Biso   1.000  H
