data_image0
_cell_length_a       17.6167
_cell_length_b       19.0794
_cell_length_c       11.1204
_cell_angle_alpha    90
_cell_angle_beta     90
_cell_angle_gamma    90

_symmetry_space_group_name_H-M    "P 1"
_symmetry_int_tables_number       1

loop_
  _symmetry_equiv_pos_as_xyz
  'x, y, z'

loop_
  _atom_site_label
  _atom_site_occupancy
  _atom_site_fract_x
  _atom_site_fract_y
  _atom_site_fract_z
  _atom_site_thermal_displace_type
  _atom_site_B_iso_or_equiv
  _atom_site_type_symbol
  W1       1.0000 0.77283  0.54919  0.71861  Biso   1.000  W
  W2       1.0000 0.22717  0.45081  0.71861  Biso   1.000  W
  W3       1.0000 0.27283  0.95081  0.28139  Biso   1.000  W
  W4       1.0000 0.72717  0.04919  0.28139  Biso   1.000  W
  Cu1      1.0000 0.50000  0.50000  0.85957  Biso   1.000  Cu
  Cu2      1.0000 0.00000  0.00000  0.14043  Biso   1.000  Cu
  Cu3      1.0000 0.96441  0.31570  0.73471  Biso   1.000  Cu
  Cu4      1.0000 0.03559  0.68430  0.73471  Biso   1.000  Cu
  Cu5      1.0000 0.46441  0.18430  0.26529  Biso   1.000  Cu
  Cu6      1.0000 0.53559  0.81570  0.26529  Biso   1.000  Cu
  C1       1.0000 0.79460  0.53600  0.90880  Biso   1.000  C
  C2       1.0000 0.20540  0.46400  0.90880  Biso   1.000  C
  C3       1.0000 0.29460  0.96400  0.09120  Biso   1.000  C
  C4       1.0000 0.70540  0.03600  0.09120  Biso   1.000  C
  N1       1.0000 0.80540  0.53140  0.00850  Biso   1.000  N
  N2       1.0000 0.19460  0.46860  0.00850  Biso   1.000  N
  N3       1.0000 0.30540  0.96860  0.99150  Biso   1.000  N
  N4       1.0000 0.69460  0.03140  0.99150  Biso   1.000  N
  C5       1.0000 0.66180  0.54690  0.80220  Biso   1.000  C
  C6       1.0000 0.33820  0.45310  0.80220  Biso   1.000  C
  C7       1.0000 0.16180  0.95310  0.19780  Biso   1.000  C
  C8       1.0000 0.83820  0.04690  0.19780  Biso   1.000  C
  N5       1.0000 0.60320  0.54370  0.84540  Biso   1.000  N
  N6       1.0000 0.39680  0.45630  0.84540  Biso   1.000  N
  N7       1.0000 0.10320  0.95630  0.15460  Biso   1.000  N
  N8       1.0000 0.89680  0.04370  0.15460  Biso   1.000  N
  C9       1.0000 0.85460  0.46410  0.73660  Biso   1.000  C
  C10      1.0000 0.14540  0.53590  0.73660  Biso   1.000  C
  C11      1.0000 0.35460  0.03590  0.26340  Biso   1.000  C
  C12      1.0000 0.64540  0.96410  0.26340  Biso   1.000  C
  N9       1.0000 0.89370  0.41680  0.74010  Biso   1.000  N
  N10      1.0000 0.10630  0.58320  0.74010  Biso   1.000  N
  N11      1.0000 0.39370  0.08320  0.25990  Biso   1.000  N
  N12      1.0000 0.60630  0.91680  0.25990  Biso   1.000  N
  C13      1.0000 0.71770  0.45460  0.65670  Biso   1.000  C
  C14      1.0000 0.28230  0.54540  0.65670  Biso   1.000  C
  C15      1.0000 0.21770  0.04540  0.34330  Biso   1.000  C
  C16      1.0000 0.78230  0.95460  0.34330  Biso   1.000  C
  N13      1.0000 0.69120  0.40330  0.62600  Biso   1.000  N
  N14      1.0000 0.30880  0.59670  0.62600  Biso   1.000  N
  N15      1.0000 0.19120  0.09670  0.37400  Biso   1.000  N
  N16      1.0000 0.80880  0.90330  0.37400  Biso   1.000  N
  C17      1.0000 0.88070  0.60520  0.72700  Biso   1.000  C
  C18      1.0000 0.11930  0.39480  0.72700  Biso   1.000  C
  C19      1.0000 0.38070  0.89480  0.27300  Biso   1.000  C
  C20      1.0000 0.61930  0.10520  0.27300  Biso   1.000  C
  N17      1.0000 0.93640  0.63430  0.73200  Biso   1.000  N
  N18      1.0000 0.06360  0.36570  0.73200  Biso   1.000  N
  N19      1.0000 0.43640  0.86570  0.26800  Biso   1.000  N
  N20      1.0000 0.56360  0.13430  0.26800  Biso   1.000  N
  C21      1.0000 0.69770  0.59700  0.58740  Biso   1.000  C
  C22      1.0000 0.30230  0.40300  0.58740  Biso   1.000  C
  C23      1.0000 0.19770  0.90300  0.41260  Biso   1.000  C
  C24      1.0000 0.80230  0.09700  0.41260  Biso   1.000  C
  N21      1.0000 0.65930  0.62190  0.51770  Biso   1.000  N
  N22      1.0000 0.34070  0.37810  0.51770  Biso   1.000  N
  N23      1.0000 0.15930  0.87810  0.48230  Biso   1.000  N
  N24      1.0000 0.84070  0.12190  0.48230  Biso   1.000  N
  C25      1.0000 0.82460  0.53610  0.54080  Biso   1.000  C
  C26      1.0000 0.17540  0.46390  0.54080  Biso   1.000  C
  C27      1.0000 0.32460  0.96390  0.45920  Biso   1.000  C
  C28      1.0000 0.67540  0.03610  0.45920  Biso   1.000  C
  N25      1.0000 0.85180  0.53020  0.45190  Biso   1.000  N
  N26      1.0000 0.14820  0.46980  0.45190  Biso   1.000  N
  N27      1.0000 0.35180  0.96980  0.54810  Biso   1.000  N
  N28      1.0000 0.64820  0.03020  0.54810  Biso   1.000  N
  C29      1.0000 0.74900  0.65290  0.78880  Biso   1.000  C
  C30      1.0000 0.25100  0.34710  0.78880  Biso   1.000  C
  C31      1.0000 0.24900  0.84710  0.21120  Biso   1.000  C
  C32      1.0000 0.75100  0.15290  0.21120  Biso   1.000  C
  N29      1.0000 0.73310  0.70610  0.82660  Biso   1.000  N
  N30      1.0000 0.26690  0.29390  0.82660  Biso   1.000  N
  N31      1.0000 0.23310  0.79390  0.17340  Biso   1.000  N
  N32      1.0000 0.76690  0.20610  0.17340  Biso   1.000  N
  N33      1.0000 0.50000  0.50000  0.04200  Biso   1.000  N
  N34      1.0000 0.00000  0.00000  0.95800  Biso   1.000  N
  C33      1.0000 0.52780  0.55510  0.10430  Biso   1.000  C
  C34      1.0000 0.47220  0.44490  0.10430  Biso   1.000  C
  C35      1.0000 0.02780  0.94490  0.89570  Biso   1.000  C
  C36      1.0000 0.97220  0.05510  0.89570  Biso   1.000  C
  H1       1.0000 0.54740  0.59310  0.06220  Biso   1.000  H
  H2       1.0000 0.45260  0.40690  0.06220  Biso   1.000  H
  H3       1.0000 0.04740  0.90690  0.93780  Biso   1.000  H
  H4       1.0000 0.95260  0.09310  0.93780  Biso   1.000  H
  C37      1.0000 0.52820  0.55670  0.22770  Biso   1.000  C
  C38      1.0000 0.47180  0.44330  0.22770  Biso   1.000  C
  C39      1.0000 0.02820  0.94330  0.77230  Biso   1.000  C
  C40      1.0000 0.97180  0.05670  0.77230  Biso   1.000  C
  H5       1.0000 0.54740  0.59580  0.26760  Biso   1.000  H
  H6       1.0000 0.45260  0.40420  0.26760  Biso   1.000  H
  H7       1.0000 0.04740  0.90420  0.73240  Biso   1.000  H
  H8       1.0000 0.95260  0.09580  0.73240  Biso   1.000  H
  C41      1.0000 0.50000  0.50000  0.29360  Biso   1.000  C
  C42      1.0000 0.00000  0.00000  0.70640  Biso   1.000  C
  C43      1.0000 0.50000  0.50000  0.42730  Biso   1.000  C
  C44      1.0000 0.00000  0.00000  0.57270  Biso   1.000  C
  C45      1.0000 0.51760  0.44000  0.49140  Biso   1.000  C
  C46      1.0000 0.48240  0.56000  0.49140  Biso   1.000  C
  C47      1.0000 0.01760  0.06000  0.50860  Biso   1.000  C
  C48      1.0000 0.98240  0.94000  0.50860  Biso   1.000  C
  H9       1.0000 0.52900  0.39850  0.45150  Biso   1.000  H
  H10      1.0000 0.47100  0.60150  0.45150  Biso   1.000  H
  H11      1.0000 0.02900  0.10150  0.54850  Biso   1.000  H
  H12      1.0000 0.97100  0.89850  0.54850  Biso   1.000  H
  C49      1.0000 0.51790  0.44270  0.61570  Biso   1.000  C
  C50      1.0000 0.48210  0.55730  0.61570  Biso   1.000  C
  C51      1.0000 0.01790  0.05730  0.38430  Biso   1.000  C
  C52      1.0000 0.98210  0.94270  0.38430  Biso   1.000  C
  H13      1.0000 0.53120  0.40260  0.65830  Biso   1.000  H
  H14      1.0000 0.46880  0.59740  0.65830  Biso   1.000  H
  H15      1.0000 0.03120  0.09740  0.34170  Biso   1.000  H
  H16      1.0000 0.96880  0.90260  0.34170  Biso   1.000  H
  N35      1.0000 0.50000  0.50000  0.67670  Biso   1.000  N
  N36      1.0000 0.00000  0.00000  0.32330  Biso   1.000  N
  O1       1.0000 0.56360  0.38620  0.88410  Biso   1.000  O
  O2       1.0000 0.43640  0.61380  0.88410  Biso   1.000  O
  O3       1.0000 0.06360  0.11380  0.11590  Biso   1.000  O
  O4       1.0000 0.93640  0.88620  0.11590  Biso   1.000  O
  C53      1.0000 0.63200  0.38540  0.91170  Biso   1.000  C
  C54      1.0000 0.36800  0.61460  0.91170  Biso   1.000  C
  C55      1.0000 0.13200  0.11460  0.08830  Biso   1.000  C
  C56      1.0000 0.86800  0.88540  0.08830  Biso   1.000  C
  H17      1.0000 0.65870  0.42690  0.90060  Biso   1.000  H
  H18      1.0000 0.34130  0.57310  0.90060  Biso   1.000  H
  H19      1.0000 0.15870  0.07310  0.09940  Biso   1.000  H
  H20      1.0000 0.84130  0.92690  0.09940  Biso   1.000  H
  N37      1.0000 0.67030  0.33280  0.95440  Biso   1.000  N
  N38      1.0000 0.32970  0.66720  0.95440  Biso   1.000  N
  N39      1.0000 0.17030  0.16720  0.04560  Biso   1.000  N
  N40      1.0000 0.82970  0.83280  0.04560  Biso   1.000  N
  C57      1.0000 0.68640  0.21830  0.64450  Biso   1.000  C
  C58      1.0000 0.31360  0.78170  0.64450  Biso   1.000  C
  C59      1.0000 0.18640  0.28170  0.35550  Biso   1.000  C
  C60      1.0000 0.81360  0.71830  0.35550  Biso   1.000  C
  H21      1.0000 0.65360  0.17970  0.66350  Biso   1.000  H
  H22      1.0000 0.34640  0.82030  0.66350  Biso   1.000  H
  H23      1.0000 0.15360  0.32030  0.33650  Biso   1.000  H
  H24      1.0000 0.84640  0.67970  0.33650  Biso   1.000  H
  H25      1.0000 0.69400  0.22030  0.55910  Biso   1.000  H
  H26      1.0000 0.30600  0.77970  0.55910  Biso   1.000  H
  H27      1.0000 0.19400  0.27970  0.44090  Biso   1.000  H
  H28      1.0000 0.80600  0.72030  0.44090  Biso   1.000  H
  H29      1.0000 0.66360  0.26120  0.67140  Biso   1.000  H
  H30      1.0000 0.33640  0.73880  0.67140  Biso   1.000  H
  H31      1.0000 0.16360  0.23880  0.32860  Biso   1.000  H
  H32      1.0000 0.83640  0.76120  0.32860  Biso   1.000  H
  C61      1.0000 0.77060  0.14140  0.76500  Biso   1.000  C
  C62      1.0000 0.22940  0.85860  0.76500  Biso   1.000  C
  C63      1.0000 0.27060  0.35860  0.23500  Biso   1.000  C
  C64      1.0000 0.72940  0.64140  0.23500  Biso   1.000  C
  H33      1.0000 0.72390  0.11550  0.76450  Biso   1.000  H
  H34      1.0000 0.27610  0.88450  0.76450  Biso   1.000  H
  H35      1.0000 0.22390  0.38450  0.23550  Biso   1.000  H
  H36      1.0000 0.77610  0.61550  0.23550  Biso   1.000  H
  H37      1.0000 0.78630  0.14940  0.84650  Biso   1.000  H
  H38      1.0000 0.21370  0.85060  0.84650  Biso   1.000  H
  H39      1.0000 0.28630  0.35060  0.15350  Biso   1.000  H
  H40      1.0000 0.71370  0.64940  0.15350  Biso   1.000  H
  H41      1.0000 0.80900  0.11510  0.72360  Biso   1.000  H
  H42      1.0000 0.19100  0.88490  0.72360  Biso   1.000  H
  H43      1.0000 0.30900  0.38490  0.27640  Biso   1.000  H
  H44      1.0000 0.69100  0.61510  0.27640  Biso   1.000  H
  N41      1.0000 0.96490  0.31420  0.55430  Biso   1.000  N
  N42      1.0000 0.03510  0.68580  0.55430  Biso   1.000  N
  N43      1.0000 0.46490  0.18580  0.44570  Biso   1.000  N
  N44      1.0000 0.53510  0.81420  0.44570  Biso   1.000  N
  C65      1.0000 0.95510  0.25510  0.49240  Biso   1.000  C
  C66      1.0000 0.04490  0.74490  0.49240  Biso   1.000  C
  C67      1.0000 0.45510  0.24490  0.50760  Biso   1.000  C
  C68      1.0000 0.54490  0.75510  0.50760  Biso   1.000  C
  H45      1.0000 0.94860  0.21360  0.53500  Biso   1.000  H
  H46      1.0000 0.05140  0.78640  0.53500  Biso   1.000  H
  H47      1.0000 0.44860  0.28640  0.46500  Biso   1.000  H
  H48      1.0000 0.55140  0.71360  0.46500  Biso   1.000  H
  C69      1.0000 0.95400  0.25230  0.36790  Biso   1.000  C
  C70      1.0000 0.04600  0.74770  0.36790  Biso   1.000  C
  C71      1.0000 0.45400  0.24770  0.63210  Biso   1.000  C
  C72      1.0000 0.54600  0.75230  0.63210  Biso   1.000  C
  H49      1.0000 0.94550  0.21000  0.32860  Biso   1.000  H
  H50      1.0000 0.05450  0.79000  0.32860  Biso   1.000  H
  H51      1.0000 0.44550  0.29000  0.67140  Biso   1.000  H
  H52      1.0000 0.55450  0.71000  0.67140  Biso   1.000  H
  C73      1.0000 0.96560  0.31320  0.30230  Biso   1.000  C
  C74      1.0000 0.03440  0.68680  0.30230  Biso   1.000  C
  C75      1.0000 0.46560  0.18680  0.69770  Biso   1.000  C
  C76      1.0000 0.53440  0.81320  0.69770  Biso   1.000  C
  C77      1.0000 0.97710  0.37490  0.36760  Biso   1.000  C
  C78      1.0000 0.02290  0.62510  0.36760  Biso   1.000  C
  C79      1.0000 0.47710  0.12510  0.63240  Biso   1.000  C
  C80      1.0000 0.52290  0.87490  0.63240  Biso   1.000  C
  H53      1.0000 0.98570  0.41690  0.32750  Biso   1.000  H
  H54      1.0000 0.01430  0.58310  0.32750  Biso   1.000  H
  H55      1.0000 0.48570  0.08310  0.67250  Biso   1.000  H
  H56      1.0000 0.51430  0.91690  0.67250  Biso   1.000  H
  C81      1.0000 0.97560  0.37330  0.49210  Biso   1.000  C
  C82      1.0000 0.02440  0.62670  0.49210  Biso   1.000  C
  C83      1.0000 0.47560  0.12670  0.50790  Biso   1.000  C
  C84      1.0000 0.52440  0.87330  0.50790  Biso   1.000  C
  H57      1.0000 0.98240  0.41500  0.53410  Biso   1.000  H
  H58      1.0000 0.01760  0.58500  0.53410  Biso   1.000  H
  H59      1.0000 0.48240  0.08500  0.46590  Biso   1.000  H
  H60      1.0000 0.51760  0.91500  0.46590  Biso   1.000  H
  C85      1.0000 0.98930  0.36830  0.97790  Biso   1.000  C
  C86      1.0000 0.01070  0.63170  0.97790  Biso   1.000  C
  C87      1.0000 0.48930  0.13170  0.02210  Biso   1.000  C
  C88      1.0000 0.51070  0.86830  0.02210  Biso   1.000  C
  H61      1.0000 0.00660  0.40730  0.93580  Biso   1.000  H
  H62      1.0000 0.99340  0.59270  0.93580  Biso   1.000  H
  H63      1.0000 0.50660  0.09270  0.06420  Biso   1.000  H
  H64      1.0000 0.49340  0.90730  0.06420  Biso   1.000  H
  C89      1.0000 0.98960  0.37070  0.10230  Biso   1.000  C
  C90      1.0000 0.01040  0.62930  0.10230  Biso   1.000  C
  C91      1.0000 0.48960  0.12930  0.89770  Biso   1.000  C
  C92      1.0000 0.51040  0.87070  0.89770  Biso   1.000  C
  H65      1.0000 0.00690  0.41040  0.14230  Biso   1.000  H
  H66      1.0000 0.99310  0.58960  0.14230  Biso   1.000  H
  H67      1.0000 0.50690  0.08960  0.85770  Biso   1.000  H
  H68      1.0000 0.49310  0.91040  0.85770  Biso   1.000  H
  C93      1.0000 0.96360  0.31270  0.16750  Biso   1.000  C
  C94      1.0000 0.03640  0.68730  0.16750  Biso   1.000  C
  C95      1.0000 0.46360  0.18730  0.83250  Biso   1.000  C
  C96      1.0000 0.53640  0.81270  0.83250  Biso   1.000  C
  C97      1.0000 0.93770  0.25700  0.10400  Biso   1.000  C
  C98      1.0000 0.06230  0.74300  0.10400  Biso   1.000  C
  C99      1.0000 0.43770  0.24300  0.89600  Biso   1.000  C
  C100     1.0000 0.56230  0.75700  0.89600  Biso   1.000  C
  H69      1.0000 0.91850  0.21820  0.14440  Biso   1.000  H
  H70      1.0000 0.08150  0.78180  0.14440  Biso   1.000  H
  H71      1.0000 0.41850  0.28180  0.85560  Biso   1.000  H
  H72      1.0000 0.58150  0.71820  0.85560  Biso   1.000  H
  C101     1.0000 0.93930  0.25730  0.97960  Biso   1.000  C
  C102     1.0000 0.06070  0.74270  0.97960  Biso   1.000  C
  C103     1.0000 0.43930  0.24270  0.02040  Biso   1.000  C
  C104     1.0000 0.56070  0.75730  0.02040  Biso   1.000  C
  H73      1.0000 0.92190  0.21800  0.93850  Biso   1.000  H
  H74      1.0000 0.07810  0.78200  0.93850  Biso   1.000  H
  H75      1.0000 0.42190  0.28200  0.06150  Biso   1.000  H
  H76      1.0000 0.57810  0.71800  0.06150  Biso   1.000  H
  N45      1.0000 0.96530  0.31290  0.91520  Biso   1.000  N
  N46      1.0000 0.03470  0.68710  0.91520  Biso   1.000  N
  N47      1.0000 0.46530  0.18710  0.08480  Biso   1.000  N
  N48      1.0000 0.53470  0.81290  0.08480  Biso   1.000  N
  O5       1.0000 0.87950  0.24580  0.73730  Biso   1.000  O
  O6       1.0000 0.12050  0.75420  0.73730  Biso   1.000  O
  O7       1.0000 0.37950  0.25420  0.26270  Biso   1.000  O
  O8       1.0000 0.62050  0.74580  0.26270  Biso   1.000  O
  C105     1.0000 0.81420  0.25410  0.69350  Biso   1.000  C
  C106     1.0000 0.18580  0.74590  0.69350  Biso   1.000  C
  C107     1.0000 0.31420  0.24590  0.30650  Biso   1.000  C
  C108     1.0000 0.68580  0.75410  0.30650  Biso   1.000  C
  H77      1.0000 0.80450  0.29500  0.65080  Biso   1.000  H
  H78      1.0000 0.19550  0.70500  0.65080  Biso   1.000  H
  H79      1.0000 0.30450  0.20500  0.34920  Biso   1.000  H
  H80      1.0000 0.69550  0.79500  0.34920  Biso   1.000  H
  N49      1.0000 0.75940  0.20870  0.70440  Biso   1.000  N
  N50      1.0000 0.24060  0.79130  0.70440  Biso   1.000  N
  N51      1.0000 0.25940  0.29130  0.29560  Biso   1.000  N
  N52      1.0000 0.74060  0.70870  0.29560  Biso   1.000  N
  C109     1.0000 0.75170  0.33840  0.98130  Biso   1.000  C
  C110     1.0000 0.24830  0.66160  0.98130  Biso   1.000  C
  C111     1.0000 0.25170  0.16160  0.01870  Biso   1.000  C
  C112     1.0000 0.74830  0.83840  0.01870  Biso   1.000  C
  H81      1.0000 0.77000  0.29430  0.01110  Biso   1.000  H
  H82      1.0000 0.23000  0.70570  0.01110  Biso   1.000  H
  H83      1.0000 0.27000  0.20570  0.98890  Biso   1.000  H
  H84      1.0000 0.73000  0.79430  0.98890  Biso   1.000  H
  H85      1.0000 0.75960  0.37410  0.04100  Biso   1.000  H
  H86      1.0000 0.24040  0.62590  0.04100  Biso   1.000  H
  H87      1.0000 0.25960  0.12590  0.95900  Biso   1.000  H
  H88      1.0000 0.74040  0.87410  0.95900  Biso   1.000  H
  H89      1.0000 0.77880  0.35060  0.90930  Biso   1.000  H
  H90      1.0000 0.22120  0.64940  0.90930  Biso   1.000  H
  H91      1.0000 0.27880  0.14940  0.09070  Biso   1.000  H
  H92      1.0000 0.72120  0.85060  0.09070  Biso   1.000  H
  C113     1.0000 0.63600  0.26570  0.97260  Biso   1.000  C
  C114     1.0000 0.36400  0.73430  0.97260  Biso   1.000  C
  C115     1.0000 0.13600  0.23430  0.02740  Biso   1.000  C
  C116     1.0000 0.86400  0.76570  0.02740  Biso   1.000  C
  H93      1.0000 0.67300  0.23380  0.00430  Biso   1.000  H
  H94      1.0000 0.32700  0.76620  0.00430  Biso   1.000  H
  H95      1.0000 0.17300  0.26620  0.99570  Biso   1.000  H
  H96      1.0000 0.82700  0.73380  0.99570  Biso   1.000  H
  H97      1.0000 0.61730  0.24820  0.89730  Biso   1.000  H
  H98      1.0000 0.38270  0.75180  0.89730  Biso   1.000  H
  H99      1.0000 0.11730  0.25180  0.10270  Biso   1.000  H
  H100     1.0000 0.88270  0.74820  0.10270  Biso   1.000  H
  H101     1.0000 0.59470  0.27010  0.02840  Biso   1.000  H
  H102     1.0000 0.40530  0.72990  0.02840  Biso   1.000  H
  H103     1.0000 0.09470  0.22990  0.97160  Biso   1.000  H
  H104     1.0000 0.90530  0.77010  0.97160  Biso   1.000  H
  O9       1.0000 0.56670  0.30420  0.28670  Biso   1.000  O
  O10      1.0000 0.43330  0.69580  0.28670  Biso   1.000  O
  O11      1.0000 0.06670  0.19580  0.71330  Biso   1.000  O
  O12      1.0000 0.93330  0.80420  0.71330  Biso   1.000  O
  C117     1.0000 0.63190  0.29740  0.32280  Biso   1.000  C
  C118     1.0000 0.36810  0.70260  0.32280  Biso   1.000  C
  C119     1.0000 0.13190  0.20260  0.67720  Biso   1.000  C
  C120     1.0000 0.86810  0.79740  0.67720  Biso   1.000  C
  H105     1.0000 0.64380  0.25420  0.35690  Biso   1.000  H
  H106     1.0000 0.35620  0.74580  0.35690  Biso   1.000  H
  H107     1.0000 0.14380  0.24580  0.64310  Biso   1.000  H
  H108     1.0000 0.85620  0.75420  0.64310  Biso   1.000  H
  N53      1.0000 0.68810  0.34430  0.31930  Biso   1.000  N
  N54      1.0000 0.31190  0.65570  0.31930  Biso   1.000  N
  N55      1.0000 0.18810  0.15570  0.68070  Biso   1.000  N
  N56      1.0000 0.81190  0.84430  0.68070  Biso   1.000  N
  C121     1.0000 0.67510  0.41410  0.27280  Biso   1.000  C
  C122     1.0000 0.32490  0.58590  0.27280  Biso   1.000  C
  C123     1.0000 0.17510  0.08590  0.72720  Biso   1.000  C
  C124     1.0000 0.82490  0.91410  0.72720  Biso   1.000  C
  H109     1.0000 0.72150  0.44040  0.27620  Biso   1.000  H
  H110     1.0000 0.27850  0.55960  0.27620  Biso   1.000  H
  H111     1.0000 0.22150  0.05960  0.72380  Biso   1.000  H
  H112     1.0000 0.77850  0.94040  0.72380  Biso   1.000  H
  H113     1.0000 0.63710  0.43700  0.32040  Biso   1.000  H
  H114     1.0000 0.36290  0.56300  0.32040  Biso   1.000  H
  H115     1.0000 0.13710  0.06300  0.67960  Biso   1.000  H
  H116     1.0000 0.86290  0.93700  0.67960  Biso   1.000  H
  H117     1.0000 0.65820  0.41110  0.19090  Biso   1.000  H
  H118     1.0000 0.34180  0.58890  0.19090  Biso   1.000  H
  H119     1.0000 0.15820  0.08890  0.80910  Biso   1.000  H
  H120     1.0000 0.84180  0.91110  0.80910  Biso   1.000  H
  C125     1.0000 0.76540  0.32830  0.36200  Biso   1.000  C
  C126     1.0000 0.23460  0.67170  0.36200  Biso   1.000  C
  C127     1.0000 0.26540  0.17170  0.63800  Biso   1.000  C
  C128     1.0000 0.73460  0.82830  0.63800  Biso   1.000  C
  H121     1.0000 0.79730  0.36870  0.35110  Biso   1.000  H
  H122     1.0000 0.20270  0.63130  0.35110  Biso   1.000  H
  H123     1.0000 0.29730  0.13130  0.64890  Biso   1.000  H
  H124     1.0000 0.70270  0.86870  0.64890  Biso   1.000  H
  H125     1.0000 0.78570  0.28970  0.31700  Biso   1.000  H
  H126     1.0000 0.21430  0.71030  0.31700  Biso   1.000  H
  H127     1.0000 0.28570  0.21030  0.68300  Biso   1.000  H
  H128     1.0000 0.71430  0.78970  0.68300  Biso   1.000  H
  H129     1.0000 0.76370  0.31630  0.44580  Biso   1.000  H
  H130     1.0000 0.23630  0.68370  0.44580  Biso   1.000  H
  H131     1.0000 0.26370  0.18370  0.55420  Biso   1.000  H
  H132     1.0000 0.73630  0.81630  0.55420  Biso   1.000  H
  O13      1.0000 0.39780  0.99750  0.78620  Biso   1.000  O
  O14      1.0000 0.60220  0.00250  0.78620  Biso   1.000  O
  O15      1.0000 0.89780  0.50250  0.21380  Biso   1.000  O
  O16      1.0000 0.10220  0.49750  0.21380  Biso   1.000  O
