data_image0
_cell_length_a       13.605
_cell_length_b       11.163
_cell_length_c       9.56
_cell_angle_alpha    90
_cell_angle_beta     117.07
_cell_angle_gamma    90

_symmetry_space_group_name_H-M    "P 1"
_symmetry_int_tables_number       1

loop_
  _symmetry_equiv_pos_as_xyz
  'x, y, z'

loop_
  _atom_site_label
  _atom_site_occupancy
  _atom_site_fract_x
  _atom_site_fract_y
  _atom_site_fract_z
  _atom_site_thermal_displace_type
  _atom_site_B_iso_or_equiv
  _atom_site_type_symbol
  Cu1      1.0000 0.00000  0.92844  0.75000  Biso   1.000  Cu
  Cu2      1.0000 0.50000  0.42844  0.75000  Biso   1.000  Cu
  Cu3      1.0000 0.00000  0.07156  0.25000  Biso   1.000  Cu
  Cu4      1.0000 0.50000  0.57156  0.25000  Biso   1.000  Cu
  S1       1.0000 0.82013  0.26127  0.57560  Biso   1.000  S
  S2       1.0000 0.32013  0.76127  0.57560  Biso   1.000  S
  S3       1.0000 0.82013  0.73873  0.07560  Biso   1.000  S
  S4       1.0000 0.32013  0.23873  0.07560  Biso   1.000  S
  O1       1.0000 0.97060  0.99610  0.54670  Biso   1.000  O
  O2       1.0000 0.47060  0.49610  0.54670  Biso   1.000  O
  O3       1.0000 0.97060  0.00390  0.04670  Biso   1.000  O
  O4       1.0000 0.47060  0.50390  0.04670  Biso   1.000  O
  O5       1.0000 0.03230  0.85540  0.95240  Biso   1.000  O
  O6       1.0000 0.53230  0.35540  0.95240  Biso   1.000  O
  O7       1.0000 0.03230  0.14460  0.45240  Biso   1.000  O
  O8       1.0000 0.53230  0.64460  0.45240  Biso   1.000  O
  O9       1.0000 0.79320  0.21090  0.42320  Biso   1.000  O
  O10      1.0000 0.29320  0.71090  0.42320  Biso   1.000  O
  O11      1.0000 0.79320  0.78910  0.92320  Biso   1.000  O
  O12      1.0000 0.29320  0.28910  0.92320  Biso   1.000  O
  O13      1.0000 0.80240  0.17760  0.67970  Biso   1.000  O
  O14      1.0000 0.30240  0.67760  0.67970  Biso   1.000  O
  O15      1.0000 0.80240  0.82240  0.17970  Biso   1.000  O
  O16      1.0000 0.30240  0.32240  0.17970  Biso   1.000  O
  O17      1.0000 0.76300  0.37430  0.56410  Biso   1.000  O
  O18      1.0000 0.26300  0.87430  0.56410  Biso   1.000  O
  O19      1.0000 0.76300  0.62570  0.06410  Biso   1.000  O
  O20      1.0000 0.26300  0.12570  0.06410  Biso   1.000  O
  O21      1.0000 0.80000  0.92620  0.67070  Biso   1.000  O
  O22      1.0000 0.30000  0.42620  0.67070  Biso   1.000  O
  O23      1.0000 0.80000  0.07380  0.17070  Biso   1.000  O
  O24      1.0000 0.30000  0.57380  0.17070  Biso   1.000  O
  O25      1.0000 0.98870  0.76410  0.66540  Biso   1.000  O
  O26      1.0000 0.48870  0.26410  0.66540  Biso   1.000  O
  O27      1.0000 0.98870  0.23590  0.16540  Biso   1.000  O
  O28      1.0000 0.48870  0.73590  0.16540  Biso   1.000  O
  O29      1.0000 0.20340  0.93900  0.80600  Biso   1.000  O
  O30      1.0000 0.70340  0.43900  0.80600  Biso   1.000  O
  O31      1.0000 0.20340  0.06100  0.30600  Biso   1.000  O
  O32      1.0000 0.70340  0.56100  0.30600  Biso   1.000  O
  N1       1.0000 0.02760  0.09810  0.81970  Biso   1.000  N
  N2       1.0000 0.52760  0.59810  0.81970  Biso   1.000  N
  N3       1.0000 0.02760  0.90190  0.31970  Biso   1.000  N
  N4       1.0000 0.52760  0.40190  0.31970  Biso   1.000  N
  C1       1.0000 0.00900  0.10030  0.55380  Biso   1.000  C
  C2       1.0000 0.50900  0.60030  0.55380  Biso   1.000  C
  C3       1.0000 0.00900  0.89970  0.05380  Biso   1.000  C
  C4       1.0000 0.50900  0.39970  0.05380  Biso   1.000  C
  C5       1.0000 0.03450  0.17670  0.70000  Biso   1.000  C
  C6       1.0000 0.53450  0.67670  0.70000  Biso   1.000  C
  C7       1.0000 0.03450  0.82330  0.20000  Biso   1.000  C
  C8       1.0000 0.53450  0.32330  0.20000  Biso   1.000  C
  C9       1.0000 0.96740  0.29390  0.66930  Biso   1.000  C
  C10      1.0000 0.46740  0.79390  0.66930  Biso   1.000  C
  C11      1.0000 0.96740  0.70610  0.16930  Biso   1.000  C
  C12      1.0000 0.46740  0.20610  0.16930  Biso   1.000  C
  C13      1.0000 0.99620  0.35720  0.82610  Biso   1.000  C
  C14      1.0000 0.49620  0.85720  0.82610  Biso   1.000  C
  C15      1.0000 0.99620  0.64280  0.32610  Biso   1.000  C
  C16      1.0000 0.49620  0.14280  0.32610  Biso   1.000  C
  C17      1.0000 0.99060  0.38010  0.56250  Biso   1.000  C
  C18      1.0000 0.49060  0.88010  0.56250  Biso   1.000  C
  C19      1.0000 0.99060  0.61990  0.06250  Biso   1.000  C
  C20      1.0000 0.49060  0.11990  0.06250  Biso   1.000  C
  H1       1.0000 0.10400  0.20500  0.73800  Biso   1.000  H
  H2       1.0000 0.60400  0.70500  0.73800  Biso   1.000  H
  H3       1.0000 0.10400  0.79500  0.23800  Biso   1.000  H
  H4       1.0000 0.60400  0.29500  0.23800  Biso   1.000  H
  H5       1.0000 0.97800  0.30700  0.89200  Biso   1.000  H
  H6       1.0000 0.47800  0.80700  0.89200  Biso   1.000  H
  H7       1.0000 0.97800  0.69300  0.39200  Biso   1.000  H
  H8       1.0000 0.47800  0.19300  0.39200  Biso   1.000  H
  H9       1.0000 0.94800  0.42900  0.80600  Biso   1.000  H
  H10      1.0000 0.44800  0.92900  0.80600  Biso   1.000  H
  H11      1.0000 0.94800  0.57100  0.30600  Biso   1.000  H
  H12      1.0000 0.44800  0.07100  0.30600  Biso   1.000  H
  H13      1.0000 0.06800  0.38100  0.87500  Biso   1.000  H
  H14      1.0000 0.56800  0.88100  0.87500  Biso   1.000  H
  H15      1.0000 0.06800  0.61900  0.37500  Biso   1.000  H
  H16      1.0000 0.56800  0.11900  0.37500  Biso   1.000  H
  H17      1.0000 0.97000  0.34200  0.46500  Biso   1.000  H
  H18      1.0000 0.47000  0.84200  0.46500  Biso   1.000  H
  H19      1.0000 0.97000  0.65800  0.96500  Biso   1.000  H
  H20      1.0000 0.47000  0.15800  0.96500  Biso   1.000  H
  H21      1.0000 0.06300  0.40200  0.61200  Biso   1.000  H
  H22      1.0000 0.56300  0.90200  0.61200  Biso   1.000  H
  H23      1.0000 0.06300  0.59800  0.11200  Biso   1.000  H
  H24      1.0000 0.56300  0.09800  0.11200  Biso   1.000  H
  H25      1.0000 0.94300  0.45000  0.54300  Biso   1.000  H
  H26      1.0000 0.44300  0.95000  0.54300  Biso   1.000  H
  H27      1.0000 0.94300  0.55000  0.04300  Biso   1.000  H
  H28      1.0000 0.44300  0.05000  0.04300  Biso   1.000  H
  H29      1.0000 0.09100  0.10500  0.91400  Biso   1.000  H
  H30      1.0000 0.59100  0.60500  0.91400  Biso   1.000  H
  H31      1.0000 0.09100  0.89500  0.41400  Biso   1.000  H
  H32      1.0000 0.59100  0.39500  0.41400  Biso   1.000  H
  H33      1.0000 0.96400  0.12500  0.83800  Biso   1.000  H
  H34      1.0000 0.46400  0.62500  0.83800  Biso   1.000  H
  H35      1.0000 0.96400  0.87500  0.33800  Biso   1.000  H
  H36      1.0000 0.46400  0.37500  0.33800  Biso   1.000  H
  H37      1.0000 0.73800  0.91200  0.66800  Biso   1.000  H
  H38      1.0000 0.23800  0.41200  0.66800  Biso   1.000  H
  H39      1.0000 0.73800  0.08800  0.16800  Biso   1.000  H
  H40      1.0000 0.23800  0.58800  0.16800  Biso   1.000  H
  H41      1.0000 0.79100  0.01600  0.64800  Biso   1.000  H
  H42      1.0000 0.29100  0.51600  0.64800  Biso   1.000  H
  H43      1.0000 0.79100  0.98400  0.14800  Biso   1.000  H
  H44      1.0000 0.29100  0.48400  0.14800  Biso   1.000  H
  H45      1.0000 0.94900  0.71700  0.68500  Biso   1.000  H
  H46      1.0000 0.44900  0.21700  0.68500  Biso   1.000  H
  H47      1.0000 0.94900  0.28300  0.18500  Biso   1.000  H
  H48      1.0000 0.44900  0.78300  0.18500  Biso   1.000  H
  H49      1.0000 0.05300  0.72400  0.72300  Biso   1.000  H
  H50      1.0000 0.55300  0.22400  0.72300  Biso   1.000  H
  H51      1.0000 0.05300  0.27600  0.22300  Biso   1.000  H
  H52      1.0000 0.55300  0.77600  0.22300  Biso   1.000  H
  H53      1.0000 0.21100  0.88700  0.72300  Biso   1.000  H
  H54      1.0000 0.71100  0.38700  0.72300  Biso   1.000  H
  H55      1.0000 0.21100  0.11300  0.22300  Biso   1.000  H
  H56      1.0000 0.71100  0.61300  0.22300  Biso   1.000  H
  H57      1.0000 0.26400  0.00000  0.87100  Biso   1.000  H
  H58      1.0000 0.76400  0.50000  0.87100  Biso   1.000  H
  H59      1.0000 0.26400  0.00000  0.37100  Biso   1.000  H
  H60      1.0000 0.76400  0.50000  0.37100  Biso   1.000  H
  O33      1.0000 0.17440  0.63800  0.84030  Biso   1.000  O
  O34      1.0000 0.67440  0.13800  0.84030  Biso   1.000  O
  O35      1.0000 0.17440  0.36200  0.34030  Biso   1.000  O
  O36      1.0000 0.67440  0.86200  0.34030  Biso   1.000  O
  H61      1.0000 0.18600  0.70900  0.87100  Biso   1.000  H
  H62      1.0000 0.68600  0.20900  0.87100  Biso   1.000  H
  H63      1.0000 0.18600  0.29100  0.37100  Biso   1.000  H
  H64      1.0000 0.68600  0.79100  0.37100  Biso   1.000  H
  H65      1.0000 0.21100  0.60300  0.94500  Biso   1.000  H
  H66      1.0000 0.71100  0.10300  0.94500  Biso   1.000  H
  H67      1.0000 0.21100  0.39700  0.44500  Biso   1.000  H
  H68      1.0000 0.71100  0.89700  0.44500  Biso   1.000  H
  O37      1.0000 0.80630  0.64480  0.64230  Biso   1.000  O
  O38      1.0000 0.30630  0.14480  0.64230  Biso   1.000  O
  O39      1.0000 0.80630  0.35520  0.14230  Biso   1.000  O
  O40      1.0000 0.30630  0.85520  0.14230  Biso   1.000  O
  H69      1.0000 0.81600  0.65400  0.55600  Biso   1.000  H
  H70      1.0000 0.31600  0.15400  0.55600  Biso   1.000  H
  H71      1.0000 0.81600  0.34600  0.05600  Biso   1.000  H
  H72      1.0000 0.31600  0.84600  0.05600  Biso   1.000  H
  H73      1.0000 0.73800  0.67000  0.66800  Biso   1.000  H
  H74      1.0000 0.23800  0.17000  0.66800  Biso   1.000  H
  H75      1.0000 0.73800  0.33000  0.16800  Biso   1.000  H
  H76      1.0000 0.23800  0.83000  0.16800  Biso   1.000  H
