data_image0
_cell_length_a       9.042
_cell_length_b       11.069
_cell_length_c       11.521
_cell_angle_alpha    108.17
_cell_angle_beta     107.57
_cell_angle_gamma    106.341

_symmetry_space_group_name_H-M    "P 1"
_symmetry_int_tables_number       1

loop_
  _symmetry_equiv_pos_as_xyz
  'x, y, z'

loop_
  _atom_site_label
  _atom_site_occupancy
  _atom_site_fract_x
  _atom_site_fract_y
  _atom_site_fract_z
  _atom_site_thermal_displace_type
  _atom_site_B_iso_or_equiv
  _atom_site_type_symbol
  Cu1      1.0000 0.12235  0.95237  0.85892  Biso   1.000  Cu
  Cu2      1.0000 0.87765  0.04763  0.14108  Biso   1.000  Cu
  S1       1.0000 0.59623  0.07729  0.30878  Biso   1.000  S
  S2       1.0000 0.40377  0.92271  0.69122  Biso   1.000  S
  O1       1.0000 0.30260  0.06090  0.04350  Biso   1.000  O
  O2       1.0000 0.69740  0.93910  0.95650  Biso   1.000  O
  O3       1.0000 0.15850  0.12980  0.15770  Biso   1.000  O
  O4       1.0000 0.84150  0.87020  0.84230  Biso   1.000  O
  O5       1.0000 0.43170  0.99550  0.29760  Biso   1.000  O
  O6       1.0000 0.56830  0.00450  0.70240  Biso   1.000  O
  O7       1.0000 0.62090  0.01850  0.18890  Biso   1.000  O
  O8       1.0000 0.37910  0.98150  0.81110  Biso   1.000  O
  O9       1.0000 0.73860  0.10530  0.43040  Biso   1.000  O
  O10      1.0000 0.26140  0.89470  0.56960  Biso   1.000  O
  O11      1.0000 0.99450  0.85250  0.65240  Biso   1.000  O
  O12      1.0000 0.00550  0.14750  0.34760  Biso   1.000  O
  H1       1.0000 0.06040  0.87400  0.61920  Biso   1.000  H
  H2       1.0000 0.93960  0.12600  0.38080  Biso   1.000  H
  O13      1.0000 0.42320  0.71800  0.27200  Biso   1.000  O
  O14      1.0000 0.57680  0.28200  0.72800  Biso   1.000  O
  O15      1.0000 0.72720  0.90780  0.53850  Biso   1.000  O
  O16      1.0000 0.27280  0.09220  0.46150  Biso   1.000  O
  N1       1.0000 0.12720  0.77320  0.86060  Biso   1.000  N
  N2       1.0000 0.87280  0.22680  0.13940  Biso   1.000  N
  N3       1.0000 0.11760  0.13200  0.85600  Biso   1.000  N
  N4       1.0000 0.88240  0.86800  0.14400  Biso   1.000  N
  C1       1.0000 0.98370  0.65650  0.79430  Biso   1.000  C
  C2       1.0000 0.01630  0.34350  0.20570  Biso   1.000  C
  H3       1.0000 0.88290  0.66080  0.74790  Biso   1.000  H
  H4       1.0000 0.11710  0.33920  0.25210  Biso   1.000  H
  C3       1.0000 0.97790  0.52960  0.79150  Biso   1.000  C
  C4       1.0000 0.02210  0.47040  0.20850  Biso   1.000  C
  H5       1.0000 0.87500  0.45070  0.74470  Biso   1.000  H
  H6       1.0000 0.12500  0.54930  0.25530  Biso   1.000  H
  C5       1.0000 0.12660  0.52100  0.85890  Biso   1.000  C
  C6       1.0000 0.87340  0.47900  0.14110  Biso   1.000  C
  C7       1.0000 0.27650  0.64230  0.92540  Biso   1.000  C
  C8       1.0000 0.72350  0.35770  0.07460  Biso   1.000  C
  H7       1.0000 0.37950  0.63990  0.96980  Biso   1.000  H
  H8       1.0000 0.62050  0.36010  0.03020  Biso   1.000  H
  C9       1.0000 0.27280  0.76660  0.92570  Biso   1.000  C
  C10      1.0000 0.72720  0.23340  0.07430  Biso   1.000  C
  H9       1.0000 0.37370  0.84730  0.97220  Biso   1.000  H
  H10      1.0000 0.62630  0.15270  0.02780  Biso   1.000  H
  C11      1.0000 0.12570  0.38680  0.85880  Biso   1.000  C
  C12      1.0000 0.87430  0.61320  0.14120  Biso   1.000  C
  C13      1.0000 0.99260  0.29590  0.86620  Biso   1.000  C
  C14      1.0000 0.00740  0.70410  0.13380  Biso   1.000  C
  H11      1.0000 0.90260  0.31850  0.87160  Biso   1.000  H
  H12      1.0000 0.09740  0.68150  0.12840  Biso   1.000  H
  C15      1.0000 0.99340  0.17060  0.86540  Biso   1.000  C
  C16      1.0000 0.00660  0.82940  0.13460  Biso   1.000  C
  H13      1.0000 0.90350  0.11110  0.87170  Biso   1.000  H
  H14      1.0000 0.09650  0.88890  0.12830  Biso   1.000  H
  C17      1.0000 0.24750  0.22010  0.84960  Biso   1.000  C
  C18      1.0000 0.75250  0.77990  0.15040  Biso   1.000  C
  H15      1.0000 0.33540  0.19460  0.84350  Biso   1.000  H
  H16      1.0000 0.66460  0.80540  0.15650  Biso   1.000  H
  C19      1.0000 0.25590  0.34710  0.85180  Biso   1.000  C
  C20      1.0000 0.74410  0.65290  0.14820  Biso   1.000  C
  H17      1.0000 0.34930  0.40620  0.84860  Biso   1.000  H
  H18      1.0000 0.65070  0.59380  0.15140  Biso   1.000  H
  C21      1.0000 0.29020  0.13790  0.14350  Biso   1.000  C
  C22      1.0000 0.70980  0.86210  0.85650  Biso   1.000  C
  C23      1.0000 0.45730  0.25820  0.25340  Biso   1.000  C
  C24      1.0000 0.54270  0.74180  0.74660  Biso   1.000  C
  C25      1.0000 0.59780  0.24400  0.32930  Biso   1.000  C
  C26      1.0000 0.40220  0.75600  0.67070  Biso   1.000  C
  C27      1.0000 0.74630  0.36190  0.42250  Biso   1.000  C
  C28      1.0000 0.25370  0.63810  0.57750  Biso   1.000  C
  H19      1.0000 0.84060  0.35160  0.47190  Biso   1.000  H
  H20      1.0000 0.15940  0.64840  0.52810  Biso   1.000  H
  C29      1.0000 0.75600  0.49350  0.44280  Biso   1.000  C
  C30      1.0000 0.24400  0.50650  0.55720  Biso   1.000  C
  H21      1.0000 0.85610  0.57170  0.50550  Biso   1.000  H
  H22      1.0000 0.14390  0.42830  0.49450  Biso   1.000  H
  C31      1.0000 0.61700  0.50880  0.36990  Biso   1.000  C
  C32      1.0000 0.38300  0.49120  0.63010  Biso   1.000  C
  H23      1.0000 0.62250  0.59760  0.38330  Biso   1.000  H
  H24      1.0000 0.37750  0.40240  0.61670  Biso   1.000  H
  C33      1.0000 0.46820  0.39150  0.27610  Biso   1.000  C
  C34      1.0000 0.53180  0.60850  0.72390  Biso   1.000  C
  H25      1.0000 0.37420  0.40270  0.22760  Biso   1.000  H
  H26      1.0000 0.62580  0.59730  0.77240  Biso   1.000  H
  H27      1.0000 0.91500  0.87000  0.61600  Biso   1.000  H
  H28      1.0000 0.08500  0.13000  0.38400  Biso   1.000  H
  H29      1.0000 0.39500  0.77300  0.24900  Biso   1.000  H
  H30      1.0000 0.60500  0.22700  0.75100  Biso   1.000  H
  H31      1.0000 0.67600  0.92600  0.58500  Biso   1.000  H
  H32      1.0000 0.32400  0.07400  0.41500  Biso   1.000  H
  H33      1.0000 0.73500  0.97400  0.52100  Biso   1.000  H
  H34      1.0000 0.26500  0.02600  0.47900  Biso   1.000  H
  H35      1.0000 0.42700  0.74600  0.34800  Biso   1.000  H
  H36      1.0000 0.57300  0.25400  0.65200  Biso   1.000  H
