data_image0
_cell_length_a       7.5248
_cell_length_b       10.8479
_cell_length_c       20.2178
_cell_angle_alpha    79.011
_cell_angle_beta     87.8
_cell_angle_gamma    80.993

_symmetry_space_group_name_H-M    "P 1"
_symmetry_int_tables_number       1

loop_
  _symmetry_equiv_pos_as_xyz
  'x, y, z'

loop_
  _atom_site_label
  _atom_site_occupancy
  _atom_site_fract_x
  _atom_site_fract_y
  _atom_site_fract_z
  _atom_site_thermal_displace_type
  _atom_site_B_iso_or_equiv
  _atom_site_type_symbol
  Cd1      1.0000 0.91700  0.84712  0.30732  Biso   1.000  Cd
  Cd2      1.0000 0.08300  0.15288  0.69268  Biso   1.000  Cd
  Cu1      1.0000 0.00000  0.00000  0.50000  Biso   1.000  Cu
  O1       1.0000 0.75610  0.74430  0.39510  Biso   1.000  O
  O2       1.0000 0.24390  0.25570  0.60490  Biso   1.000  O
  H1       1.0000 0.66900  0.80000  0.39400  Biso   1.000  H
  H2       1.0000 0.33100  0.20000  0.60600  Biso   1.000  H
  O3       1.0000 0.68820  0.01210  0.29520  Biso   1.000  O
  O4       1.0000 0.31180  0.98790  0.70480  Biso   1.000  O
  O5       1.0000 0.69980  0.59800  0.30410  Biso   1.000  O
  O6       1.0000 0.30020  0.40200  0.69590  Biso   1.000  O
  O7       1.0000 0.49120  0.93940  0.37360  Biso   1.000  O
  O8       1.0000 0.50880  0.06060  0.62640  Biso   1.000  O
  O9       1.0000 0.79760  0.75210  0.23007  Biso   1.000  O
  O10      1.0000 0.20240  0.24790  0.76993  Biso   1.000  O
  O11      1.0000 0.05770  0.96480  0.37267  Biso   1.000  O
  O12      1.0000 0.94230  0.03520  0.62733  Biso   1.000  O
  O13      1.0000 0.96730  0.74430  0.06760  Biso   1.000  O
  O14      1.0000 0.03270  0.25570  0.93240  Biso   1.000  O
  H3       1.0000 0.07300  0.75300  0.06200  Biso   1.000  H
  H4       1.0000 0.92700  0.24700  0.93800  Biso   1.000  H
  O15      1.0000 0.16590  0.08270  0.43444  Biso   1.000  O
  O16      1.0000 0.83410  0.91730  0.56556  Biso   1.000  O
  O17      1.0000 0.10360  0.62880  0.16010  Biso   1.000  O
  O18      1.0000 0.89640  0.37120  0.83990  Biso   1.000  O
  O19      1.0000 0.27110  0.40630  0.09240  Biso   1.000  O
  O20      1.0000 0.72890  0.59370  0.90760  Biso   1.000  O
  N1       1.0000 0.14250  0.67120  0.34850  Biso   1.000  N
  N2       1.0000 0.85750  0.32880  0.65150  Biso   1.000  N
  N3       1.0000 0.81350  0.14990  0.47050  Biso   1.000  N
  N4       1.0000 0.18650  0.85010  0.52950  Biso   1.000  N
  N5       1.0000 0.10190  0.92240  0.22030  Biso   1.000  N
  N6       1.0000 0.89810  0.07760  0.77970  Biso   1.000  N
  N7       1.0000 0.74530  0.16430  0.98730  Biso   1.000  N
  N8       1.0000 0.25470  0.83570  0.01270  Biso   1.000  N
  C1       1.0000 0.30890  0.31020  0.20650  Biso   1.000  C
  C2       1.0000 0.69110  0.68980  0.79350  Biso   1.000  C
  C3       1.0000 0.52560  0.45570  0.14130  Biso   1.000  C
  C4       1.0000 0.47440  0.54430  0.85870  Biso   1.000  C
  C5       1.0000 0.43890  0.21710  0.24040  Biso   1.000  C
  C6       1.0000 0.56110  0.78290  0.75960  Biso   1.000  C
  H5       1.0000 0.55880  0.21540  0.22700  Biso   1.000  H
  H6       1.0000 0.44120  0.78460  0.77300  Biso   1.000  H
  C7       1.0000 0.56500  0.51170  0.19390  Biso   1.000  C
  C8       1.0000 0.43500  0.48830  0.80610  Biso   1.000  C
  H7       1.0000 0.49570  0.50240  0.23310  Biso   1.000  H
  H8       1.0000 0.50430  0.49760  0.76690  Biso   1.000  H
  C9       1.0000 0.39260  0.12550  0.29440  Biso   1.000  C
  C10      1.0000 0.60740  0.87450  0.70560  Biso   1.000  C
  C11      1.0000 0.70680  0.58190  0.18930  Biso   1.000  C
  C12      1.0000 0.29320  0.41810  0.81070  Biso   1.000  C
  C13      1.0000 0.21360  0.13440  0.31670  Biso   1.000  C
  C14      1.0000 0.78640  0.86560  0.68330  Biso   1.000  C
  C15      1.0000 0.81370  0.59050  0.13020  Biso   1.000  C
  C16      1.0000 0.18630  0.40950  0.86980  Biso   1.000  C
  C17      1.0000 0.08470  0.22960  0.28330  Biso   1.000  C
  C18      1.0000 0.91530  0.77040  0.71670  Biso   1.000  C
  H9       1.0000 0.96610  0.23580  0.29870  Biso   1.000  H
  H10      1.0000 0.03390  0.76420  0.70130  Biso   1.000  H
  C19      1.0000 0.77670  0.53130  0.07890  Biso   1.000  C
  C20      1.0000 0.22330  0.46870  0.92110  Biso   1.000  C
  H11      1.0000 0.85040  0.53530  0.04080  Biso   1.000  H
  H12      1.0000 0.14960  0.46470  0.95920  Biso   1.000  H
  C21      1.0000 0.12990  0.31570  0.22740  Biso   1.000  C
  C22      1.0000 0.87010  0.68430  0.77260  Biso   1.000  C
  H13      1.0000 0.04140  0.37630  0.20430  Biso   1.000  H
  H14      1.0000 0.95860  0.62370  0.79570  Biso   1.000  H
  C23      1.0000 0.63180  0.46600  0.08320  Biso   1.000  C
  C24      1.0000 0.36820  0.53400  0.91680  Biso   1.000  C
  H15      1.0000 0.60540  0.42930  0.04750  Biso   1.000  H
  H16      1.0000 0.39460  0.57070  0.95250  Biso   1.000  H
  C25      1.0000 0.53540  0.01680  0.32390  Biso   1.000  C
  C26      1.0000 0.46460  0.98320  0.67610  Biso   1.000  C
  C27      1.0000 0.73660  0.64890  0.24600  Biso   1.000  C
  C28      1.0000 0.26340  0.35110  0.75400  Biso   1.000  C
  C29      1.0000 0.14550  0.04910  0.37830  Biso   1.000  C
  C30      1.0000 0.85450  0.95090  0.62170  Biso   1.000  C
  C31      1.0000 0.97710  0.65670  0.12330  Biso   1.000  C
  C32      1.0000 0.02290  0.34330  0.87670  Biso   1.000  C
  C33      1.0000 0.36030  0.39330  0.14280  Biso   1.000  C
  C34      1.0000 0.63970  0.60670  0.85720  Biso   1.000  C
  C35      1.0000 0.27850  0.68370  0.38620  Biso   1.000  C
  C36      1.0000 0.72150  0.31630  0.61380  Biso   1.000  C
  H17      1.0000 0.28530  0.76390  0.39500  Biso   1.000  H
  H18      1.0000 0.71470  0.23610  0.60500  Biso   1.000  H
  C37      1.0000 0.40890  0.58490  0.41280  Biso   1.000  C
  C38      1.0000 0.59110  0.41510  0.58720  Biso   1.000  C
  H19      1.0000 0.49960  0.59880  0.43920  Biso   1.000  H
  H20      1.0000 0.50040  0.40120  0.56080  Biso   1.000  H
  C39      1.0000 0.40450  0.46490  0.40000  Biso   1.000  C
  C40      1.0000 0.59550  0.53510  0.60000  Biso   1.000  C
  C41      1.0000 0.26240  0.45120  0.36160  Biso   1.000  C
  C42      1.0000 0.73760  0.54880  0.63840  Biso   1.000  C
  H21      1.0000 0.25150  0.37190  0.35240  Biso   1.000  H
  H22      1.0000 0.74850  0.62810  0.64760  Biso   1.000  H
  C43      1.0000 0.13850  0.55510  0.33710  Biso   1.000  C
  C44      1.0000 0.86150  0.44490  0.66290  Biso   1.000  C
  H23      1.0000 0.04580  0.54350  0.31080  Biso   1.000  H
  H24      1.0000 0.95420  0.45650  0.68920  Biso   1.000  H
  C45      1.0000 0.54630  0.35600  0.42490  Biso   1.000  C
  C46      1.0000 0.45370  0.64400  0.57510  Biso   1.000  C
  C47      1.0000 0.72410  0.37160  0.43030  Biso   1.000  C
  C48      1.0000 0.27590  0.62840  0.56970  Biso   1.000  C
  H25      1.0000 0.75710  0.45210  0.41850  Biso   1.000  H
  H26      1.0000 0.24290  0.54790  0.58150  Biso   1.000  H
  C49      1.0000 0.85150  0.26860  0.45310  Biso   1.000  C
  C50      1.0000 0.14850  0.73140  0.54690  Biso   1.000  C
  H27      1.0000 0.96970  0.28170  0.45670  Biso   1.000  H
  H28      1.0000 0.03030  0.71830  0.54330  Biso   1.000  H
  C51      1.0000 0.50700  0.23310  0.44230  Biso   1.000  C
  C52      1.0000 0.49300  0.76690  0.55770  Biso   1.000  C
  H29      1.0000 0.39010  0.21750  0.43860  Biso   1.000  H
  H30      1.0000 0.60990  0.78250  0.56140  Biso   1.000  H
  C53      1.0000 0.64260  0.13390  0.46530  Biso   1.000  C
  C54      1.0000 0.35740  0.86610  0.53470  Biso   1.000  C
  H31      1.0000 0.61320  0.05240  0.47770  Biso   1.000  H
  H32      1.0000 0.38680  0.94760  0.52230  Biso   1.000  H
  C55      1.0000 0.26480  0.85760  0.21230  Biso   1.000  C
  C56      1.0000 0.73520  0.14240  0.78770  Biso   1.000  C
  H33      1.0000 0.29380  0.77670  0.23820  Biso   1.000  H
  H34      1.0000 0.70620  0.22330  0.76180  Biso   1.000  H
  C57      1.0000 0.39140  0.90390  0.16810  Biso   1.000  C
  C58      1.0000 0.60860  0.09610  0.83190  Biso   1.000  C
  H35      1.0000 0.50430  0.85580  0.16560  Biso   1.000  H
  H36      1.0000 0.49570  0.14420  0.83440  Biso   1.000  H
  C59      1.0000 0.35220  0.02140  0.12730  Biso   1.000  C
  C60      1.0000 0.64780  0.97860  0.87270  Biso   1.000  C
  C61      1.0000 0.18020  0.08880  0.13380  Biso   1.000  C
  C62      1.0000 0.81980  0.91120  0.86620  Biso   1.000  C
  H37      1.0000 0.14570  0.16780  0.10670  Biso   1.000  H
  H38      1.0000 0.85430  0.83220  0.89330  Biso   1.000  H
  C63      1.0000 0.06240  0.03670  0.18100  Biso   1.000  C
  C64      1.0000 0.93760  0.96330  0.81900  Biso   1.000  C
  H39      1.0000 0.94950  0.08350  0.18560  Biso   1.000  H
  H40      1.0000 0.05050  0.91650  0.81440  Biso   1.000  H
  C65      1.0000 0.48730  0.07480  0.07860  Biso   1.000  C
  C66      1.0000 0.51270  0.92520  0.92140  Biso   1.000  C
  C67      1.0000 0.66880  0.02860  0.08820  Biso   1.000  C
  C68      1.0000 0.33120  0.97140  0.91180  Biso   1.000  C
  H41      1.0000 0.70710  0.96670  0.12550  Biso   1.000  H
  H42      1.0000 0.29290  0.03330  0.87450  Biso   1.000  H
  C69      1.0000 0.79110  0.07580  0.04190  Biso   1.000  C
  C70      1.0000 0.20890  0.92420  0.95810  Biso   1.000  C
  H43      1.0000 0.91250  0.04430  0.04890  Biso   1.000  H
  H44      1.0000 0.08750  0.95570  0.95110  Biso   1.000  H
  C71      1.0000 0.43910  0.16560  0.02190  Biso   1.000  C
  C72      1.0000 0.56090  0.83440  0.97810  Biso   1.000  C
  H45      1.0000 0.31860  0.19750  0.01290  Biso   1.000  H
  H46      1.0000 0.68140  0.80250  0.98710  Biso   1.000  H
  C73      1.0000 0.57210  0.20810  0.97900  Biso   1.000  C
  C74      1.0000 0.42790  0.79190  0.02100  Biso   1.000  C
  H47      1.0000 0.53800  0.27160  0.94200  Biso   1.000  H
  H48      1.0000 0.46200  0.72840  0.05800  Biso   1.000  H
