data_image0
_cell_length_a       5.835
_cell_length_b       5.977
_cell_length_c       12.413
_cell_angle_alpha    83.685
_cell_angle_beta     78.448
_cell_angle_gamma    77.818

_symmetry_space_group_name_H-M    "P 1"
_symmetry_int_tables_number       1

loop_
  _symmetry_equiv_pos_as_xyz
  'x, y, z'

loop_
  _atom_site_label
  _atom_site_occupancy
  _atom_site_fract_x
  _atom_site_fract_y
  _atom_site_fract_z
  _atom_site_thermal_displace_type
  _atom_site_B_iso_or_equiv
  _atom_site_type_symbol
  Cu1      1.0000 0.21048  0.77858  0.00846  Biso   1.000  Cu
  Cu2      1.0000 0.78952  0.22142  0.99154  Biso   1.000  Cu
  P1       1.0000 0.30970  0.31420  0.92631  Biso   1.000  P
  P2       1.0000 0.69030  0.68580  0.07369  Biso   1.000  P
  O1       1.0000 0.19800  0.56020  0.90960  Biso   1.000  O
  O2       1.0000 0.80200  0.43980  0.09040  Biso   1.000  O
  O3       1.0000 0.44350  0.26520  0.01910  Biso   1.000  O
  O4       1.0000 0.55650  0.73480  0.98090  Biso   1.000  O
  O5       1.0000 0.12530  0.14790  0.93460  Biso   1.000  O
  O6       1.0000 0.87470  0.85210  0.06540  Biso   1.000  O
  O7       1.0000 0.74590  0.08730  0.84850  Biso   1.000  O
  O8       1.0000 0.25410  0.91270  0.15150  Biso   1.000  O
  H1       1.0000 0.70320  0.97330  0.88870  Biso   1.000  H
  H2       1.0000 0.29680  0.02670  0.11130  Biso   1.000  H
  C1       1.0000 0.54830  0.21430  0.80540  Biso   1.000  C
  C2       1.0000 0.45170  0.78570  0.19460  Biso   1.000  C
  C3       1.0000 0.62820  0.42950  0.74000  Biso   1.000  C
  C4       1.0000 0.37180  0.57050  0.26000  Biso   1.000  C
  H3       1.0000 0.69950  0.50740  0.78540  Biso   1.000  H
  H4       1.0000 0.30050  0.49260  0.21460  Biso   1.000  H
  H5       1.0000 0.49180  0.53530  0.71830  Biso   1.000  H
  H6       1.0000 0.50820  0.46470  0.28170  Biso   1.000  H
  C5       1.0000 0.81310  0.34990  0.63600  Biso   1.000  C
  C6       1.0000 0.18690  0.65010  0.36400  Biso   1.000  C
  H7       1.0000 0.86270  0.48380  0.59410  Biso   1.000  H
  H8       1.0000 0.13730  0.51620  0.40590  Biso   1.000  H
  H9       1.0000 0.95280  0.25360  0.65960  Biso   1.000  H
  H10      1.0000 0.04720  0.74640  0.34040  Biso   1.000  H
  C7       1.0000 0.72360  0.21950  0.56160  Biso   1.000  C
  C8       1.0000 0.27640  0.78050  0.43840  Biso   1.000  C
  H11      1.0000 0.84900  0.16990  0.50010  Biso   1.000  H
  H12      1.0000 0.15100  0.83010  0.49990  Biso   1.000  H
  H13      1.0000 0.59020  0.31570  0.53290  Biso   1.000  H
  H14      1.0000 0.40980  0.68430  0.46710  Biso   1.000  H
  C9       1.0000 0.64400  0.00850  0.63210  Biso   1.000  C
  C10      1.0000 0.35600  0.99150  0.36790  Biso   1.000  C
  H15      1.0000 0.58130  0.92210  0.58700  Biso   1.000  H
  H16      1.0000 0.41870  0.07790  0.41300  Biso   1.000  H
  H17      1.0000 0.78160  0.90940  0.65620  Biso   1.000  H
  H18      1.0000 0.21840  0.09060  0.34380  Biso   1.000  H
  C11      1.0000 0.45590  0.07790  0.73200  Biso   1.000  C
  C12      1.0000 0.54410  0.92210  0.26800  Biso   1.000  C
  H19      1.0000 0.41150  0.94170  0.77370  Biso   1.000  H
  H20      1.0000 0.58850  0.05830  0.22630  Biso   1.000  H
  H21      1.0000 0.31480  0.17050  0.70820  Biso   1.000  H
  H22      1.0000 0.68520  0.82950  0.29180  Biso   1.000  H
