data_image0
_cell_length_a       14.415
_cell_length_b       7.6125
_cell_length_c       7.5294
_cell_angle_alpha    90
_cell_angle_beta     92.118
_cell_angle_gamma    90

_symmetry_space_group_name_H-M    "P 1"
_symmetry_int_tables_number       1

loop_
  _symmetry_equiv_pos_as_xyz
  'x, y, z'

loop_
  _atom_site_label
  _atom_site_occupancy
  _atom_site_fract_x
  _atom_site_fract_y
  _atom_site_fract_z
  _atom_site_thermal_displace_type
  _atom_site_B_iso_or_equiv
  _atom_site_type_symbol
  Cu1      1.0000 0.98087  0.69266  0.05988  Biso   1.000  Cu
  Cu2      1.0000 0.98087  0.80734  0.55988  Biso   1.000  Cu
  Cu3      1.0000 0.01913  0.30734  0.94012  Biso   1.000  Cu
  Cu4      1.0000 0.01913  0.19266  0.44012  Biso   1.000  Cu
  P1       1.0000 0.88985  0.04417  0.15093  Biso   1.000  P
  P2       1.0000 0.88985  0.45583  0.65093  Biso   1.000  P
  P3       1.0000 0.11015  0.95583  0.84907  Biso   1.000  P
  P4       1.0000 0.11015  0.54417  0.34907  Biso   1.000  P
  O1       1.0000 0.90928  0.90060  0.01570  Biso   1.000  O
  O2       1.0000 0.90928  0.59940  0.51570  Biso   1.000  O
  O3       1.0000 0.09072  0.09940  0.98430  Biso   1.000  O
  O4       1.0000 0.09072  0.40060  0.48430  Biso   1.000  O
  O5       1.0000 0.91490  0.22740  0.08090  Biso   1.000  O
  O6       1.0000 0.91490  0.27260  0.58090  Biso   1.000  O
  O7       1.0000 0.08510  0.77260  0.91910  Biso   1.000  O
  O8       1.0000 0.08510  0.72740  0.41910  Biso   1.000  O
  O9       1.0000 0.94057  0.00910  0.32970  Biso   1.000  O
  O10      1.0000 0.94057  0.49090  0.82970  Biso   1.000  O
  O11      1.0000 0.05943  0.99090  0.67030  Biso   1.000  O
  O12      1.0000 0.05943  0.50910  0.17030  Biso   1.000  O
  C1       1.0000 0.76700  0.03760  0.18630  Biso   1.000  C
  C2       1.0000 0.76700  0.46240  0.68630  Biso   1.000  C
  C3       1.0000 0.23300  0.96240  0.81370  Biso   1.000  C
  C4       1.0000 0.23300  0.53760  0.31370  Biso   1.000  C
  C5       1.0000 0.71680  0.90730  0.11940  Biso   1.000  C
  C6       1.0000 0.71680  0.59270  0.61940  Biso   1.000  C
  C7       1.0000 0.28320  0.09270  0.88060  Biso   1.000  C
  C8       1.0000 0.28320  0.40730  0.38060  Biso   1.000  C
  H1       1.0000 0.74200  0.81800  0.05700  Biso   1.000  H
  H2       1.0000 0.74200  0.68200  0.55700  Biso   1.000  H
  H3       1.0000 0.25800  0.18200  0.94300  Biso   1.000  H
  H4       1.0000 0.25800  0.31800  0.44300  Biso   1.000  H
  C9       1.0000 0.61670  0.87950  0.15860  Biso   1.000  C
  C10      1.0000 0.61670  0.62050  0.65860  Biso   1.000  C
  C11      1.0000 0.38330  0.12050  0.84140  Biso   1.000  C
  C12      1.0000 0.38330  0.37950  0.34140  Biso   1.000  C
  H5       1.0000 0.58280  0.85270  0.04820  Biso   1.000  H
  H6       1.0000 0.58280  0.64730  0.54820  Biso   1.000  H
  H7       1.0000 0.41720  0.14730  0.95180  Biso   1.000  H
  H8       1.0000 0.41720  0.35270  0.45180  Biso   1.000  H
  H9       1.0000 0.61200  0.77810  0.23570  Biso   1.000  H
  H10      1.0000 0.61200  0.72190  0.73570  Biso   1.000  H
  H11      1.0000 0.38800  0.22190  0.76430  Biso   1.000  H
  H12      1.0000 0.38800  0.27810  0.26430  Biso   1.000  H
  C13      1.0000 0.57300  0.02700  0.24100  Biso   1.000  C
  C14      1.0000 0.57300  0.47300  0.74100  Biso   1.000  C
  C15      1.0000 0.42700  0.97300  0.75900  Biso   1.000  C
  C16      1.0000 0.42700  0.52700  0.25900  Biso   1.000  C
  H13      1.0000 0.51390  0.99100  0.28740  Biso   1.000  H
  H14      1.0000 0.51390  0.50900  0.78740  Biso   1.000  H
  H15      1.0000 0.48610  0.00900  0.71260  Biso   1.000  H
  H16      1.0000 0.48610  0.49100  0.21260  Biso   1.000  H
  H17      1.0000 0.56160  0.11940  0.15480  Biso   1.000  H
  H18      1.0000 0.56160  0.38060  0.65480  Biso   1.000  H
  H19      1.0000 0.43840  0.88060  0.84520  Biso   1.000  H
  H20      1.0000 0.43840  0.61940  0.34520  Biso   1.000  H
  C17      1.0000 0.63730  0.09300  0.39220  Biso   1.000  C
  C18      1.0000 0.63730  0.40700  0.89220  Biso   1.000  C
  C19      1.0000 0.36270  0.90700  0.60780  Biso   1.000  C
  C20      1.0000 0.36270  0.59300  0.10780  Biso   1.000  C
  H21      1.0000 0.65440  0.99690  0.47170  Biso   1.000  H
  H22      1.0000 0.65440  0.50310  0.97170  Biso   1.000  H
  H23      1.0000 0.34560  0.00310  0.52830  Biso   1.000  H
  H24      1.0000 0.34560  0.49690  0.02830  Biso   1.000  H
  H25      1.0000 0.60650  0.18260  0.45980  Biso   1.000  H
  H26      1.0000 0.60650  0.31740  0.95980  Biso   1.000  H
  H27      1.0000 0.39350  0.81740  0.54020  Biso   1.000  H
  H28      1.0000 0.39350  0.68260  0.04020  Biso   1.000  H
  C21      1.0000 0.58300  0.99800  0.31100  Biso   1.000  C
  C22      1.0000 0.58300  0.50200  0.81100  Biso   1.000  C
  C23      1.0000 0.41700  0.00200  0.68900  Biso   1.000  C
  C24      1.0000 0.41700  0.49800  0.18900  Biso   1.000  C
  H29      1.0000 0.51600  0.00710  0.30190  Biso   1.000  H
  H30      1.0000 0.51600  0.49290  0.80190  Biso   1.000  H
  H31      1.0000 0.48400  0.99290  0.69810  Biso   1.000  H
  H32      1.0000 0.48400  0.50710  0.19810  Biso   1.000  H
  H33      1.0000 0.59960  0.94280  0.42430  Biso   1.000  H
  H34      1.0000 0.59960  0.55720  0.92430  Biso   1.000  H
  H35      1.0000 0.40040  0.05720  0.57570  Biso   1.000  H
  H36      1.0000 0.40040  0.44280  0.07570  Biso   1.000  H
  C25      1.0000 0.62410  0.17600  0.30700  Biso   1.000  C
  C26      1.0000 0.62410  0.32400  0.80700  Biso   1.000  C
  C27      1.0000 0.37590  0.82400  0.69300  Biso   1.000  C
  C28      1.0000 0.37590  0.67600  0.19300  Biso   1.000  C
  H37      1.0000 0.60520  0.24120  0.41030  Biso   1.000  H
  H38      1.0000 0.60520  0.25880  0.91030  Biso   1.000  H
  H39      1.0000 0.39480  0.75880  0.58970  Biso   1.000  H
  H40      1.0000 0.39480  0.74120  0.08970  Biso   1.000  H
  H41      1.0000 0.60020  0.23720  0.20190  Biso   1.000  H
  H42      1.0000 0.60020  0.26280  0.70190  Biso   1.000  H
  H43      1.0000 0.39980  0.76280  0.79810  Biso   1.000  H
  H44      1.0000 0.39980  0.73720  0.29810  Biso   1.000  H
  C29      1.0000 0.72750  0.17190  0.30540  Biso   1.000  C
  C30      1.0000 0.72750  0.32810  0.80540  Biso   1.000  C
  C31      1.0000 0.27250  0.82810  0.69460  Biso   1.000  C
  C32      1.0000 0.27250  0.67190  0.19460  Biso   1.000  C
  H45      1.0000 0.71130  0.27670  0.23800  Biso   1.000  H
  H46      1.0000 0.71130  0.22330  0.73800  Biso   1.000  H
  H47      1.0000 0.28870  0.72330  0.76200  Biso   1.000  H
  H48      1.0000 0.28870  0.77670  0.26200  Biso   1.000  H
  H49      1.0000 0.77310  0.20370  0.39780  Biso   1.000  H
  H50      1.0000 0.77310  0.29630  0.89780  Biso   1.000  H
  H51      1.0000 0.22690  0.79630  0.60220  Biso   1.000  H
  H52      1.0000 0.22690  0.70370  0.10220  Biso   1.000  H
  O13      1.0000 0.87178  0.57550  0.16840  Biso   1.000  O
  O14      1.0000 0.87178  0.92450  0.66840  Biso   1.000  O
  O15      1.0000 0.12822  0.42450  0.83160  Biso   1.000  O
  O16      1.0000 0.12822  0.07550  0.33160  Biso   1.000  O
  H53      1.0000 0.88680  0.44910  0.14330  Biso   1.000  H
  H54      1.0000 0.88680  0.05090  0.64330  Biso   1.000  H
  H55      1.0000 0.11320  0.55090  0.85670  Biso   1.000  H
  H56      1.0000 0.11320  0.94910  0.35670  Biso   1.000  H
  H57      1.0000 0.87960  0.59010  0.28700  Biso   1.000  H
  H58      1.0000 0.87960  0.90990  0.78700  Biso   1.000  H
  H59      1.0000 0.12040  0.40990  0.71300  Biso   1.000  H
  H60      1.0000 0.12040  0.09010  0.21300  Biso   1.000  H
