data_image0
_cell_length_a       5.7384
_cell_length_b       9.5708
_cell_length_c       10.0605
_cell_angle_alpha    65.924
_cell_angle_beta     81.885
_cell_angle_gamma    86.47

_symmetry_space_group_name_H-M    "P 1"
_symmetry_int_tables_number       1

loop_
  _symmetry_equiv_pos_as_xyz
  'x, y, z'

loop_
  _atom_site_label
  _atom_site_occupancy
  _atom_site_fract_x
  _atom_site_fract_y
  _atom_site_fract_z
  _atom_site_thermal_displace_type
  _atom_site_B_iso_or_equiv
  _atom_site_type_symbol
  Cu1      1.0000 0.51711  0.84504  0.12926  Biso   1.000  Cu
  Cu2      1.0000 0.48289  0.15496  0.87074  Biso   1.000  Cu
  Cu3      1.0000 0.00000  0.00000  0.00000  Biso   1.000  Cu
  C1       1.0000 0.95620  0.74630  0.46290  Biso   1.000  C
  C2       1.0000 0.04380  0.25370  0.53710  Biso   1.000  C
  C3       1.0000 0.88330  0.81630  0.31220  Biso   1.000  C
  C4       1.0000 0.11670  0.18370  0.68780  Biso   1.000  C
  O1       1.0000 0.68380  0.78010  0.29970  Biso   1.000  O
  O2       1.0000 0.31620  0.21990  0.70030  Biso   1.000  O
  O3       1.0000 0.02780  0.90560  0.21010  Biso   1.000  O
  O4       1.0000 0.97220  0.09440  0.78990  Biso   1.000  O
  C5       1.0000 0.83610  0.61840  0.56950  Biso   1.000  C
  C6       1.0000 0.16390  0.38160  0.43050  Biso   1.000  C
  H1       1.0000 0.71320  0.57770  0.54580  Biso   1.000  H
  H2       1.0000 0.28680  0.42230  0.45420  Biso   1.000  H
  C7       1.0000 0.89860  0.55100  0.71150  Biso   1.000  C
  C8       1.0000 0.10140  0.44900  0.28850  Biso   1.000  C
  C9       1.0000 0.76890  0.41180  0.82620  Biso   1.000  C
  C10      1.0000 0.23110  0.58820  0.17380  Biso   1.000  C
  O5       1.0000 0.63140  0.35150  0.77500  Biso   1.000  O
  O6       1.0000 0.36860  0.64850  0.22500  Biso   1.000  O
  O7       1.0000 0.80400  0.36570  0.95610  Biso   1.000  O
  O8       1.0000 0.19600  0.63430  0.04390  Biso   1.000  O
  C11      1.0000 0.08260  0.61260  0.74670  Biso   1.000  C
  C12      1.0000 0.91740  0.38740  0.25330  Biso   1.000  C
  H3       1.0000 0.12600  0.56860  0.84090  Biso   1.000  H
  H4       1.0000 0.87400  0.43140  0.15910  Biso   1.000  H
  C13      1.0000 0.20130  0.74120  0.63950  Biso   1.000  C
  C14      1.0000 0.79870  0.25880  0.36050  Biso   1.000  C
  C15      1.0000 0.38920  0.80550  0.67910  Biso   1.000  C
  C16      1.0000 0.61080  0.19450  0.32090  Biso   1.000  C
  N1       1.0000 0.53380  0.85430  0.71440  Biso   1.000  N
  N2       1.0000 0.46620  0.14570  0.28560  Biso   1.000  N
  C17      1.0000 0.14200  0.80850  0.49670  Biso   1.000  C
  C18      1.0000 0.85800  0.19150  0.50330  Biso   1.000  C
  H5       1.0000 0.22430  0.89280  0.42570  Biso   1.000  H
  H6       1.0000 0.77570  0.10720  0.57430  Biso   1.000  H
  O9       1.0000 0.80290  0.78870  0.97310  Biso   1.000  O
  O10      1.0000 0.19710  0.21130  0.02690  Biso   1.000  O
  O11      1.0000 0.33230  0.94860  0.96340  Biso   1.000  O
  O12      1.0000 0.66770  0.05140  0.03660  Biso   1.000  O
  H7       1.0000 0.75270  0.79530  0.89490  Biso   1.000  H
  H8       1.0000 0.24730  0.20470  0.10510  Biso   1.000  H
  H9       1.0000 0.92100  0.72640  0.98290  Biso   1.000  H
  H10      1.0000 0.07900  0.27360  0.01710  Biso   1.000  H
  H11      1.0000 0.34800  0.87510  0.91760  Biso   1.000  H
  H12      1.0000 0.65200  0.12490  0.08240  Biso   1.000  H
