data_image0
_cell_length_a       17.355
_cell_length_b       13.081
_cell_length_c       7.7039
_cell_angle_alpha    90
_cell_angle_beta     90
_cell_angle_gamma    90

_symmetry_space_group_name_H-M    "P 1"
_symmetry_int_tables_number       1

loop_
  _symmetry_equiv_pos_as_xyz
  'x, y, z'

loop_
  _atom_site_label
  _atom_site_occupancy
  _atom_site_fract_x
  _atom_site_fract_y
  _atom_site_fract_z
  _atom_site_thermal_displace_type
  _atom_site_B_iso_or_equiv
  _atom_site_type_symbol
  Cu1      1.0000 0.11176  0.08063  0.92160  Biso   1.000  Cu
  Cu2      1.0000 0.88824  0.91937  0.42160  Biso   1.000  Cu
  Cu3      1.0000 0.38824  0.58063  0.42160  Biso   1.000  Cu
  Cu4      1.0000 0.61176  0.41937  0.92160  Biso   1.000  Cu
  N1       1.0000 0.04490  0.98070  0.80700  Biso   1.000  N
  N2       1.0000 0.95510  0.01930  0.30700  Biso   1.000  N
  N3       1.0000 0.45510  0.48070  0.30700  Biso   1.000  N
  N4       1.0000 0.54490  0.51930  0.80700  Biso   1.000  N
  N5       1.0000 0.95690  0.91560  0.62580  Biso   1.000  N
  N6       1.0000 0.04310  0.08440  0.12580  Biso   1.000  N
  N7       1.0000 0.54310  0.41560  0.12580  Biso   1.000  N
  N8       1.0000 0.45690  0.58440  0.62580  Biso   1.000  N
  N9       1.0000 0.18450  0.19300  0.01430  Biso   1.000  N
  N10      1.0000 0.81550  0.80700  0.51430  Biso   1.000  N
  N11      1.0000 0.31550  0.69300  0.51430  Biso   1.000  N
  N12      1.0000 0.68450  0.30700  0.01430  Biso   1.000  N
  N13      1.0000 0.26130  0.18740  0.97530  Biso   1.000  N
  N14      1.0000 0.73870  0.81260  0.47530  Biso   1.000  N
  N15      1.0000 0.23870  0.68740  0.47530  Biso   1.000  N
  N16      1.0000 0.76130  0.31260  0.97530  Biso   1.000  N
  N17      1.0000 0.17680  0.08750  0.69930  Biso   1.000  N
  N18      1.0000 0.82320  0.91250  0.19930  Biso   1.000  N
  N19      1.0000 0.32320  0.58750  0.19930  Biso   1.000  N
  N20      1.0000 0.67680  0.41250  0.69930  Biso   1.000  N
  N21      1.0000 0.25560  0.09810  0.71130  Biso   1.000  N
  N22      1.0000 0.74440  0.90190  0.21130  Biso   1.000  N
  N23      1.0000 0.24440  0.59810  0.21130  Biso   1.000  N
  N24      1.0000 0.75560  0.40190  0.71130  Biso   1.000  N
  N25      1.0000 0.21230  0.97180  0.01750  Biso   1.000  N
  N26      1.0000 0.78770  0.02820  0.51750  Biso   1.000  N
  N27      1.0000 0.28770  0.47180  0.51750  Biso   1.000  N
  N28      1.0000 0.71230  0.52820  0.01750  Biso   1.000  N
  N29      1.0000 0.28410  0.00750  0.97260  Biso   1.000  N
  N30      1.0000 0.71590  0.99250  0.47260  Biso   1.000  N
  N31      1.0000 0.21590  0.50750  0.47260  Biso   1.000  N
  N32      1.0000 0.78410  0.49250  0.97260  Biso   1.000  N
  C1       1.0000 0.98580  0.00040  0.69990  Biso   1.000  C
  C2       1.0000 0.01420  0.99960  0.19990  Biso   1.000  C
  C3       1.0000 0.51420  0.50040  0.19990  Biso   1.000  C
  C4       1.0000 0.48580  0.49960  0.69990  Biso   1.000  C
  C5       1.0000 0.00080  0.83600  0.68850  Biso   1.000  C
  C6       1.0000 0.99920  0.16400  0.18850  Biso   1.000  C
  C7       1.0000 0.49920  0.33600  0.18850  Biso   1.000  C
  C8       1.0000 0.50080  0.66400  0.68850  Biso   1.000  C
  C9       1.0000 0.05460  0.87610  0.79920  Biso   1.000  C
  C10      1.0000 0.94540  0.12390  0.29920  Biso   1.000  C
  C11      1.0000 0.44540  0.37610  0.29920  Biso   1.000  C
  C12      1.0000 0.55460  0.62390  0.79920  Biso   1.000  C
  C13      1.0000 0.17750  0.27610  0.10940  Biso   1.000  C
  C14      1.0000 0.82250  0.72390  0.60940  Biso   1.000  C
  C15      1.0000 0.32250  0.77610  0.60940  Biso   1.000  C
  C16      1.0000 0.67750  0.22390  0.10940  Biso   1.000  C
  C17      1.0000 0.24860  0.32610  0.13590  Biso   1.000  C
  C18      1.0000 0.75140  0.67390  0.63590  Biso   1.000  C
  C19      1.0000 0.25140  0.82610  0.63590  Biso   1.000  C
  C20      1.0000 0.74860  0.17390  0.13590  Biso   1.000  C
  C21      1.0000 0.30060  0.26640  0.04910  Biso   1.000  C
  C22      1.0000 0.69940  0.73360  0.54910  Biso   1.000  C
  C23      1.0000 0.19940  0.76640  0.54910  Biso   1.000  C
  C24      1.0000 0.80060  0.23360  0.04910  Biso   1.000  C
  C25      1.0000 0.16160  0.08220  0.53240  Biso   1.000  C
  C26      1.0000 0.83840  0.91780  0.03240  Biso   1.000  C
  C27      1.0000 0.33840  0.58220  0.03240  Biso   1.000  C
  C28      1.0000 0.66160  0.41780  0.53240  Biso   1.000  C
  C29      1.0000 0.22930  0.08900  0.42860  Biso   1.000  C
  C30      1.0000 0.77070  0.91100  0.92860  Biso   1.000  C
  C31      1.0000 0.27070  0.58900  0.92860  Biso   1.000  C
  C32      1.0000 0.72930  0.41100  0.42860  Biso   1.000  C
  C33      1.0000 0.28740  0.09850  0.55270  Biso   1.000  C
  C34      1.0000 0.71260  0.90150  0.05270  Biso   1.000  C
  C35      1.0000 0.21260  0.59850  0.05270  Biso   1.000  C
  C36      1.0000 0.78740  0.40150  0.55270  Biso   1.000  C
  C37      1.0000 0.22720  0.88690  0.10700  Biso   1.000  C
  C38      1.0000 0.77280  0.11310  0.60700  Biso   1.000  C
  C39      1.0000 0.27280  0.38690  0.60700  Biso   1.000  C
  C40      1.0000 0.72720  0.61310  0.10700  Biso   1.000  C
  C41      1.0000 0.30690  0.86670  0.11900  Biso   1.000  C
  C42      1.0000 0.69310  0.13330  0.61900  Biso   1.000  C
  C43      1.0000 0.19310  0.36670  0.61900  Biso   1.000  C
  C44      1.0000 0.80690  0.63330  0.11900  Biso   1.000  C
  C45      1.0000 0.34130  0.94680  0.03100  Biso   1.000  C
  C46      1.0000 0.65870  0.05320  0.53100  Biso   1.000  C
  C47      1.0000 0.15870  0.44680  0.53100  Biso   1.000  C
  C48      1.0000 0.84130  0.55320  0.03100  Biso   1.000  C
  C49      1.0000 0.29160  0.10300  0.87690  Biso   1.000  C
  C50      1.0000 0.70840  0.89700  0.37690  Biso   1.000  C
  C51      1.0000 0.20840  0.60300  0.37690  Biso   1.000  C
  C52      1.0000 0.79160  0.39700  0.87690  Biso   1.000  C
  H1       1.0000 0.96667  0.06564  0.67930  Biso   1.000  H
  H2       1.0000 0.03333  0.93436  0.17930  Biso   1.000  H
  H3       1.0000 0.53333  0.56564  0.17930  Biso   1.000  H
  H4       1.0000 0.46667  0.43436  0.67930  Biso   1.000  H
  H5       1.0000 0.99490  0.76728  0.66066  Biso   1.000  H
  H6       1.0000 0.00510  0.23272  0.16066  Biso   1.000  H
  H7       1.0000 0.50510  0.26728  0.16066  Biso   1.000  H
  H8       1.0000 0.49490  0.73272  0.66066  Biso   1.000  H
  H9       1.0000 0.09168  0.83877  0.85896  Biso   1.000  H
  H10      1.0000 0.90832  0.16123  0.35896  Biso   1.000  H
  H11      1.0000 0.40832  0.33877  0.35896  Biso   1.000  H
  H12      1.0000 0.59168  0.66123  0.85896  Biso   1.000  H
  H13      1.0000 0.13088  0.29928  0.15414  Biso   1.000  H
  H14      1.0000 0.86912  0.70072  0.65414  Biso   1.000  H
  H15      1.0000 0.36912  0.79928  0.65414  Biso   1.000  H
  H16      1.0000 0.63088  0.20072  0.15414  Biso   1.000  H
  H17      1.0000 0.25801  0.38579  0.19814  Biso   1.000  H
  H18      1.0000 0.74199  0.61421  0.69814  Biso   1.000  H
  H19      1.0000 0.24199  0.88579  0.69814  Biso   1.000  H
  H20      1.0000 0.75801  0.11421  0.19814  Biso   1.000  H
  H21      1.0000 0.35338  0.27761  0.04178  Biso   1.000  H
  H22      1.0000 0.64662  0.72239  0.54178  Biso   1.000  H
  H23      1.0000 0.14662  0.77761  0.54178  Biso   1.000  H
  H24      1.0000 0.85338  0.22239  0.04178  Biso   1.000  H
  H25      1.0000 0.11221  0.07469  0.48710  Biso   1.000  H
  H26      1.0000 0.88779  0.92531  0.98710  Biso   1.000  H
  H27      1.0000 0.38779  0.57469  0.98710  Biso   1.000  H
  H28      1.0000 0.61221  0.42531  0.48710  Biso   1.000  H
  H29      1.0000 0.23358  0.08756  0.30829  Biso   1.000  H
  H30      1.0000 0.76642  0.91244  0.80829  Biso   1.000  H
  H31      1.0000 0.26642  0.58756  0.80829  Biso   1.000  H
  H32      1.0000 0.73358  0.41244  0.30829  Biso   1.000  H
  H33      1.0000 0.33984  0.10406  0.52924  Biso   1.000  H
  H34      1.0000 0.66016  0.89594  0.02924  Biso   1.000  H
  H35      1.0000 0.16016  0.60406  0.02924  Biso   1.000  H
  H36      1.0000 0.83984  0.39594  0.52924  Biso   1.000  H
  H37      1.0000 0.18934  0.84541  0.15528  Biso   1.000  H
  H38      1.0000 0.81066  0.15459  0.65528  Biso   1.000  H
  H39      1.0000 0.31066  0.34541  0.65528  Biso   1.000  H
  H40      1.0000 0.68934  0.65459  0.15528  Biso   1.000  H
  H41      1.0000 0.33079  0.81215  0.17467  Biso   1.000  H
  H42      1.0000 0.66921  0.18785  0.67467  Biso   1.000  H
  H43      1.0000 0.16921  0.31215  0.67467  Biso   1.000  H
  H44      1.0000 0.83079  0.68785  0.17467  Biso   1.000  H
  H45      1.0000 0.39388  0.95643  0.01511  Biso   1.000  H
  H46      1.0000 0.60612  0.04357  0.51511  Biso   1.000  H
  H47      1.0000 0.10612  0.45643  0.51511  Biso   1.000  H
  H48      1.0000 0.89388  0.54357  0.01511  Biso   1.000  H
  H49      1.0000 0.34665  0.11556  0.85833  Biso   1.000  H
  H50      1.0000 0.65335  0.88444  0.35833  Biso   1.000  H
  H51      1.0000 0.15335  0.61556  0.35833  Biso   1.000  H
  H52      1.0000 0.84665  0.38444  0.85833  Biso   1.000  H
  F1       1.0000 0.04497  0.24120  0.77570  Biso   1.000  F
  F2       1.0000 0.95503  0.75880  0.27570  Biso   1.000  F
  F3       1.0000 0.45503  0.74120  0.27570  Biso   1.000  F
  F4       1.0000 0.54497  0.25880  0.77570  Biso   1.000  F
  F5       1.0000 0.99420  0.36450  0.59880  Biso   1.000  F
  F6       1.0000 0.00580  0.63550  0.09880  Biso   1.000  F
  F7       1.0000 0.50580  0.86450  0.09880  Biso   1.000  F
  F8       1.0000 0.49420  0.13550  0.59880  Biso   1.000  F
  F9       1.0000 0.97460  0.37230  0.88340  Biso   1.000  F
  F10      1.0000 0.02540  0.62770  0.38340  Biso   1.000  F
  F11      1.0000 0.52540  0.87230  0.38340  Biso   1.000  F
  F12      1.0000 0.47460  0.12770  0.88340  Biso   1.000  F
  F13      1.0000 0.91548  0.24960  0.72710  Biso   1.000  F
  F14      1.0000 0.08452  0.75040  0.22710  Biso   1.000  F
  F15      1.0000 0.58452  0.74960  0.22710  Biso   1.000  F
  F16      1.0000 0.41548  0.25040  0.72710  Biso   1.000  F
  B1       1.0000 0.98380  0.30670  0.74240  Biso   1.000  B
  B2       1.0000 0.01620  0.69330  0.24240  Biso   1.000  B
  B3       1.0000 0.51620  0.80670  0.24240  Biso   1.000  B
  B4       1.0000 0.48380  0.19330  0.74240  Biso   1.000  B
