data_image0
_cell_length_a       18.499
_cell_length_b       12.994
_cell_length_c       7.7682
_cell_angle_alpha    90
_cell_angle_beta     90
_cell_angle_gamma    90

_symmetry_space_group_name_H-M    "P 1"
_symmetry_int_tables_number       1

loop_
  _symmetry_equiv_pos_as_xyz
  'x, y, z'

loop_
  _atom_site_label
  _atom_site_occupancy
  _atom_site_fract_x
  _atom_site_fract_y
  _atom_site_fract_z
  _atom_site_thermal_displace_type
  _atom_site_B_iso_or_equiv
  _atom_site_type_symbol
  Cu1      1.0000 0.09747  0.09683  0.57881  Biso   1.000  Cu
  Cu2      1.0000 0.90253  0.90317  0.07881  Biso   1.000  Cu
  Cu3      1.0000 0.40253  0.59683  0.07881  Biso   1.000  Cu
  Cu4      1.0000 0.59747  0.40317  0.57881  Biso   1.000  Cu
  S1       1.0000 0.96312  0.30295  0.71652  Biso   1.000  S
  S2       1.0000 0.03688  0.69705  0.21652  Biso   1.000  S
  S3       1.0000 0.53688  0.80295  0.21652  Biso   1.000  S
  S4       1.0000 0.46312  0.19705  0.71652  Biso   1.000  S
  F1       1.0000 0.01057  0.38500  0.00340  Biso   1.000  F
  F2       1.0000 0.98943  0.61500  0.50340  Biso   1.000  F
  F3       1.0000 0.48943  0.88500  0.50340  Biso   1.000  F
  F4       1.0000 0.51057  0.11500  0.00340  Biso   1.000  F
  F5       1.0000 0.03673  0.46940  0.77440  Biso   1.000  F
  F6       1.0000 0.96327  0.53060  0.27440  Biso   1.000  F
  F7       1.0000 0.46327  0.96940  0.27440  Biso   1.000  F
  F8       1.0000 0.53673  0.03060  0.77440  Biso   1.000  F
  F9       1.0000 0.92833  0.47330  0.87270  Biso   1.000  F
  F10      1.0000 0.07167  0.52670  0.37270  Biso   1.000  F
  F11      1.0000 0.57167  0.97330  0.37270  Biso   1.000  F
  F12      1.0000 0.42833  0.02670  0.87270  Biso   1.000  F
  O1       1.0000 0.02856  0.24370  0.71010  Biso   1.000  O
  O2       1.0000 0.97144  0.75630  0.21010  Biso   1.000  O
  O3       1.0000 0.47144  0.74370  0.21010  Biso   1.000  O
  O4       1.0000 0.52856  0.25630  0.71010  Biso   1.000  O
  O5       1.0000 0.94129  0.34980  0.55720  Biso   1.000  O
  O6       1.0000 0.05871  0.65020  0.05720  Biso   1.000  O
  O7       1.0000 0.55871  0.84980  0.05720  Biso   1.000  O
  O8       1.0000 0.44129  0.15020  0.55720  Biso   1.000  O
  O9       1.0000 0.90376  0.25640  0.81020  Biso   1.000  O
  O10      1.0000 0.09624  0.74360  0.31020  Biso   1.000  O
  O11      1.0000 0.59624  0.75640  0.31020  Biso   1.000  O
  O12      1.0000 0.40376  0.24360  0.81020  Biso   1.000  O
  N1       1.0000 0.03973  0.98870  0.69020  Biso   1.000  N
  N2       1.0000 0.96027  0.01130  0.19020  Biso   1.000  N
  N3       1.0000 0.46027  0.48870  0.19020  Biso   1.000  N
  N4       1.0000 0.53973  0.51130  0.69020  Biso   1.000  N
  N5       1.0000 0.96196  0.91050  0.86930  Biso   1.000  N
  N6       1.0000 0.03804  0.08950  0.36930  Biso   1.000  N
  N7       1.0000 0.53804  0.41050  0.36930  Biso   1.000  N
  N8       1.0000 0.46196  0.58950  0.86930  Biso   1.000  N
  N9       1.0000 0.16420  0.21280  0.48860  Biso   1.000  N
  N10      1.0000 0.83580  0.78720  0.98860  Biso   1.000  N
  N11      1.0000 0.33580  0.71280  0.98860  Biso   1.000  N
  N12      1.0000 0.66420  0.28720  0.48860  Biso   1.000  N
  N13      1.0000 0.23610  0.21300  0.52780  Biso   1.000  N
  N14      1.0000 0.76390  0.78700  0.02780  Biso   1.000  N
  N15      1.0000 0.26390  0.71300  0.02780  Biso   1.000  N
  N16      1.0000 0.73610  0.28700  0.52780  Biso   1.000  N
  N17      1.0000 0.15757  0.10750  0.79810  Biso   1.000  N
  N18      1.0000 0.84243  0.89250  0.29810  Biso   1.000  N
  N19      1.0000 0.34243  0.60750  0.29810  Biso   1.000  N
  N20      1.0000 0.65757  0.39250  0.79810  Biso   1.000  N
  N21      1.0000 0.23020  0.12290  0.79360  Biso   1.000  N
  N22      1.0000 0.76980  0.87710  0.29360  Biso   1.000  N
  N23      1.0000 0.26980  0.62290  0.29360  Biso   1.000  N
  N24      1.0000 0.73020  0.37710  0.79360  Biso   1.000  N
  N25      1.0000 0.20090  0.99000  0.49200  Biso   1.000  N
  N26      1.0000 0.79910  0.01000  0.99200  Biso   1.000  N
  N27      1.0000 0.29910  0.49000  0.99200  Biso   1.000  N
  N28      1.0000 0.70090  0.51000  0.49200  Biso   1.000  N
  N29      1.0000 0.26519  0.03460  0.53610  Biso   1.000  N
  N30      1.0000 0.73481  0.96540  0.03610  Biso   1.000  N
  N31      1.0000 0.23481  0.53460  0.03610  Biso   1.000  N
  N32      1.0000 0.76519  0.46540  0.53610  Biso   1.000  N
  C1       1.0000 0.98310  0.99890  0.79720  Biso   1.000  C
  C2       1.0000 0.01690  0.00110  0.29720  Biso   1.000  C
  C3       1.0000 0.51690  0.49890  0.29720  Biso   1.000  C
  C4       1.0000 0.48310  0.50110  0.79720  Biso   1.000  C
  C5       1.0000 0.00840  0.83730  0.80340  Biso   1.000  C
  C6       1.0000 0.99160  0.16270  0.30340  Biso   1.000  C
  C7       1.0000 0.49160  0.33730  0.30340  Biso   1.000  C
  C8       1.0000 0.50840  0.66270  0.80340  Biso   1.000  C
  C9       1.0000 0.05540  0.88470  0.69410  Biso   1.000  C
  C10      1.0000 0.94460  0.11530  0.19410  Biso   1.000  C
  C11      1.0000 0.44460  0.38470  0.19410  Biso   1.000  C
  C12      1.0000 0.55540  0.61530  0.69410  Biso   1.000  C
  C13      1.0000 0.15540  0.29730  0.39090  Biso   1.000  C
  C14      1.0000 0.84460  0.70270  0.89090  Biso   1.000  C
  C15      1.0000 0.34460  0.79730  0.89090  Biso   1.000  C
  C16      1.0000 0.65540  0.20270  0.39090  Biso   1.000  C
  C17      1.0000 0.22090  0.34760  0.36580  Biso   1.000  C
  C18      1.0000 0.77910  0.65240  0.86580  Biso   1.000  C
  C19      1.0000 0.27910  0.84760  0.86580  Biso   1.000  C
  C20      1.0000 0.72090  0.15240  0.36580  Biso   1.000  C
  C21      1.0000 0.27120  0.29300  0.45430  Biso   1.000  C
  C22      1.0000 0.72880  0.70700  0.95430  Biso   1.000  C
  C23      1.0000 0.22880  0.79300  0.95430  Biso   1.000  C
  C24      1.0000 0.77120  0.20700  0.45430  Biso   1.000  C
  C25      1.0000 0.14230  0.10050  0.96490  Biso   1.000  C
  C26      1.0000 0.85770  0.89950  0.46490  Biso   1.000  C
  C27      1.0000 0.35770  0.60050  0.46490  Biso   1.000  C
  C28      1.0000 0.64230  0.39950  0.96490  Biso   1.000  C
  C29      1.0000 0.20370  0.11210  0.06570  Biso   1.000  C
  C30      1.0000 0.79630  0.88790  0.56570  Biso   1.000  C
  C31      1.0000 0.29630  0.61210  0.56570  Biso   1.000  C
  C32      1.0000 0.70370  0.38790  0.06570  Biso   1.000  C
  C33      1.0000 0.25930  0.12630  0.95260  Biso   1.000  C
  C34      1.0000 0.74070  0.87370  0.45260  Biso   1.000  C
  C35      1.0000 0.24070  0.62630  0.45260  Biso   1.000  C
  C36      1.0000 0.75930  0.37370  0.95260  Biso   1.000  C
  C37      1.0000 0.22020  0.90880  0.39910  Biso   1.000  C
  C38      1.0000 0.77980  0.09120  0.89910  Biso   1.000  C
  C39      1.0000 0.27980  0.40880  0.89910  Biso   1.000  C
  C40      1.0000 0.72020  0.59120  0.39910  Biso   1.000  C
  C41      1.0000 0.29460  0.90150  0.38150  Biso   1.000  C
  C42      1.0000 0.70540  0.09850  0.88150  Biso   1.000  C
  C43      1.0000 0.20540  0.40150  0.88150  Biso   1.000  C
  C44      1.0000 0.79460  0.59850  0.38150  Biso   1.000  C
  C45      1.0000 0.32290  0.98260  0.47030  Biso   1.000  C
  C46      1.0000 0.67710  0.01740  0.97030  Biso   1.000  C
  C47      1.0000 0.17710  0.48260  0.97030  Biso   1.000  C
  C48      1.0000 0.82290  0.51740  0.47030  Biso   1.000  C
  C49      1.0000 0.26670  0.13090  0.62960  Biso   1.000  C
  C50      1.0000 0.73330  0.86910  0.12960  Biso   1.000  C
  C51      1.0000 0.23330  0.63090  0.12960  Biso   1.000  C
  C52      1.0000 0.76670  0.36910  0.62960  Biso   1.000  C
  C53      1.0000 0.98640  0.41210  0.84870  Biso   1.000  C
  C54      1.0000 0.01360  0.58790  0.34870  Biso   1.000  C
  C55      1.0000 0.51360  0.91210  0.34870  Biso   1.000  C
  C56      1.0000 0.48640  0.08790  0.84870  Biso   1.000  C
  H1       1.0000 0.96074  0.06166  0.81900  Biso   1.000  H
  H2       1.0000 0.03926  0.93834  0.31900  Biso   1.000  H
  H3       1.0000 0.53926  0.56166  0.31900  Biso   1.000  H
  H4       1.0000 0.46074  0.43834  0.81900  Biso   1.000  H
  H5       1.0000 0.00778  0.76746  0.82915  Biso   1.000  H
  H6       1.0000 0.99222  0.23254  0.32915  Biso   1.000  H
  H7       1.0000 0.49222  0.26746  0.32915  Biso   1.000  H
  H8       1.0000 0.50778  0.73254  0.82915  Biso   1.000  H
  H9       1.0000 0.09199  0.85236  0.63231  Biso   1.000  H
  H10      1.0000 0.90801  0.14764  0.13231  Biso   1.000  H
  H11      1.0000 0.40801  0.35236  0.13231  Biso   1.000  H
  H12      1.0000 0.59199  0.64764  0.63231  Biso   1.000  H
  H13      1.0000 0.11143  0.31928  0.34617  Biso   1.000  H
  H14      1.0000 0.88857  0.68072  0.84617  Biso   1.000  H
  H15      1.0000 0.38857  0.81928  0.84617  Biso   1.000  H
  H16      1.0000 0.61143  0.18072  0.34617  Biso   1.000  H
  H17      1.0000 0.22874  0.40681  0.30119  Biso   1.000  H
  H18      1.0000 0.77126  0.59319  0.80119  Biso   1.000  H
  H19      1.0000 0.27126  0.90681  0.80119  Biso   1.000  H
  H20      1.0000 0.72874  0.09319  0.30119  Biso   1.000  H
  H21      1.0000 0.32029  0.30774  0.46272  Biso   1.000  H
  H22      1.0000 0.67971  0.69226  0.96272  Biso   1.000  H
  H23      1.0000 0.17971  0.80774  0.96272  Biso   1.000  H
  H24      1.0000 0.82029  0.19226  0.46272  Biso   1.000  H
  H25      1.0000 0.09616  0.08926  0.00864  Biso   1.000  H
  H26      1.0000 0.90384  0.91074  0.50864  Biso   1.000  H
  H27      1.0000 0.40384  0.58926  0.50864  Biso   1.000  H
  H28      1.0000 0.59616  0.41074  0.00864  Biso   1.000  H
  H29      1.0000 0.20638  0.11046  0.18525  Biso   1.000  H
  H30      1.0000 0.79362  0.88954  0.68525  Biso   1.000  H
  H31      1.0000 0.29362  0.61046  0.68525  Biso   1.000  H
  H32      1.0000 0.70638  0.38954  0.18525  Biso   1.000  H
  H33      1.0000 0.30778  0.13635  0.97984  Biso   1.000  H
  H34      1.0000 0.69222  0.86365  0.47984  Biso   1.000  H
  H35      1.0000 0.19222  0.63635  0.47984  Biso   1.000  H
  H36      1.0000 0.80778  0.36365  0.97984  Biso   1.000  H
  H37      1.0000 0.18772  0.86224  0.35141  Biso   1.000  H
  H38      1.0000 0.81228  0.13776  0.85141  Biso   1.000  H
  H39      1.0000 0.31228  0.36224  0.85141  Biso   1.000  H
  H40      1.0000 0.68772  0.63776  0.35141  Biso   1.000  H
  H41      1.0000 0.32013  0.85139  0.32130  Biso   1.000  H
  H42      1.0000 0.67987  0.14861  0.82130  Biso   1.000  H
  H43      1.0000 0.17987  0.35139  0.82130  Biso   1.000  H
  H44      1.0000 0.82013  0.64861  0.32130  Biso   1.000  H
  H45      1.0000 0.37156  0.99911  0.48320  Biso   1.000  H
  H46      1.0000 0.62844  0.00089  0.98320  Biso   1.000  H
  H47      1.0000 0.12844  0.49911  0.98320  Biso   1.000  H
  H48      1.0000 0.87156  0.50089  0.48320  Biso   1.000  H
  H49      1.0000 0.31742  0.14808  0.65224  Biso   1.000  H
  H50      1.0000 0.68258  0.85192  0.15224  Biso   1.000  H
  H51      1.0000 0.18258  0.64808  0.15224  Biso   1.000  H
  H52      1.0000 0.81742  0.35192  0.65224  Biso   1.000  H
