data_image0
_cell_length_a       17.6702
_cell_length_b       13.2921
_cell_length_c       7.7653
_cell_angle_alpha    90
_cell_angle_beta     90
_cell_angle_gamma    90

_symmetry_space_group_name_H-M    "P 1"
_symmetry_int_tables_number       1

loop_
  _symmetry_equiv_pos_as_xyz
  'x, y, z'

loop_
  _atom_site_label
  _atom_site_occupancy
  _atom_site_fract_x
  _atom_site_fract_y
  _atom_site_fract_z
  _atom_site_thermal_displace_type
  _atom_site_B_iso_or_equiv
  _atom_site_type_symbol
  Cu1      1.0000 0.10932  0.07880  0.90000  Biso   1.000  Cu
  Cu2      1.0000 0.89068  0.92120  0.40000  Biso   1.000  Cu
  Cu3      1.0000 0.39068  0.57880  0.40000  Biso   1.000  Cu
  Cu4      1.0000 0.60932  0.42120  0.90000  Biso   1.000  Cu
  Cl1      1.0000 0.98495  0.31010  0.71240  Biso   1.000  Cl
  Cl2      1.0000 0.01505  0.68990  0.21240  Biso   1.000  Cl
  Cl3      1.0000 0.51505  0.81010  0.21240  Biso   1.000  Cl
  Cl4      1.0000 0.48495  0.18990  0.71240  Biso   1.000  Cl
  O1       1.0000 0.04530  0.24880  0.74760  Biso   1.000  O
  O2       1.0000 0.95470  0.75120  0.24760  Biso   1.000  O
  O3       1.0000 0.45470  0.74880  0.24760  Biso   1.000  O
  O4       1.0000 0.54530  0.25120  0.74760  Biso   1.000  O
  O5       1.0000 0.99440  0.36710  0.57100  Biso   1.000  O
  O6       1.0000 0.00560  0.63290  0.07100  Biso   1.000  O
  O7       1.0000 0.50560  0.86710  0.07100  Biso   1.000  O
  O8       1.0000 0.49440  0.13290  0.57100  Biso   1.000  O
  O9       1.0000 0.97640  0.38180  0.84100  Biso   1.000  O
  O10      1.0000 0.02360  0.61820  0.34100  Biso   1.000  O
  O11      1.0000 0.52360  0.88180  0.34100  Biso   1.000  O
  O12      1.0000 0.47640  0.11820  0.84100  Biso   1.000  O
  O13      1.0000 0.91800  0.25450  0.71220  Biso   1.000  O
  O14      1.0000 0.08200  0.74550  0.21220  Biso   1.000  O
  O15      1.0000 0.58200  0.75450  0.21220  Biso   1.000  O
  O16      1.0000 0.41800  0.24550  0.71220  Biso   1.000  O
  N1       1.0000 0.04440  0.97970  0.78270  Biso   1.000  N
  N2       1.0000 0.95560  0.02030  0.28270  Biso   1.000  N
  N3       1.0000 0.45560  0.47970  0.28270  Biso   1.000  N
  N4       1.0000 0.54440  0.52030  0.78270  Biso   1.000  N
  N5       1.0000 0.95850  0.91570  0.60060  Biso   1.000  N
  N6       1.0000 0.04150  0.08430  0.10060  Biso   1.000  N
  N7       1.0000 0.54150  0.41570  0.10060  Biso   1.000  N
  N8       1.0000 0.45850  0.58430  0.60060  Biso   1.000  N
  N9       1.0000 0.18040  0.18920  0.99350  Biso   1.000  N
  N10      1.0000 0.81960  0.81080  0.49350  Biso   1.000  N
  N11      1.0000 0.31960  0.68920  0.49350  Biso   1.000  N
  N12      1.0000 0.68040  0.31080  0.99350  Biso   1.000  N
  N13      1.0000 0.25620  0.18330  0.95610  Biso   1.000  N
  N14      1.0000 0.74380  0.81670  0.45610  Biso   1.000  N
  N15      1.0000 0.24380  0.68330  0.45610  Biso   1.000  N
  N16      1.0000 0.75620  0.31670  0.95610  Biso   1.000  N
  N17      1.0000 0.17400  0.08690  0.68240  Biso   1.000  N
  N18      1.0000 0.82600  0.91310  0.18240  Biso   1.000  N
  N19      1.0000 0.32600  0.58690  0.18240  Biso   1.000  N
  N20      1.0000 0.67400  0.41310  0.68240  Biso   1.000  N
  N21      1.0000 0.25110  0.09630  0.69310  Biso   1.000  N
  N22      1.0000 0.74890  0.90370  0.19310  Biso   1.000  N
  N23      1.0000 0.24890  0.59630  0.19310  Biso   1.000  N
  N24      1.0000 0.75110  0.40370  0.69310  Biso   1.000  N
  N25      1.0000 0.20940  0.97280  0.99450  Biso   1.000  N
  N26      1.0000 0.79060  0.02720  0.49450  Biso   1.000  N
  N27      1.0000 0.29060  0.47280  0.49450  Biso   1.000  N
  N28      1.0000 0.70940  0.52720  0.99450  Biso   1.000  N
  N29      1.0000 0.28030  0.00680  0.95070  Biso   1.000  N
  N30      1.0000 0.71970  0.99320  0.45070  Biso   1.000  N
  N31      1.0000 0.21970  0.50680  0.45070  Biso   1.000  N
  N32      1.0000 0.78030  0.49320  0.95070  Biso   1.000  N
  C1       1.0000 0.98570  0.99920  0.67920  Biso   1.000  C
  C2       1.0000 0.01430  0.00080  0.17920  Biso   1.000  C
  C3       1.0000 0.51430  0.49920  0.17920  Biso   1.000  C
  C4       1.0000 0.48570  0.50080  0.67920  Biso   1.000  C
  C5       1.0000 0.00350  0.84020  0.66020  Biso   1.000  C
  C6       1.0000 0.99650  0.15980  0.16020  Biso   1.000  C
  C7       1.0000 0.49650  0.34020  0.16020  Biso   1.000  C
  C8       1.0000 0.50350  0.65980  0.66020  Biso   1.000  C
  C9       1.0000 0.05470  0.87990  0.77030  Biso   1.000  C
  C10      1.0000 0.94530  0.12010  0.27030  Biso   1.000  C
  C11      1.0000 0.44530  0.37990  0.27030  Biso   1.000  C
  C12      1.0000 0.55470  0.62010  0.77030  Biso   1.000  C
  C13      1.0000 0.17150  0.27050  0.08930  Biso   1.000  C
  C14      1.0000 0.82850  0.72950  0.58930  Biso   1.000  C
  C15      1.0000 0.32850  0.77050  0.58930  Biso   1.000  C
  C16      1.0000 0.67150  0.22950  0.08930  Biso   1.000  C
  C17      1.0000 0.24210  0.31800  0.11480  Biso   1.000  C
  C18      1.0000 0.75790  0.68200  0.61480  Biso   1.000  C
  C19      1.0000 0.25790  0.81800  0.61480  Biso   1.000  C
  C20      1.0000 0.74210  0.18200  0.11480  Biso   1.000  C
  C21      1.0000 0.29510  0.26120  0.02990  Biso   1.000  C
  C22      1.0000 0.70490  0.73880  0.52990  Biso   1.000  C
  C23      1.0000 0.20490  0.76120  0.52990  Biso   1.000  C
  C24      1.0000 0.79510  0.23880  0.02990  Biso   1.000  C
  C25      1.0000 0.15820  0.08160  0.51570  Biso   1.000  C
  C26      1.0000 0.84180  0.91840  0.01570  Biso   1.000  C
  C27      1.0000 0.34180  0.58160  0.01570  Biso   1.000  C
  C28      1.0000 0.65820  0.41840  0.51570  Biso   1.000  C
  C29      1.0000 0.22720  0.08530  0.41990  Biso   1.000  C
  C30      1.0000 0.77280  0.91470  0.91990  Biso   1.000  C
  C31      1.0000 0.27280  0.58530  0.91990  Biso   1.000  C
  C32      1.0000 0.72720  0.41470  0.41990  Biso   1.000  C
  C33      1.0000 0.28430  0.09510  0.53570  Biso   1.000  C
  C34      1.0000 0.71570  0.90490  0.03570  Biso   1.000  C
  C35      1.0000 0.21570  0.59510  0.03570  Biso   1.000  C
  C36      1.0000 0.78430  0.40490  0.53570  Biso   1.000  C
  C37      1.0000 0.22310  0.88830  0.08050  Biso   1.000  C
  C38      1.0000 0.77690  0.11170  0.58050  Biso   1.000  C
  C39      1.0000 0.27690  0.38830  0.58050  Biso   1.000  C
  C40      1.0000 0.72310  0.61170  0.08050  Biso   1.000  C
  C41      1.0000 0.30260  0.87190  0.09380  Biso   1.000  C
  C42      1.0000 0.69740  0.12810  0.59380  Biso   1.000  C
  C43      1.0000 0.19740  0.37190  0.59380  Biso   1.000  C
  C44      1.0000 0.80260  0.62810  0.09380  Biso   1.000  C
  C45      1.0000 0.33750  0.94860  0.01140  Biso   1.000  C
  C46      1.0000 0.66250  0.05140  0.51140  Biso   1.000  C
  C47      1.0000 0.16250  0.44860  0.51140  Biso   1.000  C
  C48      1.0000 0.83750  0.55140  0.01140  Biso   1.000  C
  C49      1.0000 0.28740  0.10110  0.85960  Biso   1.000  C
  C50      1.0000 0.71260  0.89890  0.35960  Biso   1.000  C
  C51      1.0000 0.21260  0.60110  0.35960  Biso   1.000  C
  C52      1.0000 0.78740  0.39890  0.85960  Biso   1.000  C
  H1       1.0000 0.96569  0.06323  0.66285  Biso   1.000  H
  H2       1.0000 0.03431  0.93677  0.16285  Biso   1.000  H
  H3       1.0000 0.53431  0.56323  0.16285  Biso   1.000  H
  H4       1.0000 0.46569  0.43677  0.66285  Biso   1.000  H
  H5       1.0000 0.99974  0.77263  0.63009  Biso   1.000  H
  H6       1.0000 0.00026  0.22737  0.13009  Biso   1.000  H
  H7       1.0000 0.50026  0.27263  0.13009  Biso   1.000  H
  H8       1.0000 0.49974  0.72737  0.63009  Biso   1.000  H
  H9       1.0000 0.09152  0.84348  0.82890  Biso   1.000  H
  H10      1.0000 0.90848  0.15652  0.32890  Biso   1.000  H
  H11      1.0000 0.40848  0.34348  0.32890  Biso   1.000  H
  H12      1.0000 0.59152  0.65652  0.82890  Biso   1.000  H
  H13      1.0000 0.12559  0.29299  0.13332  Biso   1.000  H
  H14      1.0000 0.87441  0.70701  0.63332  Biso   1.000  H
  H15      1.0000 0.37441  0.79299  0.63332  Biso   1.000  H
  H16      1.0000 0.62559  0.20701  0.13332  Biso   1.000  H
  H17      1.0000 0.25090  0.37660  0.17719  Biso   1.000  H
  H18      1.0000 0.74910  0.62340  0.67719  Biso   1.000  H
  H19      1.0000 0.24910  0.87660  0.67719  Biso   1.000  H
  H20      1.0000 0.75090  0.12340  0.17719  Biso   1.000  H
  H21      1.0000 0.34691  0.27313  0.02366  Biso   1.000  H
  H22      1.0000 0.65309  0.72687  0.52366  Biso   1.000  H
  H23      1.0000 0.15309  0.77313  0.52366  Biso   1.000  H
  H24      1.0000 0.84691  0.22687  0.02366  Biso   1.000  H
  H25      1.0000 0.10994  0.07636  0.46869  Biso   1.000  H
  H26      1.0000 0.89006  0.92364  0.96869  Biso   1.000  H
  H27      1.0000 0.39006  0.57636  0.96869  Biso   1.000  H
  H28      1.0000 0.60994  0.42364  0.46869  Biso   1.000  H
  H29      1.0000 0.23210  0.08171  0.30080  Biso   1.000  H
  H30      1.0000 0.76790  0.91829  0.80080  Biso   1.000  H
  H31      1.0000 0.26790  0.58171  0.80080  Biso   1.000  H
  H32      1.0000 0.73210  0.41829  0.30080  Biso   1.000  H
  H33      1.0000 0.33574  0.10001  0.51197  Biso   1.000  H
  H34      1.0000 0.66426  0.89999  0.01197  Biso   1.000  H
  H35      1.0000 0.16426  0.60001  0.01197  Biso   1.000  H
  H36      1.0000 0.83574  0.39999  0.51197  Biso   1.000  H
  H37      1.0000 0.18614  0.84599  0.12564  Biso   1.000  H
  H38      1.0000 0.81386  0.15401  0.62564  Biso   1.000  H
  H39      1.0000 0.31386  0.34599  0.62564  Biso   1.000  H
  H40      1.0000 0.68614  0.65401  0.12564  Biso   1.000  H
  H41      1.0000 0.32620  0.81829  0.14892  Biso   1.000  H
  H42      1.0000 0.67380  0.18171  0.64892  Biso   1.000  H
  H43      1.0000 0.17380  0.31829  0.64892  Biso   1.000  H
  H44      1.0000 0.82620  0.68171  0.14892  Biso   1.000  H
  H45      1.0000 0.38922  0.95914  0.99918  Biso   1.000  H
  H46      1.0000 0.61078  0.04086  0.49918  Biso   1.000  H
  H47      1.0000 0.11078  0.45914  0.49918  Biso   1.000  H
  H48      1.0000 0.88922  0.54086  0.99918  Biso   1.000  H
  H49      1.0000 0.34136  0.11441  0.84145  Biso   1.000  H
  H50      1.0000 0.65864  0.88559  0.34145  Biso   1.000  H
  H51      1.0000 0.15864  0.61441  0.34145  Biso   1.000  H
  H52      1.0000 0.84136  0.38559  0.84145  Biso   1.000  H
