data_image0
_cell_length_a       10.4924
_cell_length_b       7.6145
_cell_length_c       22.468
_cell_angle_alpha    90
_cell_angle_beta     96.628
_cell_angle_gamma    90

_symmetry_space_group_name_H-M    "P 1"
_symmetry_int_tables_number       1

loop_
  _symmetry_equiv_pos_as_xyz
  'x, y, z'

loop_
  _atom_site_label
  _atom_site_occupancy
  _atom_site_fract_x
  _atom_site_fract_y
  _atom_site_fract_z
  _atom_site_thermal_displace_type
  _atom_site_B_iso_or_equiv
  _atom_site_type_symbol
  Cu1      1.0000 0.40010  0.00287  0.82769  Biso   1.000  Cu
  Cu2      1.0000 0.09990  0.50287  0.67231  Biso   1.000  Cu
  Cu3      1.0000 0.59990  0.99713  0.17231  Biso   1.000  Cu
  Cu4      1.0000 0.90010  0.49713  0.32769  Biso   1.000  Cu
  N1       1.0000 0.33970  0.87820  0.75330  Biso   1.000  N
  N2       1.0000 0.16030  0.37820  0.74670  Biso   1.000  N
  N3       1.0000 0.66030  0.12180  0.24670  Biso   1.000  N
  N4       1.0000 0.83970  0.62180  0.25330  Biso   1.000  N
  N5       1.0000 0.22360  0.69170  0.69190  Biso   1.000  N
  N6       1.0000 0.27640  0.19170  0.80810  Biso   1.000  N
  N7       1.0000 0.77640  0.30830  0.30810  Biso   1.000  N
  N8       1.0000 0.72360  0.80830  0.19190  Biso   1.000  N
  N9       1.0000 0.47030  0.11570  0.90730  Biso   1.000  N
  N10      1.0000 0.02970  0.61570  0.59270  Biso   1.000  N
  N11      1.0000 0.52970  0.88430  0.09270  Biso   1.000  N
  N12      1.0000 0.97030  0.38430  0.40730  Biso   1.000  N
  N13      1.0000 0.59630  0.09290  0.92890  Biso   1.000  N
  N14      1.0000 0.90370  0.59290  0.57110  Biso   1.000  N
  N15      1.0000 0.40370  0.90710  0.07110  Biso   1.000  N
  N16      1.0000 0.09630  0.40710  0.42890  Biso   1.000  N
  N17      1.0000 0.51550  0.79300  0.85370  Biso   1.000  N
  N18      1.0000 0.98450  0.29300  0.64630  Biso   1.000  N
  N19      1.0000 0.48450  0.20700  0.14630  Biso   1.000  N
  N20      1.0000 0.01550  0.70700  0.35370  Biso   1.000  N
  N21      1.0000 0.63430  0.81970  0.88420  Biso   1.000  N
  N22      1.0000 0.86570  0.31970  0.61580  Biso   1.000  N
  N23      1.0000 0.36570  0.18030  0.11580  Biso   1.000  N
  N24      1.0000 0.13430  0.68030  0.38420  Biso   1.000  N
  N25      1.0000 0.59560  0.11610  0.79830  Biso   1.000  N
  N26      1.0000 0.90440  0.61610  0.70170  Biso   1.000  N
  N27      1.0000 0.40440  0.88390  0.20170  Biso   1.000  N
  N28      1.0000 0.09560  0.38390  0.29830  Biso   1.000  N
  N29      1.0000 0.69860  0.08420  0.83970  Biso   1.000  N
  N30      1.0000 0.80140  0.58420  0.66030  Biso   1.000  N
  N31      1.0000 0.30140  0.91580  0.16030  Biso   1.000  N
  N32      1.0000 0.19860  0.41580  0.33970  Biso   1.000  N
  C1       1.0000 0.23410  0.77800  0.74390  Biso   1.000  C
  C2       1.0000 0.26590  0.27800  0.75610  Biso   1.000  C
  C3       1.0000 0.76590  0.22200  0.25610  Biso   1.000  C
  C4       1.0000 0.73410  0.72200  0.24390  Biso   1.000  C
  H1       1.0000 0.17400  0.76950  0.77110  Biso   1.000  H
  H2       1.0000 0.32600  0.26950  0.72890  Biso   1.000  H
  H3       1.0000 0.82600  0.23050  0.22890  Biso   1.000  H
  H4       1.0000 0.67400  0.73050  0.27110  Biso   1.000  H
  C5       1.0000 0.40180  0.85330  0.70320  Biso   1.000  C
  C6       1.0000 0.09820  0.35330  0.79680  Biso   1.000  C
  C7       1.0000 0.59820  0.14670  0.29680  Biso   1.000  C
  C8       1.0000 0.90180  0.64670  0.20320  Biso   1.000  C
  H5       1.0000 0.47830  0.90570  0.69560  Biso   1.000  H
  H6       1.0000 0.02170  0.40570  0.80440  Biso   1.000  H
  H7       1.0000 0.52170  0.09430  0.30440  Biso   1.000  H
  H8       1.0000 0.97830  0.59430  0.19560  Biso   1.000  H
  C9       1.0000 0.33030  0.73740  0.66650  Biso   1.000  C
  C10      1.0000 0.16970  0.23740  0.83350  Biso   1.000  C
  C11      1.0000 0.66970  0.26260  0.33350  Biso   1.000  C
  C12      1.0000 0.83030  0.76260  0.16650  Biso   1.000  C
  H9       1.0000 0.35150  0.69640  0.62990  Biso   1.000  H
  H10      1.0000 0.14850  0.19640  0.87010  Biso   1.000  H
  H11      1.0000 0.64850  0.30360  0.37010  Biso   1.000  H
  H12      1.0000 0.85150  0.80360  0.12990  Biso   1.000  H
  C13      1.0000 0.42300  0.21850  0.94750  Biso   1.000  C
  C14      1.0000 0.07700  0.71850  0.55250  Biso   1.000  C
  C15      1.0000 0.57700  0.78150  0.05250  Biso   1.000  C
  C16      1.0000 0.92300  0.28150  0.44750  Biso   1.000  C
  H13      1.0000 0.33840  0.25730  0.94460  Biso   1.000  H
  H14      1.0000 0.16160  0.75730  0.55540  Biso   1.000  H
  H15      1.0000 0.66160  0.74270  0.05540  Biso   1.000  H
  H16      1.0000 0.83840  0.24270  0.44460  Biso   1.000  H
  C17      1.0000 0.51760  0.26030  0.99450  Biso   1.000  C
  C18      1.0000 0.98240  0.76030  0.50550  Biso   1.000  C
  C19      1.0000 0.48240  0.73970  0.00550  Biso   1.000  C
  C20      1.0000 0.01760  0.23970  0.49450  Biso   1.000  C
  H17      1.0000 0.50800  0.32880  0.02800  Biso   1.000  H
  H18      1.0000 0.99200  0.82880  0.47200  Biso   1.000  H
  H19      1.0000 0.49200  0.67120  0.97200  Biso   1.000  H
  H20      1.0000 0.00800  0.17120  0.52800  Biso   1.000  H
  C21      1.0000 0.62690  0.17930  0.98110  Biso   1.000  C
  C22      1.0000 0.87310  0.67930  0.51890  Biso   1.000  C
  C23      1.0000 0.37310  0.82070  0.01890  Biso   1.000  C
  C24      1.0000 0.12690  0.32070  0.48110  Biso   1.000  C
  H21      1.0000 0.70700  0.18290  0.00360  Biso   1.000  H
  H22      1.0000 0.79300  0.68290  0.49640  Biso   1.000  H
  H23      1.0000 0.29300  0.81710  0.99640  Biso   1.000  H
  H24      1.0000 0.20700  0.31710  0.50360  Biso   1.000  H
  C25      1.0000 0.50400  0.61910  0.84660  Biso   1.000  C
  C26      1.0000 0.99600  0.11910  0.65340  Biso   1.000  C
  C27      1.0000 0.49600  0.38090  0.15340  Biso   1.000  C
  C28      1.0000 0.00400  0.88090  0.34660  Biso   1.000  C
  H25      1.0000 0.43170  0.56220  0.82790  Biso   1.000  H
  H26      1.0000 0.06830  0.06220  0.67210  Biso   1.000  H
  H27      1.0000 0.56830  0.43780  0.17210  Biso   1.000  H
  H28      1.0000 0.93170  0.93780  0.32790  Biso   1.000  H
  C29      1.0000 0.61700  0.53470  0.87150  Biso   1.000  C
  C30      1.0000 0.88300  0.03470  0.62850  Biso   1.000  C
  C31      1.0000 0.38300  0.46530  0.12850  Biso   1.000  C
  C32      1.0000 0.11700  0.96530  0.37150  Biso   1.000  C
  H29      1.0000 0.63360  0.41470  0.87190  Biso   1.000  H
  H30      1.0000 0.86640  0.91470  0.62810  Biso   1.000  H
  H31      1.0000 0.36640  0.58530  0.12810  Biso   1.000  H
  H32      1.0000 0.13360  0.08530  0.37190  Biso   1.000  H
  C33      1.0000 0.69720  0.66410  0.89490  Biso   1.000  C
  C34      1.0000 0.80280  0.16410  0.60510  Biso   1.000  C
  C35      1.0000 0.30280  0.33590  0.10510  Biso   1.000  C
  C36      1.0000 0.19720  0.83590  0.39490  Biso   1.000  C
  H33      1.0000 0.77950  0.64920  0.91450  Biso   1.000  H
  H34      1.0000 0.72050  0.14920  0.58550  Biso   1.000  H
  H35      1.0000 0.22050  0.35080  0.08550  Biso   1.000  H
  H36      1.0000 0.27950  0.85080  0.41450  Biso   1.000  H
  C37      1.0000 0.64590  0.19760  0.75320  Biso   1.000  C
  C38      1.0000 0.85410  0.69760  0.74680  Biso   1.000  C
  C39      1.0000 0.35410  0.80240  0.24680  Biso   1.000  C
  C40      1.0000 0.14590  0.30240  0.25320  Biso   1.000  C
  H37      1.0000 0.59850  0.23440  0.71790  Biso   1.000  H
  H38      1.0000 0.90150  0.73440  0.78210  Biso   1.000  H
  H39      1.0000 0.40150  0.76560  0.28210  Biso   1.000  H
  H40      1.0000 0.09850  0.26560  0.21790  Biso   1.000  H
  C41      1.0000 0.77800  0.21990  0.76610  Biso   1.000  C
  C42      1.0000 0.72200  0.71990  0.73390  Biso   1.000  C
  C43      1.0000 0.22200  0.78010  0.23390  Biso   1.000  C
  C44      1.0000 0.27800  0.28010  0.26610  Biso   1.000  C
  H41      1.0000 0.83300  0.27400  0.74210  Biso   1.000  H
  H42      1.0000 0.66700  0.77400  0.75790  Biso   1.000  H
  H43      1.0000 0.16700  0.72600  0.25790  Biso   1.000  H
  H44      1.0000 0.33300  0.22600  0.24210  Biso   1.000  H
  C45      1.0000 0.81040  0.14530  0.82170  Biso   1.000  C
  C46      1.0000 0.68960  0.64530  0.67830  Biso   1.000  C
  C47      1.0000 0.18960  0.85470  0.17830  Biso   1.000  C
  C48      1.0000 0.31040  0.35470  0.32170  Biso   1.000  C
  H45      1.0000 0.89190  0.13800  0.84280  Biso   1.000  H
  H46      1.0000 0.60810  0.63800  0.65720  Biso   1.000  H
  H47      1.0000 0.10810  0.86200  0.15720  Biso   1.000  H
  H48      1.0000 0.39190  0.36200  0.34280  Biso   1.000  H
  C49      1.0000 0.68230  0.99550  0.89530  Biso   1.000  C
  C50      1.0000 0.81770  0.49550  0.60470  Biso   1.000  C
  C51      1.0000 0.31770  0.00450  0.10470  Biso   1.000  C
  C52      1.0000 0.18230  0.50450  0.39530  Biso   1.000  C
  H49      1.0000 0.76620  0.98810  0.91940  Biso   1.000  H
  H50      1.0000 0.73380  0.48810  0.58060  Biso   1.000  H
  H51      1.0000 0.23380  0.01190  0.08060  Biso   1.000  H
  H52      1.0000 0.26620  0.51190  0.41940  Biso   1.000  H
  O1       1.0000 0.20660  0.83200  0.88510  Biso   1.000  O
  O2       1.0000 0.29340  0.33200  0.61490  Biso   1.000  O
  O3       1.0000 0.79340  0.16800  0.11490  Biso   1.000  O
  O4       1.0000 0.70660  0.66800  0.38510  Biso   1.000  O
  C53      1.0000 0.03930  0.68900  0.88130  Biso   1.000  C
  C54      1.0000 0.46070  0.18900  0.61870  Biso   1.000  C
  C55      1.0000 0.96070  0.31100  0.11870  Biso   1.000  C
  C56      1.0000 0.53930  0.81100  0.38130  Biso   1.000  C
  S1       1.0000 0.98780  0.95090  0.00430  Biso   1.000  S
  S2       1.0000 0.51220  0.45090  0.49570  Biso   1.000  S
  S3       1.0000 0.01220  0.04910  0.99570  Biso   1.000  S
  S4       1.0000 0.48780  0.54910  0.50430  Biso   1.000  S
  O5       1.0000 0.85540  0.94190  0.02060  Biso   1.000  O
  O6       1.0000 0.64460  0.44190  0.47940  Biso   1.000  O
  O7       1.0000 0.14460  0.05810  0.97940  Biso   1.000  O
  O8       1.0000 0.35540  0.55810  0.52060  Biso   1.000  O
  O9       1.0000 0.06270  0.79270  0.02350  Biso   1.000  O
  O10      1.0000 0.43730  0.29270  0.47650  Biso   1.000  O
  O11      1.0000 0.93730  0.20730  0.97650  Biso   1.000  O
  O12      1.0000 0.56270  0.70730  0.52350  Biso   1.000  O
  O13      1.0000 0.94270  0.90000  0.96070  Biso   1.000  O
  O14      1.0000 0.55730  0.40000  0.53930  Biso   1.000  O
  O15      1.0000 0.05730  0.10000  0.03930  Biso   1.000  O
  O16      1.0000 0.44270  0.60000  0.46070  Biso   1.000  O
  O17      1.0000 0.98060  0.97400  0.94110  Biso   1.000  O
  O18      1.0000 0.51940  0.47400  0.55890  Biso   1.000  O
  O19      1.0000 0.01940  0.02600  0.05890  Biso   1.000  O
  O20      1.0000 0.48060  0.52600  0.44110  Biso   1.000  O
