data_image0
_cell_length_a       10.7644
_cell_length_b       13.6003
_cell_length_c       13.4636
_cell_angle_alpha    101.25
_cell_angle_beta     96.643
_cell_angle_gamma    101.549

_symmetry_space_group_name_H-M    "P 1"
_symmetry_int_tables_number       1

loop_
  _symmetry_equiv_pos_as_xyz
  'x, y, z'

loop_
  _atom_site_label
  _atom_site_occupancy
  _atom_site_fract_x
  _atom_site_fract_y
  _atom_site_fract_z
  _atom_site_thermal_displace_type
  _atom_site_B_iso_or_equiv
  _atom_site_type_symbol
  Br1      1.0000 0.42047  0.65776  0.11011  Biso   1.000  Br
  Br2      1.0000 0.57953  0.34224  0.88989  Biso   1.000  Br
  Cu1      1.0000 0.93969  0.37927  0.96300  Biso   1.000  Cu
  Cu2      1.0000 0.06031  0.62073  0.03700  Biso   1.000  Cu
  Cu3      1.0000 0.10915  0.23165  0.92076  Biso   1.000  Cu
  Cu4      1.0000 0.89085  0.76835  0.07924  Biso   1.000  Cu
  Cu5      1.0000 0.66033  0.65958  0.15301  Biso   1.000  Cu
  Cu6      1.0000 0.33967  0.34042  0.84699  Biso   1.000  Cu
  Cu7      1.0000 0.75435  0.49833  0.02135  Biso   1.000  Cu
  Cu8      1.0000 0.24565  0.50167  0.97865  Biso   1.000  Cu
  O1       1.0000 0.65265  0.67618  0.29806  Biso   1.000  O
  O2       1.0000 0.34735  0.32382  0.70194  Biso   1.000  O
  O3       1.0000 0.67362  0.51387  0.14402  Biso   1.000  O
  O4       1.0000 0.32638  0.48613  0.85598  Biso   1.000  O
  O5       1.0000 0.84677  0.40410  0.07655  Biso   1.000  O
  O6       1.0000 0.15323  0.59590  0.92345  Biso   1.000  O
  O7       1.0000 0.98254  0.26063  0.00863  Biso   1.000  O
  O8       1.0000 0.01746  0.73937  0.99137  Biso   1.000  O
  O9       1.0000 0.15170  0.13253  0.99440  Biso   1.000  O
  O10      1.0000 0.84830  0.86747  0.00560  Biso   1.000  O
  O11      1.0000 0.29488  0.37293  0.98529  Biso   1.000  O
  O12      1.0000 0.70512  0.62707  0.01471  Biso   1.000  O
  O13      1.0000 0.04040  0.33395  0.86282  Biso   1.000  O
  O14      1.0000 0.95960  0.66605  0.13718  Biso   1.000  O
  O15      1.0000 0.11729  0.50251  0.06864  Biso   1.000  O
  O16      1.0000 0.88271  0.49749  0.93136  Biso   1.000  O
  O17      1.0000 0.21779  0.20823  0.82143  Biso   1.000  O
  O18      1.0000 0.78221  0.79177  0.17857  Biso   1.000  O
  C1       1.0000 0.26740  0.11870  0.80030  Biso   1.000  C
  C2       1.0000 0.73260  0.88130  0.19970  Biso   1.000  C
  H1       1.0000 0.19670  0.05740  0.78570  Biso   1.000  H
  H2       1.0000 0.80330  0.94260  0.21430  Biso   1.000  H
  H3       1.0000 0.31160  0.11930  0.74070  Biso   1.000  H
  H4       1.0000 0.68840  0.88070  0.25930  Biso   1.000  H
  H5       1.0000 0.32820  0.11750  0.85990  Biso   1.000  H
  H6       1.0000 0.67180  0.88250  0.14010  Biso   1.000  H
  Br3      1.0000 0.79090  0.84690  0.21420  Biso   1.000  Br
  Br4      1.0000 0.20910  0.15310  0.78580  Biso   1.000  Br
  C3       1.0000 0.66770  0.65249  0.46587  Biso   1.000  C
  C4       1.0000 0.33230  0.34751  0.53413  Biso   1.000  C
  C5       1.0000 0.69130  0.75853  0.50250  Biso   1.000  C
  C6       1.0000 0.30870  0.24147  0.49750  Biso   1.000  C
  H7       1.0000 0.70420  0.80280  0.45620  Biso   1.000  H
  H8       1.0000 0.29580  0.19720  0.54380  Biso   1.000  H
  C7       1.0000 0.69610  0.80040  0.60590  Biso   1.000  C
  C8       1.0000 0.30390  0.19960  0.39410  Biso   1.000  C
  H9       1.0000 0.71160  0.87290  0.63000  Biso   1.000  H
  H10      1.0000 0.28840  0.12710  0.37000  Biso   1.000  H
  C9       1.0000 0.67840  0.73620  0.67370  Biso   1.000  C
  C10      1.0000 0.32160  0.26380  0.32630  Biso   1.000  C
  H11      1.0000 0.68320  0.76470  0.74470  Biso   1.000  H
  H12      1.0000 0.31680  0.23530  0.25530  Biso   1.000  H
  C11      1.0000 0.65360  0.63070  0.63810  Biso   1.000  C
  C12      1.0000 0.34640  0.36930  0.36190  Biso   1.000  C
  H13      1.0000 0.64000  0.58660  0.68450  Biso   1.000  H
  H14      1.0000 0.36000  0.41340  0.31550  Biso   1.000  H
  C13      1.0000 0.64880  0.58896  0.53465  Biso   1.000  C
  C14      1.0000 0.35120  0.41104  0.46535  Biso   1.000  C
  H15      1.0000 0.63240  0.51640  0.51070  Biso   1.000  H
  H16      1.0000 0.36760  0.48360  0.48930  Biso   1.000  H
  C15      1.0000 0.66250  0.61236  0.35314  Biso   1.000  C
  C16      1.0000 0.33750  0.38764  0.64686  Biso   1.000  C
  C17      1.0000 0.67370  0.50976  0.31819  Biso   1.000  C
  C18      1.0000 0.32630  0.49024  0.68181  Biso   1.000  C
  H17      1.0000 0.67460  0.46780  0.36690  Biso   1.000  H
  H18      1.0000 0.32540  0.53220  0.63310  Biso   1.000  H
  C19      1.0000 0.68351  0.46598  0.21799  Biso   1.000  C
  C20      1.0000 0.31649  0.53402  0.78201  Biso   1.000  C
  C21      1.0000 0.70830  0.36160  0.19495  Biso   1.000  C
  C22      1.0000 0.29170  0.63840  0.80505  Biso   1.000  C
  C23      1.0000 0.64690  0.28767  0.24318  Biso   1.000  C
  C24      1.0000 0.35310  0.71233  0.75682  Biso   1.000  C
  H19      1.0000 0.58670  0.30500  0.28610  Biso   1.000  H
  H20      1.0000 0.41330  0.69500  0.71390  Biso   1.000  H
  C25      1.0000 0.67080  0.19016  0.23050  Biso   1.000  C
  C26      1.0000 0.32920  0.80984  0.76950  Biso   1.000  C
  C27      1.0000 0.76800  0.17072  0.17657  Biso   1.000  C
  C28      1.0000 0.23200  0.82928  0.82343  Biso   1.000  C
  H21      1.0000 0.79010  0.10590  0.17160  Biso   1.000  H
  H22      1.0000 0.20990  0.89410  0.82840  Biso   1.000  H
  C29      1.0000 0.83590  0.24286  0.12859  Biso   1.000  C
  C30      1.0000 0.16410  0.75714  0.87141  Biso   1.000  C
  C31      1.0000 0.79762  0.33670  0.12970  Biso   1.000  C
  C32      1.0000 0.20238  0.66330  0.87030  Biso   1.000  C
  C33      1.0000 0.59740  0.10990  0.27810  Biso   1.000  C
  C34      1.0000 0.40260  0.89010  0.72190  Biso   1.000  C
  H23      1.0000 0.63390  0.04890  0.26770  Biso   1.000  H
  H24      1.0000 0.36610  0.95110  0.73230  Biso   1.000  H
  H25      1.0000 0.60340  0.13790  0.35170  Biso   1.000  H
  H26      1.0000 0.39660  0.86210  0.64830  Biso   1.000  H
  H27      1.0000 0.50700  0.09080  0.24570  Biso   1.000  H
  H28      1.0000 0.49300  0.90920  0.75430  Biso   1.000  H
  C35      1.0000 0.94660  0.21731  0.08212  Biso   1.000  C
  C36      1.0000 0.05340  0.78269  0.91788  Biso   1.000  C
  C37      1.0000 0.01070  0.14879  0.11668  Biso   1.000  C
  C38      1.0000 0.98930  0.85121  0.88332  Biso   1.000  C
  H29      1.0000 0.98720  0.12650  0.17590  Biso   1.000  H
  H30      1.0000 0.01280  0.87350  0.82410  Biso   1.000  H
  C39      1.0000 0.10750  0.10909  0.07215  Biso   1.000  C
  C40      1.0000 0.89250  0.89091  0.92785  Biso   1.000  C
  C41      1.0000 0.16260  0.03095  0.11495  Biso   1.000  C
  C42      1.0000 0.83740  0.96905  0.88505  Biso   1.000  C
  C43      1.0000 0.26460  0.99780  0.07460  Biso   1.000  C
  C44      1.0000 0.73540  0.00220  0.92540  Biso   1.000  C
  H31      1.0000 0.30010  0.02750  0.02290  Biso   1.000  H
  H32      1.0000 0.69990  0.97250  0.97710  Biso   1.000  H
  C45      1.0000 0.31440  0.92250  0.10870  Biso   1.000  C
  C46      1.0000 0.68560  0.07750  0.89130  Biso   1.000  C
  H33      1.0000 0.38290  0.90010  0.07920  Biso   1.000  H
  H34      1.0000 0.61710  0.09990  0.92080  Biso   1.000  H
  C47      1.0000 0.26710  0.87900  0.18460  Biso   1.000  C
  C48      1.0000 0.73290  0.12100  0.81540  Biso   1.000  C
  H35      1.0000 0.30250  0.82740  0.20800  Biso   1.000  H
  H36      1.0000 0.69750  0.17260  0.79200  Biso   1.000  H
  C49      1.0000 0.16650  0.91190  0.22640  Biso   1.000  C
  C50      1.0000 0.83350  0.08810  0.77360  Biso   1.000  C
  H37      1.0000 0.13340  0.88330  0.27960  Biso   1.000  H
  H38      1.0000 0.86660  0.11670  0.72040  Biso   1.000  H
  C51      1.0000 0.11420  0.98580  0.19130  Biso   1.000  C
  C52      1.0000 0.88580  0.01420  0.80870  Biso   1.000  C
  H39      1.0000 0.04410  0.00630  0.21960  Biso   1.000  H
  H40      1.0000 0.95590  0.99370  0.78040  Biso   1.000  H
  C53      1.0000 0.37040  0.35840  0.07133  Biso   1.000  C
  C54      1.0000 0.62960  0.64160  0.92867  Biso   1.000  C
  H41      1.0000 0.31480  0.33660  0.11950  Biso   1.000  H
  H42      1.0000 0.68520  0.66340  0.88050  Biso   1.000  H
  H43      1.0000 0.43170  0.42320  0.10510  Biso   1.000  H
  H44      1.0000 0.56830  0.57680  0.89490  Biso   1.000  H
  H45      1.0000 0.41730  0.30530  0.04930  Biso   1.000  H
  H46      1.0000 0.58270  0.69470  0.95070  Biso   1.000  H
  C55      1.0000 0.02390  0.33586  0.75787  Biso   1.000  C
  C56      1.0000 0.97610  0.66414  0.24213  Biso   1.000  C
  H47      1.0000 0.06880  0.28780  0.72120  Biso   1.000  H
  H48      1.0000 0.93120  0.71220  0.27880  Biso   1.000  H
  H49      1.0000 0.93210  0.31550  0.72950  Biso   1.000  H
  H50      1.0000 0.06790  0.68450  0.27050  Biso   1.000  H
  H51      1.0000 0.05920  0.40560  0.75000  Biso   1.000  H
  H52      1.0000 0.94080  0.59440  0.25000  Biso   1.000  H
  C57      1.0000 0.14430  0.48377  0.16837  Biso   1.000  C
  C58      1.0000 0.85570  0.51623  0.83163  Biso   1.000  C
  H53      1.0000 0.21760  0.53710  0.20850  Biso   1.000  H
  H54      1.0000 0.78240  0.46290  0.79150  Biso   1.000  H
  H55      1.0000 0.16480  0.41610  0.16260  Biso   1.000  H
  H56      1.0000 0.83520  0.58390  0.83740  Biso   1.000  H
  H57      1.0000 0.06900  0.48530  0.20270  Biso   1.000  H
  H58      1.0000 0.93100  0.51470  0.79730  Biso   1.000  H
