data_image0
_cell_length_a       10.64
_cell_length_b       13.525
_cell_length_c       13.566
_cell_angle_alpha    101.278
_cell_angle_beta     101.665
_cell_angle_gamma    96.568

_symmetry_space_group_name_H-M    "P 1"
_symmetry_int_tables_number       1

loop_
  _symmetry_equiv_pos_as_xyz
  'x, y, z'

loop_
  _atom_site_label
  _atom_site_occupancy
  _atom_site_fract_x
  _atom_site_fract_y
  _atom_site_fract_z
  _atom_site_thermal_displace_type
  _atom_site_B_iso_or_equiv
  _atom_site_type_symbol
  Cu1      1.0000 0.35070  0.34962  0.34336  Biso   1.000  Cu
  Cu2      1.0000 0.64930  0.65038  0.65664  Biso   1.000  Cu
  Cu3      1.0000 0.88619  0.58037  0.76733  Biso   1.000  Cu
  Cu4      1.0000 0.11381  0.41963  0.23267  Biso   1.000  Cu
  Cu5      1.0000 0.74987  0.52091  0.49592  Biso   1.000  Cu
  Cu6      1.0000 0.25013  0.47909  0.50408  Biso   1.000  Cu
  Cu7      1.0000 0.05949  0.53687  0.62130  Biso   1.000  Cu
  Cu8      1.0000 0.94051  0.46313  0.37870  Biso   1.000  Cu
  Cl1      1.0000 0.57922  0.39625  0.34971  Biso   1.000  Cl
  Cl2      1.0000 0.42078  0.60375  0.65029  Biso   1.000  Cl
  O1       1.0000 0.36200  0.20530  0.32840  Biso   1.000  O
  O2       1.0000 0.63800  0.79470  0.67160  Biso   1.000  O
  O3       1.0000 0.33110  0.35640  0.48960  Biso   1.000  O
  O4       1.0000 0.66890  0.64360  0.51040  Biso   1.000  O
  O5       1.0000 0.15390  0.42390  0.59830  Biso   1.000  O
  O6       1.0000 0.84610  0.57610  0.40170  Biso   1.000  O
  O7       1.0000 0.01380  0.49170  0.73950  Biso   1.000  O
  O8       1.0000 0.98620  0.50830  0.26050  Biso   1.000  O
  O9       1.0000 0.84360  0.50970  0.86840  Biso   1.000  O
  O10      1.0000 0.15640  0.49030  0.13160  Biso   1.000  O
  O11      1.0000 0.30130  0.48570  0.37510  Biso   1.000  O
  O12      1.0000 0.69870  0.51430  0.62490  Biso   1.000  O
  O13      1.0000 0.22460  0.32040  0.21080  Biso   1.000  O
  O14      1.0000 0.77540  0.67960  0.78920  Biso   1.000  O
  O15      1.0000 0.95750  0.63670  0.66490  Biso   1.000  O
  O16      1.0000 0.04250  0.36330  0.33510  Biso   1.000  O
  O17      1.0000 0.87980  0.43120  0.49630  Biso   1.000  O
  O18      1.0000 0.12020  0.56880  0.50370  Biso   1.000  O
  C1       1.0000 0.33790  0.03660  0.34850  Biso   1.000  C
  C2       1.0000 0.66210  0.96340  0.65150  Biso   1.000  C
  C3       1.0000 0.31580  0.00170  0.24200  Biso   1.000  C
  C4       1.0000 0.68420  0.99830  0.75800  Biso   1.000  C
  H1       1.0000 0.30770  0.04730  0.19870  Biso   1.000  H
  H2       1.0000 0.69230  0.95270  0.80130  Biso   1.000  H
  C5       1.0000 0.30610  0.89840  0.20120  Biso   1.000  C
  C6       1.0000 0.69390  0.10160  0.79880  Biso   1.000  C
  H3       1.0000 0.28790  0.87500  0.12990  Biso   1.000  H
  H4       1.0000 0.71210  0.12500  0.87010  Biso   1.000  H
  C7       1.0000 0.32220  0.83050  0.26190  Biso   1.000  C
  C8       1.0000 0.67780  0.16950  0.73810  Biso   1.000  C
  H5       1.0000 0.31820  0.76170  0.23250  Biso   1.000  H
  H6       1.0000 0.68180  0.23830  0.76750  Biso   1.000  H
  C9       1.0000 0.34440  0.86340  0.36680  Biso   1.000  C
  C10      1.0000 0.65560  0.13660  0.63320  Biso   1.000  C
  H7       1.0000 0.35510  0.81720  0.40930  Biso   1.000  H
  H8       1.0000 0.64490  0.18280  0.59070  Biso   1.000  H
  C11      1.0000 0.35100  0.96630  0.40930  Biso   1.000  C
  C12      1.0000 0.64900  0.03370  0.59070  Biso   1.000  C
  H9       1.0000 0.36440  0.98830  0.48050  Biso   1.000  H
  H10      1.0000 0.63560  0.01170  0.51950  Biso   1.000  H
  C13      1.0000 0.34550  0.14900  0.39000  Biso   1.000  C
  C14      1.0000 0.65450  0.85100  0.61000  Biso   1.000  C
  C15      1.0000 0.32840  0.18290  0.49050  Biso   1.000  C
  C16      1.0000 0.67160  0.81710  0.50950  Biso   1.000  C
  H11      1.0000 0.32330  0.13450  0.53030  Biso   1.000  H
  H12      1.0000 0.67670  0.86550  0.46970  Biso   1.000  H
  C17      1.0000 0.31840  0.28180  0.53520  Biso   1.000  C
  C18      1.0000 0.68160  0.71820  0.46480  Biso   1.000  C
  C19      1.0000 0.28950  0.30350  0.64010  Biso   1.000  C
  C20      1.0000 0.71050  0.69650  0.35990  Biso   1.000  C
  C21      1.0000 0.34900  0.25410  0.71310  Biso   1.000  C
  C22      1.0000 0.65100  0.74590  0.28690  Biso   1.000  C
  H13      1.0000 0.40870  0.21250  0.69610  Biso   1.000  H
  H14      1.0000 0.59130  0.78750  0.30390  Biso   1.000  H
  C23      1.0000 0.32280  0.26450  0.81030  Biso   1.000  C
  C24      1.0000 0.67720  0.73550  0.18970  Biso   1.000  C
  C25      1.0000 0.22500  0.32000  0.82890  Biso   1.000  C
  C26      1.0000 0.77500  0.68000  0.17110  Biso   1.000  C
  H15      1.0000 0.20140  0.32420  0.89170  Biso   1.000  H
  H16      1.0000 0.79860  0.67580  0.10830  Biso   1.000  H
  C27      1.0000 0.16000  0.36970  0.75780  Biso   1.000  C
  C28      1.0000 0.84000  0.63030  0.24220  Biso   1.000  C
  C29      1.0000 0.20180  0.36920  0.66450  Biso   1.000  C
  C30      1.0000 0.79820  0.63080  0.33550  Biso   1.000  C
  C31      1.0000 0.39520  0.21380  0.89010  Biso   1.000  C
  C32      1.0000 0.60480  0.78620  0.10990  Biso   1.000  C
  H17      1.0000 0.38630  0.24570  0.95750  Biso   1.000  H
  H18      1.0000 0.61370  0.75430  0.04250  Biso   1.000  H
  H19      1.0000 0.48560  0.22120  0.88860  Biso   1.000  H
  H20      1.0000 0.51440  0.77880  0.11140  Biso   1.000  H
  H21      1.0000 0.35950  0.14260  0.87460  Biso   1.000  H
  H22      1.0000 0.64050  0.85740  0.12540  Biso   1.000  H
  C33      1.0000 0.04820  0.41780  0.78330  Biso   1.000  C
  C34      1.0000 0.95180  0.58220  0.21670  Biso   1.000  C
  C35      1.0000 0.98170  0.38460  0.85230  Biso   1.000  C
  C36      1.0000 0.01830  0.61540  0.14770  Biso   1.000  C
  H23      1.0000 0.00200  0.32580  0.87350  Biso   1.000  H
  H24      1.0000 0.99800  0.67420  0.12650  Biso   1.000  H
  C37      1.0000 0.88710  0.43170  0.89230  Biso   1.000  C
  C38      1.0000 0.11290  0.56830  0.10770  Biso   1.000  C
  C39      1.0000 0.82820  0.38990  0.97050  Biso   1.000  C
  C40      1.0000 0.17180  0.61010  0.02950  Biso   1.000  C
  C41      1.0000 0.87360  0.31510  0.01610  Biso   1.000  C
  C42      1.0000 0.12640  0.68490  0.98390  Biso   1.000  C
  H25      1.0000 0.94270  0.28640  0.99650  Biso   1.000  H
  H26      1.0000 0.05730  0.71360  0.00350  Biso   1.000  H
  C43      1.0000 0.81950  0.28080  0.09060  Biso   1.000  C
  C44      1.0000 0.18050  0.71920  0.90940  Biso   1.000  C
  H27      1.0000 0.85100  0.22910  0.11960  Biso   1.000  H
  H28      1.0000 0.14900  0.77090  0.88040  Biso   1.000  H
  C45      1.0000 0.71760  0.32470  0.12140  Biso   1.000  C
  C46      1.0000 0.28240  0.67530  0.87860  Biso   1.000  C
  H29      1.0000 0.68090  0.30330  0.17180  Biso   1.000  H
  H30      1.0000 0.31910  0.69670  0.82820  Biso   1.000  H
  C47      1.0000 0.67340  0.39780  0.07770  Biso   1.000  C
  C48      1.0000 0.32660  0.60220  0.92230  Biso   1.000  C
  H31      1.0000 0.60560  0.42710  0.09890  Biso   1.000  H
  H32      1.0000 0.39440  0.57290  0.90110  Biso   1.000  H
  C49      1.0000 0.72500  0.43210  0.00160  Biso   1.000  C
  C50      1.0000 0.27500  0.56790  0.99840  Biso   1.000  C
  H33      1.0000 0.69090  0.48250  0.97170  Biso   1.000  H
  H34      1.0000 0.30910  0.51750  0.02830  Biso   1.000  H
  C51      1.0000 0.97370  0.74140  0.66250  Biso   1.000  C
  C52      1.0000 0.02630  0.25860  0.33750  Biso   1.000  C
  H35      1.0000 0.06440  0.76960  0.68370  Biso   1.000  H
  H36      1.0000 0.93560  0.23040  0.31630  Biso   1.000  H
  H37      1.0000 0.92770  0.77700  0.70850  Biso   1.000  H
  H38      1.0000 0.07230  0.22300  0.29150  Biso   1.000  H
  H39      1.0000 0.93990  0.74850  0.59350  Biso   1.000  H
  H40      1.0000 0.06010  0.25150  0.40650  Biso   1.000  H
  C53      1.0000 0.27230  0.29660  0.12260  Biso   1.000  C
  C54      1.0000 0.72770  0.70340  0.87740  Biso   1.000  C
  H41      1.0000 0.20190  0.28350  0.06260  Biso   1.000  H
  H42      1.0000 0.79810  0.71650  0.93740  Biso   1.000  H
  H43      1.0000 0.33480  0.35290  0.12060  Biso   1.000  H
  H44      1.0000 0.66520  0.64710  0.87940  Biso   1.000  H
  H45      1.0000 0.31300  0.23690  0.12340  Biso   1.000  H
  H46      1.0000 0.68700  0.76310  0.87660  Biso   1.000  H
  C55      1.0000 0.37400  0.57420  0.35850  Biso   1.000  C
  C56      1.0000 0.62600  0.42580  0.64150  Biso   1.000  C
  H47      1.0000 0.43440  0.55360  0.31770  Biso   1.000  H
  H48      1.0000 0.56560  0.44640  0.68230  Biso   1.000  H
  H49      1.0000 0.31570  0.61170  0.32290  Biso   1.000  H
  H50      1.0000 0.68430  0.38830  0.67710  Biso   1.000  H
  H51      1.0000 0.42070  0.61680  0.42390  Biso   1.000  H
  H52      1.0000 0.57930  0.38320  0.57610  Biso   1.000  H
  C57      1.0000 0.85040  0.33130  0.51420  Biso   1.000  C
  C58      1.0000 0.14960  0.66870  0.48580  Biso   1.000  C
