data_image0
_cell_length_a       13.1111
_cell_length_b       17.437
_cell_length_c       17.271
_cell_angle_alpha    90
_cell_angle_beta     109.288
_cell_angle_gamma    90

_symmetry_space_group_name_H-M    "P 1"
_symmetry_int_tables_number       1

loop_
  _symmetry_equiv_pos_as_xyz
  'x, y, z'

loop_
  _atom_site_label
  _atom_site_occupancy
  _atom_site_fract_x
  _atom_site_fract_y
  _atom_site_fract_z
  _atom_site_thermal_displace_type
  _atom_site_B_iso_or_equiv
  _atom_site_type_symbol
  Cu1      1.0000 0.49979  0.40705  0.97845  Biso   1.000  Cu
  Cu2      1.0000 0.49979  0.09295  0.47845  Biso   1.000  Cu
  Cu3      1.0000 0.50021  0.59295  0.02155  Biso   1.000  Cu
  Cu4      1.0000 0.50021  0.90705  0.52155  Biso   1.000  Cu
  Cu5      1.0000 0.30167  0.46451  0.00597  Biso   1.000  Cu
  Cu6      1.0000 0.30167  0.03549  0.50597  Biso   1.000  Cu
  Cu7      1.0000 0.69833  0.53549  0.99403  Biso   1.000  Cu
  Cu8      1.0000 0.69833  0.96451  0.49403  Biso   1.000  Cu
  Cu9      1.0000 0.12726  0.51343  0.05803  Biso   1.000  Cu
  Cu10     1.0000 0.12726  0.98657  0.55803  Biso   1.000  Cu
  Cu11     1.0000 0.87274  0.48657  0.94197  Biso   1.000  Cu
  Cu12     1.0000 0.87274  0.01343  0.44197  Biso   1.000  Cu
  Cu13     1.0000 0.95538  0.55031  0.13115  Biso   1.000  Cu
  Cu14     1.0000 0.95538  0.94969  0.63115  Biso   1.000  Cu
  Cu15     1.0000 0.04462  0.44969  0.86885  Biso   1.000  Cu
  Cu16     1.0000 0.04462  0.05031  0.36885  Biso   1.000  Cu
  O1       1.0000 0.59060  0.32570  0.02290  Biso   1.000  O
  O2       1.0000 0.59060  0.17430  0.52290  Biso   1.000  O
  O3       1.0000 0.40940  0.67430  0.97710  Biso   1.000  O
  O4       1.0000 0.40940  0.82570  0.47710  Biso   1.000  O
  O5       1.0000 0.41920  0.39433  0.05417  Biso   1.000  O
  O6       1.0000 0.41920  0.10567  0.55417  Biso   1.000  O
  O7       1.0000 0.58080  0.60567  0.94583  Biso   1.000  O
  O8       1.0000 0.58080  0.89433  0.44583  Biso   1.000  O
  O9       1.0000 0.23300  0.43031  0.08428  Biso   1.000  O
  O10      1.0000 0.23300  0.06969  0.58428  Biso   1.000  O
  O11      1.0000 0.76700  0.56969  0.91572  Biso   1.000  O
  O12      1.0000 0.76700  0.93031  0.41572  Biso   1.000  O
  O13      1.0000 0.08760  0.49026  0.15346  Biso   1.000  O
  O14      1.0000 0.08760  0.00974  0.65346  Biso   1.000  O
  O15      1.0000 0.91240  0.50974  0.84654  Biso   1.000  O
  O16      1.0000 0.91240  0.99026  0.34654  Biso   1.000  O
  O17      1.0000 0.92450  0.50261  0.22075  Biso   1.000  O
  O18      1.0000 0.92450  0.99739  0.72075  Biso   1.000  O
  O19      1.0000 0.07550  0.49739  0.77925  Biso   1.000  O
  O20      1.0000 0.07550  0.00261  0.27925  Biso   1.000  O
  O21      1.0000 0.58990  0.43541  0.91012  Biso   1.000  O
  O22      1.0000 0.58990  0.06459  0.41012  Biso   1.000  O
  O23      1.0000 0.41010  0.56459  0.08988  Biso   1.000  O
  O24      1.0000 0.41010  0.93541  0.58988  Biso   1.000  O
  O25      1.0000 0.70930  0.39558  0.85790  Biso   1.000  O
  O26      1.0000 0.70930  0.10442  0.35790  Biso   1.000  O
  O27      1.0000 0.29070  0.60442  0.14210  Biso   1.000  O
  O28      1.0000 0.29070  0.89558  0.64210  Biso   1.000  O
  O29      1.0000 0.56340  0.33000  0.83890  Biso   1.000  O
  O30      1.0000 0.56340  0.17000  0.33890  Biso   1.000  O
  O31      1.0000 0.43660  0.67000  0.16110  Biso   1.000  O
  O32      1.0000 0.43660  0.83000  0.66110  Biso   1.000  O
  O33      1.0000 0.39260  0.48655  0.93837  Biso   1.000  O
  O34      1.0000 0.39260  0.01345  0.43837  Biso   1.000  O
  O35      1.0000 0.60740  0.51345  0.06163  Biso   1.000  O
  O36      1.0000 0.60740  0.98655  0.56163  Biso   1.000  O
  O37      1.0000 0.17370  0.52803  0.96420  Biso   1.000  O
  O38      1.0000 0.17370  0.97197  0.46420  Biso   1.000  O
  O39      1.0000 0.82630  0.47197  0.03580  Biso   1.000  O
  O40      1.0000 0.82630  0.02803  0.53580  Biso   1.000  O
  O41      1.0000 0.00500  0.58085  0.04142  Biso   1.000  O
  O42      1.0000 0.00500  0.91915  0.54142  Biso   1.000  O
  O43      1.0000 0.99500  0.41915  0.95858  Biso   1.000  O
  O44      1.0000 0.99500  0.08085  0.45858  Biso   1.000  O
  O45      1.0000 0.17590  0.38350  0.90320  Biso   1.000  O
  O46      1.0000 0.17590  0.11650  0.40320  Biso   1.000  O
  O47      1.0000 0.82410  0.61650  0.09680  Biso   1.000  O
  O48      1.0000 0.82410  0.88350  0.59680  Biso   1.000  O
  O49      1.0000 0.06750  0.30600  0.81710  Biso   1.000  O
  O50      1.0000 0.06750  0.19400  0.31710  Biso   1.000  O
  O51      1.0000 0.93250  0.69400  0.18290  Biso   1.000  O
  O52      1.0000 0.93250  0.80600  0.68290  Biso   1.000  O
  O53      1.0000 0.23780  0.27640  0.88520  Biso   1.000  O
  O54      1.0000 0.23780  0.22360  0.38520  Biso   1.000  O
  O55      1.0000 0.76220  0.72360  0.11480  Biso   1.000  O
  O56      1.0000 0.76220  0.77640  0.61480  Biso   1.000  O
  N1       1.0000 0.62150  0.38450  0.86760  Biso   1.000  N
  N2       1.0000 0.62150  0.11550  0.36760  Biso   1.000  N
  N3       1.0000 0.37850  0.61550  0.13240  Biso   1.000  N
  N4       1.0000 0.37850  0.88450  0.63240  Biso   1.000  N
  N5       1.0000 0.16070  0.32110  0.86660  Biso   1.000  N
  N6       1.0000 0.16070  0.17890  0.36660  Biso   1.000  N
  N7       1.0000 0.83930  0.67890  0.13340  Biso   1.000  N
  N8       1.0000 0.83930  0.82110  0.63340  Biso   1.000  N
  C1       1.0000 0.35080  0.50020  0.85200  Biso   1.000  C
  C2       1.0000 0.35080  0.99980  0.35200  Biso   1.000  C
  C3       1.0000 0.64920  0.49980  0.14800  Biso   1.000  C
  C4       1.0000 0.64920  0.00020  0.64800  Biso   1.000  C
  C5       1.0000 0.18300  0.60470  0.93690  Biso   1.000  C
  C6       1.0000 0.18300  0.89530  0.43690  Biso   1.000  C
  C7       1.0000 0.81700  0.39530  0.06310  Biso   1.000  C
  C8       1.0000 0.81700  0.10470  0.56310  Biso   1.000  C
  C9       1.0000 0.98880  0.65610  0.00740  Biso   1.000  C
  C10      1.0000 0.98880  0.84390  0.50740  Biso   1.000  C
  C11      1.0000 0.01120  0.34390  0.99260  Biso   1.000  C
  C12      1.0000 0.01120  0.15610  0.49260  Biso   1.000  C
  C13      1.0000 0.59190  0.28560  0.08230  Biso   1.000  C
  C14      1.0000 0.59190  0.21440  0.58230  Biso   1.000  C
  C15      1.0000 0.40810  0.71440  0.91770  Biso   1.000  C
  C16      1.0000 0.40810  0.78560  0.41770  Biso   1.000  C
  C17      1.0000 0.67380  0.22330  0.10580  Biso   1.000  C
  C18      1.0000 0.67380  0.27670  0.60580  Biso   1.000  C
  C19      1.0000 0.32620  0.77670  0.89420  Biso   1.000  C
  C20      1.0000 0.32620  0.72330  0.39420  Biso   1.000  C
  C21      1.0000 0.68700  0.17300  0.17060  Biso   1.000  C
  C22      1.0000 0.68700  0.32700  0.67060  Biso   1.000  C
  C23      1.0000 0.31300  0.82700  0.82940  Biso   1.000  C
  C24      1.0000 0.31300  0.67300  0.32940  Biso   1.000  C
  C25      1.0000 0.76910  0.11830  0.18980  Biso   1.000  C
  C26      1.0000 0.76910  0.38170  0.68980  Biso   1.000  C
  C27      1.0000 0.23090  0.88170  0.81020  Biso   1.000  C
  C28      1.0000 0.23090  0.61830  0.31020  Biso   1.000  C
  C29      1.0000 0.83190  0.11140  0.14260  Biso   1.000  C
  C30      1.0000 0.83190  0.38860  0.64260  Biso   1.000  C
  C31      1.0000 0.16810  0.88860  0.85740  Biso   1.000  C
  C32      1.0000 0.16810  0.61140  0.35740  Biso   1.000  C
  C33      1.0000 0.81950  0.15660  0.07830  Biso   1.000  C
  C34      1.0000 0.81950  0.34340  0.57830  Biso   1.000  C
  C35      1.0000 0.18050  0.84340  0.92170  Biso   1.000  C
  C36      1.0000 0.18050  0.65660  0.42170  Biso   1.000  C
  C37      1.0000 0.73740  0.21130  0.05690  Biso   1.000  C
  C38      1.0000 0.73740  0.28870  0.55690  Biso   1.000  C
  C39      1.0000 0.26260  0.78870  0.94310  Biso   1.000  C
  C40      1.0000 0.26260  0.71130  0.44310  Biso   1.000  C
  C41      1.0000 0.44460  0.35240  0.12040  Biso   1.000  C
  C42      1.0000 0.44460  0.14760  0.62040  Biso   1.000  C
  C43      1.0000 0.55540  0.64760  0.87960  Biso   1.000  C
  C44      1.0000 0.55540  0.85240  0.37960  Biso   1.000  C
  C45      1.0000 0.52200  0.29560  0.13460  Biso   1.000  C
  C46      1.0000 0.52200  0.20440  0.63460  Biso   1.000  C
  C47      1.0000 0.47800  0.70440  0.86540  Biso   1.000  C
  C48      1.0000 0.47800  0.79560  0.36540  Biso   1.000  C
  C49      1.0000 0.28420  0.40380  0.16020  Biso   1.000  C
  C50      1.0000 0.28420  0.09620  0.66020  Biso   1.000  C
  C51      1.0000 0.71580  0.59620  0.83980  Biso   1.000  C
  C52      1.0000 0.71580  0.90380  0.33980  Biso   1.000  C
  C53      1.0000 0.38810  0.36830  0.18120  Biso   1.000  C
  C54      1.0000 0.38810  0.13170  0.68120  Biso   1.000  C
  C55      1.0000 0.61190  0.63170  0.81880  Biso   1.000  C
  C56      1.0000 0.61190  0.86830  0.31880  Biso   1.000  C
  C57      1.0000 0.23390  0.40580  0.22110  Biso   1.000  C
  C58      1.0000 0.23390  0.09420  0.72110  Biso   1.000  C
  C59      1.0000 0.76610  0.59420  0.77890  Biso   1.000  C
  C60      1.0000 0.76610  0.90580  0.27890  Biso   1.000  C
  C61      1.0000 0.44150  0.34680  0.26260  Biso   1.000  C
  C62      1.0000 0.44150  0.15320  0.76260  Biso   1.000  C
  C63      1.0000 0.55850  0.65320  0.73740  Biso   1.000  C
  C64      1.0000 0.55850  0.84680  0.23740  Biso   1.000  C
  C65      1.0000 0.29220  0.38210  0.30130  Biso   1.000  C
  C66      1.0000 0.29220  0.11790  0.80130  Biso   1.000  C
  C67      1.0000 0.70780  0.61790  0.69870  Biso   1.000  C
  C68      1.0000 0.70780  0.88210  0.19870  Biso   1.000  C
  C69      1.0000 0.39720  0.35510  0.32390  Biso   1.000  C
  C70      1.0000 0.39720  0.14490  0.82390  Biso   1.000  C
  C71      1.0000 0.60280  0.64490  0.67610  Biso   1.000  C
  C72      1.0000 0.60280  0.85510  0.17610  Biso   1.000  C
  C73      1.0000 0.45940  0.33610  0.41190  Biso   1.000  C
  C74      1.0000 0.45940  0.16390  0.91190  Biso   1.000  C
  C75      1.0000 0.54060  0.66390  0.58810  Biso   1.000  C
  C76      1.0000 0.54060  0.83610  0.08810  Biso   1.000  C
  C77      1.0000 0.12280  0.43430  0.20720  Biso   1.000  C
  C78      1.0000 0.12280  0.06570  0.70720  Biso   1.000  C
  C79      1.0000 0.87720  0.56570  0.79280  Biso   1.000  C
  C80      1.0000 0.87720  0.93430  0.29280  Biso   1.000  C
  C81      1.0000 0.06030  0.40560  0.25020  Biso   1.000  C
  C82      1.0000 0.06030  0.09440  0.75020  Biso   1.000  C
  C83      1.0000 0.93970  0.59440  0.74980  Biso   1.000  C
  C84      1.0000 0.93970  0.90560  0.24980  Biso   1.000  C
  C85      1.0000 0.96190  0.43880  0.25220  Biso   1.000  C
  C86      1.0000 0.96190  0.06120  0.75220  Biso   1.000  C
  C87      1.0000 0.03810  0.56120  0.74780  Biso   1.000  C
  C88      1.0000 0.03810  0.93880  0.24780  Biso   1.000  C
  C89      1.0000 0.89630  0.39690  0.29400  Biso   1.000  C
  C90      1.0000 0.89630  0.10310  0.79400  Biso   1.000  C
  C91      1.0000 0.10370  0.60310  0.70600  Biso   1.000  C
  C92      1.0000 0.10370  0.89690  0.20600  Biso   1.000  C
  C93      1.0000 0.83340  0.43790  0.33050  Biso   1.000  C
  C94      1.0000 0.83340  0.06210  0.83050  Biso   1.000  C
  C95      1.0000 0.16660  0.56210  0.66950  Biso   1.000  C
  C96      1.0000 0.16660  0.93790  0.16950  Biso   1.000  C
  C97      1.0000 0.76530  0.39730  0.36300  Biso   1.000  C
  C98      1.0000 0.76530  0.10270  0.86300  Biso   1.000  C
  C99      1.0000 0.23470  0.60270  0.63700  Biso   1.000  C
  C100     1.0000 0.23470  0.89730  0.13700  Biso   1.000  C
  C101     1.0000 0.76040  0.32020  0.36020  Biso   1.000  C
  C102     1.0000 0.76040  0.17980  0.86020  Biso   1.000  C
  C103     1.0000 0.23960  0.67980  0.63980  Biso   1.000  C
  C104     1.0000 0.23960  0.82020  0.13980  Biso   1.000  C
  C105     1.0000 0.82130  0.27910  0.32470  Biso   1.000  C
  C106     1.0000 0.82130  0.22090  0.82470  Biso   1.000  C
  C107     1.0000 0.17870  0.72090  0.67530  Biso   1.000  C
  C108     1.0000 0.17870  0.77910  0.17530  Biso   1.000  C
  C109     1.0000 0.89080  0.31800  0.29160  Biso   1.000  C
  C110     1.0000 0.89080  0.18200  0.79160  Biso   1.000  C
  C111     1.0000 0.10920  0.68200  0.70840  Biso   1.000  C
  C112     1.0000 0.10920  0.81800  0.20840  Biso   1.000  C
  N9       1.0000 0.87770  0.67860  0.17380  Biso   1.000  N
  N10      1.0000 0.87770  0.82140  0.67380  Biso   1.000  N
  N11      1.0000 0.12230  0.32140  0.82620  Biso   1.000  N
  N12      1.0000 0.12230  0.17860  0.32620  Biso   1.000  N
  C113     1.0000 0.57410  0.27000  0.08920  Biso   1.000  C
  C114     1.0000 0.57410  0.23000  0.58920  Biso   1.000  C
  C115     1.0000 0.42590  0.73000  0.91080  Biso   1.000  C
  C116     1.0000 0.42590  0.77000  0.41080  Biso   1.000  C
  C117     1.0000 0.64230  0.19850  0.10550  Biso   1.000  C
  C118     1.0000 0.64230  0.30150  0.60550  Biso   1.000  C
  C119     1.0000 0.35770  0.80150  0.89450  Biso   1.000  C
  C120     1.0000 0.35770  0.69850  0.39450  Biso   1.000  C
  C121     1.0000 0.61570  0.13790  0.14400  Biso   1.000  C
  C122     1.0000 0.61570  0.36210  0.64400  Biso   1.000  C
  C123     1.0000 0.38430  0.86210  0.85600  Biso   1.000  C
  C124     1.0000 0.38430  0.63790  0.35600  Biso   1.000  C
  C125     1.0000 0.68200  0.07310  0.16100  Biso   1.000  C
  C126     1.0000 0.68200  0.42690  0.66100  Biso   1.000  C
  C127     1.0000 0.31800  0.92690  0.83900  Biso   1.000  C
  C128     1.0000 0.31800  0.57310  0.33900  Biso   1.000  C
  C129     1.0000 0.77060  0.07130  0.13600  Biso   1.000  C
  C130     1.0000 0.77060  0.42870  0.63600  Biso   1.000  C
  C131     1.0000 0.22940  0.92870  0.86400  Biso   1.000  C
  C132     1.0000 0.22940  0.57130  0.36400  Biso   1.000  C
  C133     1.0000 0.79090  0.12630  0.08940  Biso   1.000  C
  C134     1.0000 0.79090  0.37370  0.58940  Biso   1.000  C
  C135     1.0000 0.20910  0.87370  0.91060  Biso   1.000  C
  C136     1.0000 0.20910  0.62630  0.41060  Biso   1.000  C
  C137     1.0000 0.73010  0.19250  0.08250  Biso   1.000  C
  C138     1.0000 0.73010  0.30750  0.58250  Biso   1.000  C
  C139     1.0000 0.26990  0.80750  0.91750  Biso   1.000  C
  C140     1.0000 0.26990  0.69250  0.41750  Biso   1.000  C
  O57      1.0000 0.57930  0.30870  0.02490  Biso   1.000  O
  O58      1.0000 0.57930  0.19130  0.52490  Biso   1.000  O
  O59      1.0000 0.42070  0.69130  0.97510  Biso   1.000  O
  O60      1.0000 0.42070  0.80870  0.47510  Biso   1.000  O
  O61      1.0000 0.83860  0.62000  0.12180  Biso   1.000  O
  O62      1.0000 0.83860  0.88000  0.62180  Biso   1.000  O
  O63      1.0000 0.16140  0.38000  0.87820  Biso   1.000  O
  O64      1.0000 0.16140  0.12000  0.37820  Biso   1.000  O
  O65      1.0000 0.97260  0.66790  0.21960  Biso   1.000  O
  O66      1.0000 0.97260  0.83210  0.71960  Biso   1.000  O
  O67      1.0000 0.02740  0.33210  0.78040  Biso   1.000  O
  O68      1.0000 0.02740  0.16790  0.28040  Biso   1.000  O
  O69      1.0000 0.38170  0.32410  0.87570  Biso   1.000  O
  O70      1.0000 0.38170  0.17590  0.37570  Biso   1.000  O
  O71      1.0000 0.61830  0.67590  0.12430  Biso   1.000  O
  O72      1.0000 0.61830  0.82410  0.62430  Biso   1.000  O
  O73      1.0000 0.81970  0.73160  0.16720  Biso   1.000  O
  O74      1.0000 0.81970  0.76840  0.66720  Biso   1.000  O
  O75      1.0000 0.18030  0.26840  0.83280  Biso   1.000  O
  O76      1.0000 0.18030  0.23160  0.33280  Biso   1.000  O
  H1       1.0000 0.05150  0.68820  0.03560  Biso   1.000  H
  H2       1.0000 0.05150  0.81180  0.53560  Biso   1.000  H
  H3       1.0000 0.94850  0.31180  0.96440  Biso   1.000  H
  H4       1.0000 0.94850  0.18820  0.46440  Biso   1.000  H
  H5       1.0000 0.92380  0.67850  0.01430  Biso   1.000  H
  H6       1.0000 0.92380  0.82150  0.51430  Biso   1.000  H
  H7       1.0000 0.07620  0.32150  0.98570  Biso   1.000  H
  H8       1.0000 0.07620  0.17850  0.48570  Biso   1.000  H
  H9       1.0000 0.11130  0.62370  0.90440  Biso   1.000  H
  H10      1.0000 0.11130  0.87630  0.40440  Biso   1.000  H
  H11      1.0000 0.88870  0.37630  0.09560  Biso   1.000  H
  H12      1.0000 0.88870  0.12370  0.59560  Biso   1.000  H
  H13      1.0000 0.72480  0.24050  0.00820  Biso   1.000  H
  H14      1.0000 0.72480  0.25950  0.50820  Biso   1.000  H
  H15      1.0000 0.27520  0.75950  0.99180  Biso   1.000  H
  H16      1.0000 0.27520  0.74050  0.49180  Biso   1.000  H
  H17      1.0000 0.53110  0.26160  0.17930  Biso   1.000  H
  H18      1.0000 0.53110  0.23840  0.67930  Biso   1.000  H
  H19      1.0000 0.46890  0.73840  0.82070  Biso   1.000  H
  H20      1.0000 0.46890  0.76160  0.32070  Biso   1.000  H
  H21      1.0000 0.51190  0.32540  0.27610  Biso   1.000  H
  H22      1.0000 0.51190  0.17460  0.77610  Biso   1.000  H
  H23      1.0000 0.48810  0.67460  0.72390  Biso   1.000  H
  H24      1.0000 0.48810  0.82540  0.22390  Biso   1.000  H
  H25      1.0000 0.25790  0.38470  0.34180  Biso   1.000  H
  H26      1.0000 0.25790  0.11530  0.84180  Biso   1.000  H
  H27      1.0000 0.74210  0.61530  0.65820  Biso   1.000  H
  H28      1.0000 0.74210  0.88470  0.15820  Biso   1.000  H
  H29      1.0000 0.08430  0.36000  0.28100  Biso   1.000  H
  H30      1.0000 0.08430  0.14000  0.78100  Biso   1.000  H
  H31      1.0000 0.91570  0.64000  0.71900  Biso   1.000  H
  H32      1.0000 0.91570  0.86000  0.21900  Biso   1.000  H
  H33      1.0000 0.83680  0.49230  0.33330  Biso   1.000  H
  H34      1.0000 0.83680  0.00770  0.83330  Biso   1.000  H
  H35      1.0000 0.16320  0.50770  0.66670  Biso   1.000  H
  H36      1.0000 0.16320  0.99230  0.16670  Biso   1.000  H
  H37      1.0000 0.72140  0.42460  0.38760  Biso   1.000  H
  H38      1.0000 0.72140  0.07540  0.88760  Biso   1.000  H
  H39      1.0000 0.27860  0.57540  0.61240  Biso   1.000  H
  H40      1.0000 0.27860  0.92460  0.11240  Biso   1.000  H
  H41      1.0000 0.71370  0.29410  0.38330  Biso   1.000  H
  H42      1.0000 0.71370  0.20590  0.88330  Biso   1.000  H
  H43      1.0000 0.28630  0.70590  0.61670  Biso   1.000  H
  H44      1.0000 0.28630  0.79410  0.11670  Biso   1.000  H
  H45      1.0000 0.81670  0.22470  0.32240  Biso   1.000  H
  H46      1.0000 0.81670  0.27530  0.82240  Biso   1.000  H
  H47      1.0000 0.18330  0.77530  0.67760  Biso   1.000  H
  H48      1.0000 0.18330  0.72470  0.17760  Biso   1.000  H
  H49      1.0000 0.93440  0.28980  0.26740  Biso   1.000  H
  H50      1.0000 0.93440  0.21020  0.76740  Biso   1.000  H
  H51      1.0000 0.06560  0.71020  0.73260  Biso   1.000  H
  H52      1.0000 0.06560  0.78980  0.23260  Biso   1.000  H
  H53      1.0000 0.98000  0.65350  0.94880  Biso   1.000  H
  H54      1.0000 0.98000  0.84650  0.44880  Biso   1.000  H
  H55      1.0000 0.02000  0.34650  0.05120  Biso   1.000  H
  H56      1.0000 0.02000  0.15350  0.55120  Biso   1.000  H
  H57      1.0000 0.63980  0.17590  0.20210  Biso   1.000  H
  H58      1.0000 0.63980  0.32410  0.70210  Biso   1.000  H
  H59      1.0000 0.36020  0.82410  0.79790  Biso   1.000  H
  H60      1.0000 0.36020  0.67590  0.29790  Biso   1.000  H
  H61      1.0000 0.78050  0.08600  0.23620  Biso   1.000  H
  H62      1.0000 0.78050  0.41400  0.73620  Biso   1.000  H
  H63      1.0000 0.21950  0.91400  0.76380  Biso   1.000  H
  H64      1.0000 0.21950  0.58600  0.26380  Biso   1.000  H
  H65      1.0000 0.88660  0.07320  0.15550  Biso   1.000  H
  H66      1.0000 0.88660  0.42680  0.65550  Biso   1.000  H
  H67      1.0000 0.11340  0.92680  0.84450  Biso   1.000  H
  H68      1.0000 0.11340  0.57320  0.34450  Biso   1.000  H
  H69      1.0000 0.86660  0.15180  0.04700  Biso   1.000  H
  H70      1.0000 0.86660  0.34820  0.54700  Biso   1.000  H
  H71      1.0000 0.13340  0.84820  0.95300  Biso   1.000  H
  H72      1.0000 0.13340  0.65180  0.45300  Biso   1.000  H
  H73      1.0000 0.40930  0.31840  0.43940  Biso   1.000  H
  H74      1.0000 0.40930  0.18160  0.93940  Biso   1.000  H
  H75      1.0000 0.59070  0.68160  0.56060  Biso   1.000  H
  H76      1.0000 0.59070  0.81840  0.06060  Biso   1.000  H
  H77      1.0000 0.49730  0.38200  0.43970  Biso   1.000  H
  H78      1.0000 0.49730  0.11800  0.93970  Biso   1.000  H
  H79      1.0000 0.50270  0.61800  0.56030  Biso   1.000  H
  H80      1.0000 0.50270  0.88200  0.06030  Biso   1.000  H
  H81      1.0000 0.51210  0.29570  0.41380  Biso   1.000  H
  H82      1.0000 0.51210  0.20430  0.91380  Biso   1.000  H
  H83      1.0000 0.48790  0.70430  0.58620  Biso   1.000  H
  H84      1.0000 0.48790  0.79570  0.08620  Biso   1.000  H
  H85      1.0000 0.40850  0.49320  0.82820  Biso   1.000  H
  H86      1.0000 0.40850  0.00680  0.32820  Biso   1.000  H
  H87      1.0000 0.59150  0.50680  0.17180  Biso   1.000  H
  H88      1.0000 0.59150  0.99320  0.67180  Biso   1.000  H
  H89      1.0000 0.32330  0.55280  0.84190  Biso   1.000  H
  H90      1.0000 0.32330  0.94720  0.34190  Biso   1.000  H
  H91      1.0000 0.67670  0.44720  0.15810  Biso   1.000  H
  H92      1.0000 0.67670  0.05280  0.65810  Biso   1.000  H
  H93      1.0000 0.29210  0.46410  0.82660  Biso   1.000  H
  H94      1.0000 0.29210  0.03590  0.32660  Biso   1.000  H
  H95      1.0000 0.70790  0.53590  0.17340  Biso   1.000  H
  H96      1.0000 0.70790  0.96410  0.67340  Biso   1.000  H
  H97      1.0000 0.21410  0.63800  0.98450  Biso   1.000  H
  H98      1.0000 0.21410  0.86200  0.48450  Biso   1.000  H
  H99      1.0000 0.78590  0.36200  0.01550  Biso   1.000  H
  H100     1.0000 0.78590  0.13800  0.51550  Biso   1.000  H
  H101     1.0000 0.23000  0.60460  0.90300  Biso   1.000  H
  H102     1.0000 0.23000  0.89540  0.40300  Biso   1.000  H
  H103     1.0000 0.77000  0.39540  0.09700  Biso   1.000  H
  H104     1.0000 0.77000  0.10460  0.59700  Biso   1.000  H
  H105     1.0000 0.43430  0.31090  0.86330  Biso   1.000  H
  H106     1.0000 0.43430  0.18910  0.36330  Biso   1.000  H
  H107     1.0000 0.56570  0.68910  0.13670  Biso   1.000  H
  H108     1.0000 0.56570  0.81090  0.63670  Biso   1.000  H
  H109     1.0000 0.32910  0.31050  0.83710  Biso   1.000  H
  H110     1.0000 0.32910  0.18950  0.33710  Biso   1.000  H
  H111     1.0000 0.67090  0.68950  0.16290  Biso   1.000  H
  H112     1.0000 0.67090  0.81050  0.66290  Biso   1.000  H
  H113     1.0000 0.55250  0.13950  0.15940  Biso   1.000  H
  H114     1.0000 0.55250  0.36050  0.65940  Biso   1.000  H
  H115     1.0000 0.44750  0.86050  0.84060  Biso   1.000  H
  H116     1.0000 0.44750  0.63950  0.34060  Biso   1.000  H
  H117     1.0000 0.66580  0.03080  0.18960  Biso   1.000  H
  H118     1.0000 0.66580  0.46920  0.68960  Biso   1.000  H
  H119     1.0000 0.33420  0.96920  0.81040  Biso   1.000  H
  H120     1.0000 0.33420  0.53080  0.31040  Biso   1.000  H
  H121     1.0000 0.81940  0.02950  0.15230  Biso   1.000  H
  H122     1.0000 0.81940  0.47050  0.65230  Biso   1.000  H
  H123     1.0000 0.18060  0.97050  0.84770  Biso   1.000  H
  H124     1.0000 0.18060  0.52950  0.34770  Biso   1.000  H
  H125     1.0000 0.84330  0.12050  0.06280  Biso   1.000  H
  H126     1.0000 0.84330  0.37950  0.56280  Biso   1.000  H
  H127     1.0000 0.15670  0.87950  0.93720  Biso   1.000  H
  H128     1.0000 0.15670  0.62050  0.43720  Biso   1.000  H
  H129     1.0000 0.75210  0.23670  0.06000  Biso   1.000  H
  H130     1.0000 0.75210  0.26330  0.56000  Biso   1.000  H
  H131     1.0000 0.24790  0.76330  0.94000  Biso   1.000  H
  H132     1.0000 0.24790  0.73670  0.44000  Biso   1.000  H
