data_image0
_cell_length_a       7.6511
_cell_length_b       10.6581
_cell_length_c       15.0566
_cell_angle_alpha    90
_cell_angle_beta     93.076
_cell_angle_gamma    90

_symmetry_space_group_name_H-M    "P 1"
_symmetry_int_tables_number       1

loop_
  _symmetry_equiv_pos_as_xyz
  'x, y, z'

loop_
  _atom_site_label
  _atom_site_occupancy
  _atom_site_fract_x
  _atom_site_fract_y
  _atom_site_fract_z
  _atom_site_thermal_displace_type
  _atom_site_B_iso_or_equiv
  _atom_site_type_symbol
  Cu1      1.0000 0.11937  0.91288  0.00649  Biso   1.000  Cu
  Cu2      1.0000 0.88063  0.41288  0.49351  Biso   1.000  Cu
  Cu3      1.0000 0.88063  0.08712  0.99351  Biso   1.000  Cu
  Cu4      1.0000 0.11937  0.58712  0.50649  Biso   1.000  Cu
  O1       1.0000 0.95510  0.83330  0.91865  Biso   1.000  O
  O2       1.0000 0.04490  0.33330  0.58135  Biso   1.000  O
  O3       1.0000 0.04490  0.16670  0.08135  Biso   1.000  O
  O4       1.0000 0.95510  0.66670  0.41865  Biso   1.000  O
  O5       1.0000 0.75070  0.98130  0.90737  Biso   1.000  O
  O6       1.0000 0.24930  0.48130  0.59263  Biso   1.000  O
  O7       1.0000 0.24930  0.01870  0.09263  Biso   1.000  O
  O8       1.0000 0.75070  0.51870  0.40737  Biso   1.000  O
  O9       1.0000 0.97880  0.64380  0.60490  Biso   1.000  O
  O10      1.0000 0.02120  0.14380  0.89510  Biso   1.000  O
  O11      1.0000 0.02120  0.35620  0.39510  Biso   1.000  O
  O12      1.0000 0.97880  0.85620  0.10490  Biso   1.000  O
  O13      1.0000 0.76780  0.50030  0.58820  Biso   1.000  O
  O14      1.0000 0.23220  0.00030  0.91180  Biso   1.000  O
  O15      1.0000 0.23220  0.49970  0.41180  Biso   1.000  O
  O16      1.0000 0.76780  0.99970  0.08820  Biso   1.000  O
  O17      1.0000 0.27770  0.72740  0.73823  Biso   1.000  O
  O18      1.0000 0.72230  0.22740  0.76177  Biso   1.000  O
  O19      1.0000 0.72230  0.27260  0.26177  Biso   1.000  O
  O20      1.0000 0.27770  0.77260  0.23823  Biso   1.000  O
  H1       1.0000 0.24140  0.68080  0.69800  Biso   1.000  H
  H2       1.0000 0.75860  0.18080  0.80200  Biso   1.000  H
  H3       1.0000 0.75860  0.31920  0.30200  Biso   1.000  H
  H4       1.0000 0.24140  0.81920  0.19800  Biso   1.000  H
  O21      1.0000 0.27290  0.74430  0.02248  Biso   1.000  O
  O22      1.0000 0.72710  0.24430  0.47752  Biso   1.000  O
  O23      1.0000 0.72710  0.25570  0.97752  Biso   1.000  O
  O24      1.0000 0.27290  0.75570  0.52248  Biso   1.000  O
  N1       1.0000 0.25660  0.53910  0.99170  Biso   1.000  N
  N2       1.0000 0.74340  0.03910  0.50830  Biso   1.000  N
  N3       1.0000 0.74340  0.46090  0.00830  Biso   1.000  N
  N4       1.0000 0.25660  0.96090  0.49170  Biso   1.000  N
  C1       1.0000 0.81610  0.87860  0.88590  Biso   1.000  C
  C2       1.0000 0.18390  0.37860  0.61410  Biso   1.000  C
  C3       1.0000 0.18390  0.12140  0.11410  Biso   1.000  C
  C4       1.0000 0.81610  0.62140  0.38590  Biso   1.000  C
  C5       1.0000 0.72090  0.80340  0.81450  Biso   1.000  C
  C6       1.0000 0.27910  0.30340  0.68550  Biso   1.000  C
  C7       1.0000 0.27910  0.19660  0.18550  Biso   1.000  C
  C8       1.0000 0.72090  0.69660  0.31450  Biso   1.000  C
  C9       1.0000 0.54030  0.80250  0.80630  Biso   1.000  C
  C10      1.0000 0.45970  0.30250  0.69370  Biso   1.000  C
  C11      1.0000 0.45970  0.19750  0.19370  Biso   1.000  C
  C12      1.0000 0.54030  0.69750  0.30630  Biso   1.000  C
  H5       1.0000 0.47560  0.85160  0.84370  Biso   1.000  H
  H6       1.0000 0.52440  0.35160  0.65630  Biso   1.000  H
  H7       1.0000 0.52440  0.14840  0.15630  Biso   1.000  H
  H8       1.0000 0.47560  0.64840  0.34370  Biso   1.000  H
  C13      1.0000 0.45630  0.72810  0.74200  Biso   1.000  C
  C14      1.0000 0.54370  0.22810  0.75800  Biso   1.000  C
  C15      1.0000 0.54370  0.27190  0.25800  Biso   1.000  C
  C16      1.0000 0.45630  0.77190  0.24200  Biso   1.000  C
  C17      1.0000 0.83450  0.59680  0.62270  Biso   1.000  C
  C18      1.0000 0.16550  0.09680  0.87730  Biso   1.000  C
  C19      1.0000 0.16550  0.40320  0.37730  Biso   1.000  C
  C20      1.0000 0.83450  0.90320  0.12270  Biso   1.000  C
  C21      1.0000 0.73250  0.66380  0.69050  Biso   1.000  C
  C22      1.0000 0.26750  0.16380  0.80950  Biso   1.000  C
  C23      1.0000 0.26750  0.33620  0.30950  Biso   1.000  C
  C24      1.0000 0.73250  0.83620  0.19050  Biso   1.000  C
  C25      1.0000 0.55180  0.65780  0.68460  Biso   1.000  C
  C26      1.0000 0.44820  0.15780  0.81540  Biso   1.000  C
  C27      1.0000 0.44820  0.34220  0.31540  Biso   1.000  C
  C28      1.0000 0.55180  0.84220  0.18460  Biso   1.000  C
  H9       1.0000 0.49480  0.60670  0.64220  Biso   1.000  H
  H10      1.0000 0.50520  0.10670  0.85780  Biso   1.000  H
  H11      1.0000 0.50520  0.39330  0.35780  Biso   1.000  H
  H12      1.0000 0.49480  0.89330  0.14220  Biso   1.000  H
  C29      1.0000 0.81790  0.73500  0.75650  Biso   1.000  C
  C30      1.0000 0.18210  0.23500  0.74350  Biso   1.000  C
  C31      1.0000 0.18210  0.26500  0.24350  Biso   1.000  C
  C32      1.0000 0.81790  0.76500  0.25650  Biso   1.000  C
  H13      1.0000 0.93960  0.73680  0.76180  Biso   1.000  H
  H14      1.0000 0.06040  0.23680  0.73820  Biso   1.000  H
  H15      1.0000 0.06040  0.26320  0.23820  Biso   1.000  H
  H16      1.0000 0.93960  0.76320  0.26180  Biso   1.000  H
  C33      1.0000 0.25510  0.65820  0.96960  Biso   1.000  C
  C34      1.0000 0.74490  0.15820  0.53040  Biso   1.000  C
  C35      1.0000 0.74490  0.34180  0.03040  Biso   1.000  C
  C36      1.0000 0.25510  0.84180  0.46960  Biso   1.000  C
  H17      1.0000 0.23930  0.67810  0.90960  Biso   1.000  H
  H18      1.0000 0.76070  0.17810  0.59040  Biso   1.000  H
  H19      1.0000 0.76070  0.32190  0.09040  Biso   1.000  H
  H20      1.0000 0.23930  0.82190  0.40960  Biso   1.000  H
  C37      1.0000 0.27490  0.50150  0.08260  Biso   1.000  C
  C38      1.0000 0.72510  0.00150  0.41740  Biso   1.000  C
  C39      1.0000 0.72510  0.49850  0.91740  Biso   1.000  C
  C40      1.0000 0.27490  0.99850  0.58260  Biso   1.000  C
  H21      1.0000 0.29310  0.57420  0.11960  Biso   1.000  H
  H22      1.0000 0.70690  0.07420  0.38040  Biso   1.000  H
  H23      1.0000 0.70690  0.42580  0.88040  Biso   1.000  H
  H24      1.0000 0.29310  0.92580  0.61960  Biso   1.000  H
  H25      1.0000 0.37330  0.44610  0.09090  Biso   1.000  H
  H26      1.0000 0.62670  0.94610  0.40910  Biso   1.000  H
  H27      1.0000 0.62670  0.55390  0.90910  Biso   1.000  H
  H28      1.0000 0.37330  0.05390  0.59090  Biso   1.000  H
  H29      1.0000 0.17060  0.45880  0.09860  Biso   1.000  H
  H30      1.0000 0.82940  0.95880  0.40140  Biso   1.000  H
  H31      1.0000 0.82940  0.54120  0.90140  Biso   1.000  H
  H32      1.0000 0.17060  0.04120  0.59860  Biso   1.000  H
  C41      1.0000 0.24140  0.44100  0.92540  Biso   1.000  C
  C42      1.0000 0.75860  0.94100  0.57460  Biso   1.000  C
  C43      1.0000 0.75860  0.55900  0.07460  Biso   1.000  C
  C44      1.0000 0.24140  0.05900  0.42540  Biso   1.000  C
  H33      1.0000 0.24410  0.47730  0.86720  Biso   1.000  H
  H34      1.0000 0.75590  0.97730  0.63280  Biso   1.000  H
  H35      1.0000 0.75590  0.52270  0.13280  Biso   1.000  H
  H36      1.0000 0.24410  0.02270  0.36720  Biso   1.000  H
  H37      1.0000 0.13280  0.39710  0.93070  Biso   1.000  H
  H38      1.0000 0.86720  0.89710  0.56930  Biso   1.000  H
  H39      1.0000 0.86720  0.60290  0.06930  Biso   1.000  H
  H40      1.0000 0.13280  0.10290  0.43070  Biso   1.000  H
  H41      1.0000 0.33710  0.38330  0.93440  Biso   1.000  H
  H42      1.0000 0.66290  0.88330  0.56560  Biso   1.000  H
  H43      1.0000 0.66290  0.61670  0.06560  Biso   1.000  H
  H44      1.0000 0.33710  0.11670  0.43440  Biso   1.000  H
