data_image0
_cell_length_a       8.7377
_cell_length_b       10.5776
_cell_length_c       12.8766
_cell_angle_alpha    90
_cell_angle_beta     109.733
_cell_angle_gamma    90

_symmetry_space_group_name_H-M    "P 1"
_symmetry_int_tables_number       1

loop_
  _symmetry_equiv_pos_as_xyz
  'x, y, z'

loop_
  _atom_site_label
  _atom_site_occupancy
  _atom_site_fract_x
  _atom_site_fract_y
  _atom_site_fract_z
  _atom_site_thermal_displace_type
  _atom_site_B_iso_or_equiv
  _atom_site_type_symbol
  Cu1      1.0000 0.18961  0.61484  0.48920  Biso   1.000  Cu
  Cu2      1.0000 0.31039  0.11484  0.01080  Biso   1.000  Cu
  Cu3      1.0000 0.81039  0.38516  0.51080  Biso   1.000  Cu
  Cu4      1.0000 0.68961  0.88516  0.98920  Biso   1.000  Cu
  N1       1.0000 0.35670  0.25405  0.91980  Biso   1.000  N
  N2       1.0000 0.14330  0.75405  0.58020  Biso   1.000  N
  N3       1.0000 0.64330  0.74595  0.08020  Biso   1.000  N
  N4       1.0000 0.85670  0.24595  0.41980  Biso   1.000  N
  S1       1.0000 0.49882  0.43000  0.85189  Biso   1.000  S
  S2       1.0000 0.00118  0.93000  0.64811  Biso   1.000  S
  S3       1.0000 0.50118  0.57000  0.14811  Biso   1.000  S
  S4       1.0000 0.99882  0.07000  0.35189  Biso   1.000  S
  C1       1.0000 0.22310  0.44134  0.65803  Biso   1.000  C
  C2       1.0000 0.27690  0.94134  0.84197  Biso   1.000  C
  C3       1.0000 0.77690  0.55866  0.34197  Biso   1.000  C
  C4       1.0000 0.72310  0.05866  0.15803  Biso   1.000  C
  O1       1.0000 0.30251  0.52852  0.62966  Biso   1.000  O
  O2       1.0000 0.19749  0.02852  0.87034  Biso   1.000  O
  O3       1.0000 0.69749  0.47148  0.37034  Biso   1.000  O
  O4       1.0000 0.80251  0.97148  0.12966  Biso   1.000  O
  O5       1.0000 0.08595  0.40442  0.60366  Biso   1.000  O
  O6       1.0000 0.41405  0.90442  0.89634  Biso   1.000  O
  O7       1.0000 0.91405  0.59558  0.39634  Biso   1.000  O
  O8       1.0000 0.58595  0.09558  0.10366  Biso   1.000  O
  C5       1.0000 0.31050  0.38063  0.76658  Biso   1.000  C
  C6       1.0000 0.18950  0.88063  0.73342  Biso   1.000  C
  C7       1.0000 0.68950  0.61937  0.23342  Biso   1.000  C
  C8       1.0000 0.81050  0.11937  0.26658  Biso   1.000  C
  C9       1.0000 0.25470  0.28638  0.81539  Biso   1.000  C
  C10      1.0000 0.24530  0.78638  0.68461  Biso   1.000  C
  C11      1.0000 0.74530  0.71362  0.18461  Biso   1.000  C
  C12      1.0000 0.75470  0.21362  0.31539  Biso   1.000  C
  H1       1.0000 0.15770  0.24750  0.78210  Biso   1.000  H
  H2       1.0000 0.34230  0.74750  0.71790  Biso   1.000  H
  H3       1.0000 0.84230  0.75250  0.21790  Biso   1.000  H
  H4       1.0000 0.65770  0.25250  0.28210  Biso   1.000  H
  C13      1.0000 0.48970  0.32297  0.94821  Biso   1.000  C
  C14      1.0000 0.01030  0.82297  0.55179  Biso   1.000  C
  C15      1.0000 0.51030  0.67703  0.05179  Biso   1.000  C
  C16      1.0000 0.98970  0.17703  0.44821  Biso   1.000  C
  H5       1.0000 0.57030  0.31410  0.01410  Biso   1.000  H
  H6       1.0000 0.92970  0.81410  0.48590  Biso   1.000  H
  H7       1.0000 0.42970  0.68590  0.98590  Biso   1.000  H
  H8       1.0000 0.07030  0.18590  0.51410  Biso   1.000  H
  S5       1.0000 0.11025  0.77372  0.13019  Biso   1.000  S
  S6       1.0000 0.38975  0.27372  0.36981  Biso   1.000  S
  S7       1.0000 0.88975  0.22628  0.86981  Biso   1.000  S
  S8       1.0000 0.61025  0.72628  0.63019  Biso   1.000  S
  N5       1.0000 0.25507  0.96811  0.09151  Biso   1.000  N
  N6       1.0000 0.24493  0.46811  0.40849  Biso   1.000  N
  N7       1.0000 0.74493  0.03189  0.90849  Biso   1.000  N
  N8       1.0000 0.75507  0.53189  0.59151  Biso   1.000  N
  C17      1.0000 0.27960  0.79734  0.35305  Biso   1.000  C
  C18      1.0000 0.22040  0.29734  0.14695  Biso   1.000  C
  C19      1.0000 0.72040  0.20266  0.64695  Biso   1.000  C
  C20      1.0000 0.77960  0.70266  0.85305  Biso   1.000  C
  O9       1.0000 0.17096  0.72089  0.35858  Biso   1.000  O
  O10      1.0000 0.32904  0.22089  0.14142  Biso   1.000  O
  O11      1.0000 0.82904  0.27911  0.64142  Biso   1.000  O
  O12      1.0000 0.67096  0.77911  0.85858  Biso   1.000  O
  O13      1.0000 0.40039  0.83175  0.43028  Biso   1.000  O
  O14      1.0000 0.09961  0.33175  0.06972  Biso   1.000  O
  O15      1.0000 0.59961  0.16825  0.56972  Biso   1.000  O
  O16      1.0000 0.90039  0.66825  0.93028  Biso   1.000  O
  C21      1.0000 0.25130  0.84749  0.23921  Biso   1.000  C
  C22      1.0000 0.24870  0.34749  0.26079  Biso   1.000  C
  C23      1.0000 0.74870  0.15251  0.76079  Biso   1.000  C
  C24      1.0000 0.75130  0.65251  0.73921  Biso   1.000  C
  C25      1.0000 0.31840  0.94817  0.20430  Biso   1.000  C
  C26      1.0000 0.18160  0.44817  0.29570  Biso   1.000  C
  C27      1.0000 0.68160  0.05183  0.79570  Biso   1.000  C
  C28      1.0000 0.81840  0.55183  0.70430  Biso   1.000  C
  H9       1.0000 0.39620  0.99690  0.25010  Biso   1.000  H
  H10      1.0000 0.10380  0.49690  0.24990  Biso   1.000  H
  H11      1.0000 0.60380  0.00310  0.74990  Biso   1.000  H
  H12      1.0000 0.89620  0.50310  0.75010  Biso   1.000  H
  C29      1.0000 0.14590  0.88143  0.04372  Biso   1.000  C
  C30      1.0000 0.35410  0.38143  0.45628  Biso   1.000  C
  C31      1.0000 0.85410  0.11857  0.95628  Biso   1.000  C
  C32      1.0000 0.64590  0.61857  0.54372  Biso   1.000  C
  H13      1.0000 0.09200  0.87947  0.96760  Biso   1.000  H
  H14      1.0000 0.40800  0.37947  0.53240  Biso   1.000  H
  H15      1.0000 0.90800  0.12053  0.03240  Biso   1.000  H
  H16      1.0000 0.59200  0.62053  0.46760  Biso   1.000  H
  O17      1.0000 0.68290  0.96524  0.44280  Biso   1.000  O
  O18      1.0000 0.81710  0.46524  0.05720  Biso   1.000  O
  O19      1.0000 0.31710  0.03476  0.55720  Biso   1.000  O
  O20      1.0000 0.18290  0.53476  0.94280  Biso   1.000  O
  H17      1.0000 0.59300  0.92000  0.42600  Biso   1.000  H
  H18      1.0000 0.90700  0.42000  0.07400  Biso   1.000  H
  H19      1.0000 0.40700  0.08000  0.57400  Biso   1.000  H
  H20      1.0000 0.09300  0.58000  0.92600  Biso   1.000  H
  H21      1.0000 0.66400  0.03400  0.47500  Biso   1.000  H
  H22      1.0000 0.83600  0.53400  0.02500  Biso   1.000  H
  H23      1.0000 0.33600  0.96600  0.52500  Biso   1.000  H
  H24      1.0000 0.16400  0.46600  0.97500  Biso   1.000  H
