data_image0
_cell_length_a       11.006
_cell_length_b       13.471
_cell_length_c       16.514
_cell_angle_alpha    93.792
_cell_angle_beta     94.251
_cell_angle_gamma    112.956

_symmetry_space_group_name_H-M    "P 1"
_symmetry_int_tables_number       1

loop_
  _symmetry_equiv_pos_as_xyz
  'x, y, z'

loop_
  _atom_site_label
  _atom_site_occupancy
  _atom_site_fract_x
  _atom_site_fract_y
  _atom_site_fract_z
  _atom_site_thermal_displace_type
  _atom_site_B_iso_or_equiv
  _atom_site_type_symbol
  C1       1.0000 0.31630  0.47750  0.20190  Biso   1.000  C
  C2       1.0000 0.68370  0.52250  0.79810  Biso   1.000  C
  H1       1.0000 0.32400  0.50660  0.15210  Biso   1.000  H
  H2       1.0000 0.67600  0.49340  0.84790  Biso   1.000  H
  C3       1.0000 0.32880  0.54360  0.27050  Biso   1.000  C
  C4       1.0000 0.67120  0.45640  0.72950  Biso   1.000  C
  H3       1.0000 0.34540  0.61610  0.26640  Biso   1.000  H
  H4       1.0000 0.65460  0.38390  0.73360  Biso   1.000  H
  C5       1.0000 0.31720  0.50450  0.34710  Biso   1.000  C
  C6       1.0000 0.68280  0.49550  0.65290  Biso   1.000  C
  C7       1.0000 0.29430  0.39630  0.34780  Biso   1.000  C
  C8       1.0000 0.70570  0.60370  0.65220  Biso   1.000  C
  H5       1.0000 0.28500  0.36600  0.39710  Biso   1.000  H
  H6       1.0000 0.71500  0.63400  0.60290  Biso   1.000  H
  C9       1.0000 0.28470  0.33180  0.27710  Biso   1.000  C
  C10      1.0000 0.71530  0.66820  0.72290  Biso   1.000  C
  C11      1.0000 0.26500  0.21570  0.27460  Biso   1.000  C
  C12      1.0000 0.73500  0.78430  0.72540  Biso   1.000  C
  C13      1.0000 0.24980  0.16030  0.34350  Biso   1.000  C
  C14      1.0000 0.75020  0.83970  0.65650  Biso   1.000  C
  H7       1.0000 0.25090  0.19590  0.39390  Biso   1.000  H
  H8       1.0000 0.74910  0.80410  0.60610  Biso   1.000  H
  C15      1.0000 0.23290  0.05140  0.33840  Biso   1.000  C
  C16      1.0000 0.76710  0.94860  0.66160  Biso   1.000  C
  C17      1.0000 0.22660  0.00320  0.26040  Biso   1.000  C
  C18      1.0000 0.77340  0.99680  0.73960  Biso   1.000  C
  H9       1.0000 0.21240  0.93030  0.25290  Biso   1.000  H
  H10      1.0000 0.78760  0.06970  0.74710  Biso   1.000  H
  C19      1.0000 0.24110  0.06190  0.19390  Biso   1.000  C
  C20      1.0000 0.75890  0.93810  0.80610  Biso   1.000  C
  H11      1.0000 0.23610  0.02690  0.14260  Biso   1.000  H
  H12      1.0000 0.76390  0.97310  0.85740  Biso   1.000  H
  C21      1.0000 0.31970  0.57680  0.42400  Biso   1.000  C
  C22      1.0000 0.68030  0.42320  0.57600  Biso   1.000  C
  C23      1.0000 0.21330  0.62120  0.41190  Biso   1.000  C
  C24      1.0000 0.78670  0.37880  0.58810  Biso   1.000  C
  H13      1.0000 0.22360  0.65730  0.36310  Biso   1.000  H
  H14      1.0000 0.77640  0.34270  0.63690  Biso   1.000  H
  H15      1.0000 0.22150  0.67160  0.45800  Biso   1.000  H
  H16      1.0000 0.77850  0.32840  0.54200  Biso   1.000  H
  H17      1.0000 0.12730  0.56260  0.40700  Biso   1.000  H
  H18      1.0000 0.87270  0.43740  0.59300  Biso   1.000  H
  C25      1.0000 0.45600  0.67330  0.43390  Biso   1.000  C
  C26      1.0000 0.54400  0.32670  0.56610  Biso   1.000  C
  H19      1.0000 0.46700  0.71010  0.38550  Biso   1.000  H
  H20      1.0000 0.53300  0.28990  0.61450  Biso   1.000  H
  H21      1.0000 0.52510  0.64710  0.44250  Biso   1.000  H
  H22      1.0000 0.47490  0.35290  0.55750  Biso   1.000  H
  H23      1.0000 0.46090  0.72260  0.48000  Biso   1.000  H
  H24      1.0000 0.53910  0.27740  0.52000  Biso   1.000  H
  C27      1.0000 0.30100  0.52010  0.50080  Biso   1.000  C
  C28      1.0000 0.69900  0.47990  0.49920  Biso   1.000  C
  H25      1.0000 0.30280  0.56950  0.54600  Biso   1.000  H
  H26      1.0000 0.69720  0.43050  0.45400  Biso   1.000  H
  H27      1.0000 0.37130  0.49570  0.51130  Biso   1.000  H
  H28      1.0000 0.62870  0.50430  0.48870  Biso   1.000  H
  H29      1.0000 0.21720  0.45890  0.49400  Biso   1.000  H
  H30      1.0000 0.78280  0.54110  0.50600  Biso   1.000  H
  C29      1.0000 0.22150  0.98740  0.41140  Biso   1.000  C
  C30      1.0000 0.77850  0.01260  0.58860  Biso   1.000  C
  C31      1.0000 0.21100  0.04860  0.48890  Biso   1.000  C
  C32      1.0000 0.78900  0.95140  0.51110  Biso   1.000  C
  H31      1.0000 0.28650  0.11620  0.49950  Biso   1.000  H
  H32      1.0000 0.71350  0.88380  0.50050  Biso   1.000  H
  H33      1.0000 0.20730  0.00610  0.53380  Biso   1.000  H
  H34      1.0000 0.79270  0.99390  0.46620  Biso   1.000  H
  H35      1.0000 0.13130  0.06220  0.48270  Biso   1.000  H
  H36      1.0000 0.86870  0.93780  0.51730  Biso   1.000  H
  C33      1.0000 0.34190  0.95930  0.42090  Biso   1.000  C
  C34      1.0000 0.65810  0.04070  0.57910  Biso   1.000  C
  H37      1.0000 0.42080  0.02470  0.43090  Biso   1.000  H
  H38      1.0000 0.57920  0.97530  0.56910  Biso   1.000  H
  H39      1.0000 0.34530  0.91850  0.37180  Biso   1.000  H
  H40      1.0000 0.65470  0.08150  0.62820  Biso   1.000  H
  H41      1.0000 0.33590  0.91670  0.46600  Biso   1.000  H
  H42      1.0000 0.66410  0.08330  0.53400  Biso   1.000  H
  C35      1.0000 0.09850  0.87730  0.39580  Biso   1.000  C
  C36      1.0000 0.90150  0.12270  0.60420  Biso   1.000  C
  H43      1.0000 0.01890  0.89060  0.39020  Biso   1.000  H
  H44      1.0000 0.98110  0.10940  0.60980  Biso   1.000  H
  H45      1.0000 0.09670  0.83550  0.44090  Biso   1.000  H
  H46      1.0000 0.90330  0.16450  0.55910  Biso   1.000  H
  H47      1.0000 0.10420  0.83790  0.34660  Biso   1.000  H
  H48      1.0000 0.89580  0.16210  0.65340  Biso   1.000  H
  C37      1.0000 0.26920  0.35870  0.01710  Biso   1.000  C
  C38      1.0000 0.73080  0.64130  0.98290  Biso   1.000  C
  C39      1.0000 0.03920  0.57670  0.86460  Biso   1.000  C
  C40      1.0000 0.96080  0.42330  0.13540  Biso   1.000  C
  H49      1.0000 0.09350  0.65300  0.86310  Biso   1.000  H
  H50      1.0000 0.90650  0.34700  0.13690  Biso   1.000  H
  H51      1.0000 0.95340  0.57000  0.88030  Biso   1.000  H
  H52      1.0000 0.04660  0.43000  0.11970  Biso   1.000  H
  C41      1.0000 0.02210  0.51710  0.78240  Biso   1.000  C
  C42      1.0000 0.97790  0.48290  0.21760  Biso   1.000  C
  H53      1.0000 0.95530  0.44390  0.78060  Biso   1.000  H
  H54      1.0000 0.04470  0.55610  0.21940  Biso   1.000  H
  H55      1.0000 0.99420  0.55370  0.74080  Biso   1.000  H
  H56      1.0000 0.00580  0.44630  0.25920  Biso   1.000  H
  C43      1.0000 0.14660  0.43060  0.70300  Biso   1.000  C
  C44      1.0000 0.85340  0.56940  0.29700  Biso   1.000  C
  H57      1.0000 0.13650  0.45450  0.64970  Biso   1.000  H
  H58      1.0000 0.86350  0.54550  0.35030  Biso   1.000  H
  H59      1.0000 0.07100  0.36360  0.70680  Biso   1.000  H
  H60      1.0000 0.92900  0.63640  0.29320  Biso   1.000  H
  C45      1.0000 0.27190  0.41210  0.71320  Biso   1.000  C
  C46      1.0000 0.72810  0.58790  0.28680  Biso   1.000  C
  H61      1.0000 0.26420  0.34980  0.67690  Biso   1.000  H
  H62      1.0000 0.73580  0.65020  0.32310  Biso   1.000  H
  H63      1.0000 0.34580  0.47490  0.69980  Biso   1.000  H
  H64      1.0000 0.65420  0.52510  0.30020  Biso   1.000  H
  C47      1.0000 0.52830  0.67970  0.89210  Biso   1.000  C
  C48      1.0000 0.47170  0.32030  0.10790  Biso   1.000  C
  C49      1.0000 0.06780  0.19720  0.09760  Biso   1.000  C
  C50      1.0000 0.93220  0.80280  0.90240  Biso   1.000  C
  C51      1.0000 0.53960  0.06840  0.11100  Biso   1.000  C
  C52      1.0000 0.46040  0.93160  0.88900  Biso   1.000  C
  H65      1.0000 0.48880  0.11330  0.11070  Biso   1.000  H
  H66      1.0000 0.51120  0.88670  0.88930  Biso   1.000  H
  H67      1.0000 0.49830  0.00890  0.06820  Biso   1.000  H
  H68      1.0000 0.50170  0.99110  0.93180  Biso   1.000  H
  C53      1.0000 0.54100  0.02640  0.18990  Biso   1.000  C
  C54      1.0000 0.45900  0.97360  0.81010  Biso   1.000  C
  H69      1.0000 0.45180  0.97900  0.19920  Biso   1.000  H
  H70      1.0000 0.54820  0.02100  0.80080  Biso   1.000  H
  H71      1.0000 0.57510  0.08550  0.23330  Biso   1.000  H
  H72      1.0000 0.42490  0.91450  0.76670  Biso   1.000  H
  C55      1.0000 0.66730  0.94350  0.27100  Biso   1.000  C
  C56      1.0000 0.33270  0.05650  0.72900  Biso   1.000  C
  H73      1.0000 0.68010  0.00420  0.31050  Biso   1.000  H
  H74      1.0000 0.31990  0.99580  0.68950  Biso   1.000  H
  H75      1.0000 0.59730  0.87970  0.28660  Biso   1.000  H
  H76      1.0000 0.40270  0.12030  0.71340  Biso   1.000  H
  C57      1.0000 0.78270  0.92680  0.27150  Biso   1.000  C
  C58      1.0000 0.21730  0.07320  0.72850  Biso   1.000  C
  H77      1.0000 0.76270  0.85450  0.24570  Biso   1.000  H
  H78      1.0000 0.23730  0.14550  0.75430  Biso   1.000  H
  H79      1.0000 0.81840  0.93040  0.32760  Biso   1.000  H
  H80      1.0000 0.18160  0.06960  0.67240  Biso   1.000  H
  C59      1.0000 0.25730  0.14710  0.01350  Biso   1.000  C
  C60      1.0000 0.74270  0.85290  0.98650  Biso   1.000  C
  Cl1      1.0000 0.86340  0.24970  0.36130  Biso   1.000  Cl
  Cl2      1.0000 0.13660  0.75030  0.63870  Biso   1.000  Cl
  Cl3      1.0000 0.77620  0.25698  0.87678  Biso   1.000  Cl
  Cl4      1.0000 0.22380  0.74302  0.12322  Biso   1.000  Cl
  Cu1      1.0000 0.23780  0.48809  0.87374  Biso   1.000  Cu
  Cu2      1.0000 0.76220  0.51191  0.12626  Biso   1.000  Cu
  Cu3      1.0000 0.78978  0.05082  0.13411  Biso   1.000  Cu
  Cu4      1.0000 0.21022  0.94918  0.86589  Biso   1.000  Cu
  N1       1.0000 0.29290  0.37030  0.20270  Biso   1.000  N
  N2       1.0000 0.70710  0.62970  0.79730  Biso   1.000  N
  N3       1.0000 0.26200  0.16770  0.19980  Biso   1.000  N
  N4       1.0000 0.73800  0.83230  0.80020  Biso   1.000  N
  N5       1.0000 0.26720  0.41980  0.96970  Biso   1.000  N
  N6       1.0000 0.73280  0.58020  0.03030  Biso   1.000  N
  N7       1.0000 0.10360  0.53090  0.92470  Biso   1.000  N
  N8       1.0000 0.89640  0.46910  0.07530  Biso   1.000  N
  H81      1.0000 0.04180  0.47250  0.94250  Biso   1.000  H
  H82      1.0000 0.95820  0.52750  0.05750  Biso   1.000  H
  H83      1.0000 0.14370  0.58040  0.96790  Biso   1.000  H
  H84      1.0000 0.85630  0.41960  0.03210  Biso   1.000  H
  N9       1.0000 0.15200  0.51480  0.76820  Biso   1.000  N
  N10      1.0000 0.84800  0.48520  0.23180  Biso   1.000  N
  H85      1.0000 0.20520  0.58090  0.75430  Biso   1.000  H
  H86      1.0000 0.79480  0.41910  0.24570  Biso   1.000  H
  N11      1.0000 0.29480  0.39320  0.79800  Biso   1.000  N
  N12      1.0000 0.70520  0.60680  0.20200  Biso   1.000  N
  H87      1.0000 0.38150  0.40830  0.81080  Biso   1.000  H
  H88      1.0000 0.61850  0.59170  0.18920  Biso   1.000  H
  H89      1.0000 0.24840  0.32300  0.80430  Biso   1.000  H
  H90      1.0000 0.75160  0.67700  0.19570  Biso   1.000  H
  N13      1.0000 0.41120  0.63930  0.88550  Biso   1.000  N
  N14      1.0000 0.58880  0.36070  0.11450  Biso   1.000  N
  N15      1.0000 0.95730  0.15350  0.10330  Biso   1.000  N
  N16      1.0000 0.04270  0.84650  0.89670  Biso   1.000  N
  N17      1.0000 0.67760  0.13320  0.09610  Biso   1.000  N
  N18      1.0000 0.32240  0.86680  0.90390  Biso   1.000  N
  H91      1.0000 0.70730  0.19920  0.12430  Biso   1.000  H
  H92      1.0000 0.29270  0.80080  0.87570  Biso   1.000  H
  H93      1.0000 0.68220  0.14160  0.04270  Biso   1.000  H
  H94      1.0000 0.31780  0.85840  0.95730  Biso   1.000  H
  N19      1.0000 0.62690  0.96610  0.18850  Biso   1.000  N
  N20      1.0000 0.37310  0.03390  0.81150  Biso   1.000  N
  H95      1.0000 0.58170  0.90160  0.15760  Biso   1.000  H
  H96      1.0000 0.41830  0.09840  0.84240  Biso   1.000  H
  N21      1.0000 0.88570  0.00740  0.22840  Biso   1.000  N
  N22      1.0000 0.11430  0.99260  0.77160  Biso   1.000  N
  H97      1.0000 0.93970  0.97800  0.20870  Biso   1.000  H
  H98      1.0000 0.06030  0.02200  0.79130  Biso   1.000  H
  H99      1.0000 0.93510  0.06610  0.26320  Biso   1.000  H
  H100     1.0000 0.06490  0.93390  0.73680  Biso   1.000  H
  N23      1.0000 0.24960  0.07840  0.96320  Biso   1.000  N
  N24      1.0000 0.75040  0.92160  0.03680  Biso   1.000  N
  O1       1.0000 0.93540  0.35760  0.39830  Biso   1.000  O
  O2       1.0000 0.06460  0.64240  0.60170  Biso   1.000  O
  O3       1.0000 0.83050  0.24060  0.27720  Biso   1.000  O
  O4       1.0000 0.16950  0.75940  0.72280  Biso   1.000  O
  O5       1.0000 0.76300  0.19340  0.40170  Biso   1.000  O
  O6       1.0000 0.23700  0.80660  0.59830  Biso   1.000  O
  O7       1.0000 0.95210  0.20500  0.37950  Biso   1.000  O
  O8       1.0000 0.04790  0.79500  0.62050  Biso   1.000  O
  O9       1.0000 0.73290  0.23520  0.79400  Biso   1.000  O
  O10      1.0000 0.26710  0.76480  0.20600  Biso   1.000  O
  O11      1.0000 0.75670  0.34820  0.90830  Biso   1.000  O
  O12      1.0000 0.24330  0.65180  0.09170  Biso   1.000  O
  O13      1.0000 0.91290  0.28760  0.88910  Biso   1.000  O
  O14      1.0000 0.08710  0.71240  0.11090  Biso   1.000  O
  O15      1.0000 0.71580  0.16320  0.91160  Biso   1.000  O
  O16      1.0000 0.28420  0.83680  0.08840  Biso   1.000  O
  O17      1.0000 0.61700  0.30100  0.31300  Biso   1.000  O
  O18      1.0000 0.38300  0.69900  0.68700  Biso   1.000  O
  O19      1.0000 0.07240  0.17550  0.85690  Biso   1.000  O
  O20      1.0000 0.92760  0.82450  0.14310  Biso   1.000  O
  O21      1.0000 0.46580  0.28810  0.88650  Biso   1.000  O
  O22      1.0000 0.53420  0.71190  0.11350  Biso   1.000  O
  Ru1      1.0000 0.27127  0.26097  0.10054  Biso   1.000  Ru
  Ru2      1.0000 0.72873  0.73903  0.89946  Biso   1.000  Ru
