data_image0
_cell_length_a       29.6755
_cell_length_b       29.6755
_cell_length_c       6.9857
_cell_angle_alpha    90
_cell_angle_beta     90
_cell_angle_gamma    90

_symmetry_space_group_name_H-M    "P 1"
_symmetry_int_tables_number       1

loop_
  _symmetry_equiv_pos_as_xyz
  'x, y, z'

loop_
  _atom_site_label
  _atom_site_occupancy
  _atom_site_fract_x
  _atom_site_fract_y
  _atom_site_fract_z
  _atom_site_thermal_displace_type
  _atom_site_B_iso_or_equiv
  _atom_site_type_symbol
  Cu1      1.0000 0.61885  0.27198  0.05794  Biso   1.000  Cu
  Cu2      1.0000 0.38115  0.72802  0.05794  Biso   1.000  Cu
  Cu3      1.0000 0.72802  0.61885  0.05794  Biso   1.000  Cu
  Cu4      1.0000 0.27198  0.38115  0.05794  Biso   1.000  Cu
  Cu5      1.0000 0.61885  0.72802  0.55794  Biso   1.000  Cu
  Cu6      1.0000 0.38115  0.27198  0.55794  Biso   1.000  Cu
  Cu7      1.0000 0.72802  0.38115  0.55794  Biso   1.000  Cu
  Cu8      1.0000 0.27198  0.61885  0.55794  Biso   1.000  Cu
  Cu9      1.0000 0.11885  0.77198  0.55794  Biso   1.000  Cu
  Cu10     1.0000 0.88115  0.22802  0.55794  Biso   1.000  Cu
  Cu11     1.0000 0.22802  0.11885  0.55794  Biso   1.000  Cu
  Cu12     1.0000 0.77198  0.88115  0.55794  Biso   1.000  Cu
  Cu13     1.0000 0.11885  0.22802  0.05794  Biso   1.000  Cu
  Cu14     1.0000 0.88115  0.77198  0.05794  Biso   1.000  Cu
  Cu15     1.0000 0.22802  0.88115  0.05794  Biso   1.000  Cu
  Cu16     1.0000 0.77198  0.11885  0.05794  Biso   1.000  Cu
  I1       1.0000 0.71946  0.33566  0.02885  Biso   1.000  I
  I2       1.0000 0.28054  0.66434  0.02885  Biso   1.000  I
  I3       1.0000 0.66434  0.71946  0.02885  Biso   1.000  I
  I4       1.0000 0.33566  0.28054  0.02885  Biso   1.000  I
  I5       1.0000 0.71946  0.66434  0.52885  Biso   1.000  I
  I6       1.0000 0.28054  0.33566  0.52885  Biso   1.000  I
  I7       1.0000 0.66434  0.28054  0.52885  Biso   1.000  I
  I8       1.0000 0.33566  0.71946  0.52885  Biso   1.000  I
  I9       1.0000 0.21946  0.83566  0.52885  Biso   1.000  I
  I10      1.0000 0.78054  0.16434  0.52885  Biso   1.000  I
  I11      1.0000 0.16434  0.21946  0.52885  Biso   1.000  I
  I12      1.0000 0.83566  0.78054  0.52885  Biso   1.000  I
  I13      1.0000 0.21946  0.16434  0.02885  Biso   1.000  I
  I14      1.0000 0.78054  0.83566  0.02885  Biso   1.000  I
  I15      1.0000 0.16434  0.78054  0.02885  Biso   1.000  I
  I16      1.0000 0.83566  0.21946  0.02885  Biso   1.000  I
  I17      1.0000 0.70007  0.20007  0.97249  Biso   1.000  I
  I18      1.0000 0.29993  0.79993  0.97249  Biso   1.000  I
  I19      1.0000 0.79993  0.70007  0.97249  Biso   1.000  I
  I20      1.0000 0.20007  0.29993  0.97249  Biso   1.000  I
  I21      1.0000 0.70007  0.79993  0.47249  Biso   1.000  I
  I22      1.0000 0.29993  0.20007  0.47249  Biso   1.000  I
  I23      1.0000 0.79993  0.29993  0.47249  Biso   1.000  I
  I24      1.0000 0.20007  0.70007  0.47249  Biso   1.000  I
  I25      1.0000 0.50000  0.50000  0.02800  Biso   1.000  I
  I26      1.0000 0.50000  0.50000  0.52800  Biso   1.000  I
  I27      1.0000 0.00000  0.00000  0.52800  Biso   1.000  I
  I28      1.0000 0.00000  0.00000  0.02800  Biso   1.000  I
  I29      1.0000 0.50000  0.50000  0.68700  Biso   1.000  I
  I30      1.0000 0.50000  0.50000  0.18700  Biso   1.000  I
  I31      1.0000 0.00000  0.00000  0.18700  Biso   1.000  I
  I32      1.0000 0.00000  0.00000  0.68700  Biso   1.000  I
  I33      1.0000 0.50000  0.50000  0.86100  Biso   1.000  I
  I34      1.0000 0.50000  0.50000  0.36100  Biso   1.000  I
  I35      1.0000 0.00000  0.00000  0.36100  Biso   1.000  I
  I36      1.0000 0.00000  0.00000  0.86100  Biso   1.000  I
  Cl1      1.0000 0.58490  0.08490  0.49080  Biso   1.000  Cl
  Cl2      1.0000 0.41510  0.91510  0.49080  Biso   1.000  Cl
  Cl3      1.0000 0.91510  0.58490  0.49080  Biso   1.000  Cl
  Cl4      1.0000 0.08490  0.41510  0.49080  Biso   1.000  Cl
  Cl5      1.0000 0.58490  0.91510  0.99080  Biso   1.000  Cl
  Cl6      1.0000 0.41510  0.08490  0.99080  Biso   1.000  Cl
  Cl7      1.0000 0.91510  0.41510  0.99080  Biso   1.000  Cl
  Cl8      1.0000 0.08490  0.58490  0.99080  Biso   1.000  Cl
  Cl9      1.0000 0.58170  0.08170  0.55830  Biso   1.000  Cl
  Cl10     1.0000 0.41830  0.91830  0.55830  Biso   1.000  Cl
  Cl11     1.0000 0.91830  0.58170  0.55830  Biso   1.000  Cl
  Cl12     1.0000 0.08170  0.41830  0.55830  Biso   1.000  Cl
  Cl13     1.0000 0.58170  0.91830  0.05830  Biso   1.000  Cl
  Cl14     1.0000 0.41830  0.08170  0.05830  Biso   1.000  Cl
  Cl15     1.0000 0.91830  0.41830  0.05830  Biso   1.000  Cl
  Cl16     1.0000 0.08170  0.58170  0.05830  Biso   1.000  Cl
  O1       1.0000 0.66477  0.31860  0.11820  Biso   1.000  O
  O2       1.0000 0.33523  0.68140  0.11820  Biso   1.000  O
  O3       1.0000 0.68140  0.66477  0.11820  Biso   1.000  O
  O4       1.0000 0.31860  0.33523  0.11820  Biso   1.000  O
  O5       1.0000 0.66477  0.68140  0.61820  Biso   1.000  O
  O6       1.0000 0.33523  0.31860  0.61820  Biso   1.000  O
  O7       1.0000 0.68140  0.33523  0.61820  Biso   1.000  O
  O8       1.0000 0.31860  0.66477  0.61820  Biso   1.000  O
  O9       1.0000 0.16477  0.81860  0.61820  Biso   1.000  O
  O10      1.0000 0.83523  0.18140  0.61820  Biso   1.000  O
  O11      1.0000 0.18140  0.16477  0.61820  Biso   1.000  O
  O12      1.0000 0.81860  0.83523  0.61820  Biso   1.000  O
  O13      1.0000 0.16477  0.18140  0.11820  Biso   1.000  O
  O14      1.0000 0.83523  0.81860  0.11820  Biso   1.000  O
  O15      1.0000 0.18140  0.83523  0.11820  Biso   1.000  O
  O16      1.0000 0.81860  0.16477  0.11820  Biso   1.000  O
  O17      1.0000 0.65710  0.22064  0.13800  Biso   1.000  O
  O18      1.0000 0.34290  0.77936  0.13800  Biso   1.000  O
  O19      1.0000 0.77936  0.65710  0.13800  Biso   1.000  O
  O20      1.0000 0.22064  0.34290  0.13800  Biso   1.000  O
  O21      1.0000 0.65710  0.77936  0.63800  Biso   1.000  O
  O22      1.0000 0.34290  0.22064  0.63800  Biso   1.000  O
  O23      1.0000 0.77936  0.34290  0.63800  Biso   1.000  O
  O24      1.0000 0.22064  0.65710  0.63800  Biso   1.000  O
  O25      1.0000 0.15710  0.72064  0.63800  Biso   1.000  O
  O26      1.0000 0.84290  0.27936  0.63800  Biso   1.000  O
  O27      1.0000 0.27936  0.15710  0.63800  Biso   1.000  O
  O28      1.0000 0.72064  0.84290  0.63800  Biso   1.000  O
  O29      1.0000 0.15710  0.27936  0.13800  Biso   1.000  O
  O30      1.0000 0.84290  0.72064  0.13800  Biso   1.000  O
  O31      1.0000 0.27936  0.84290  0.13800  Biso   1.000  O
  O32      1.0000 0.72064  0.15710  0.13800  Biso   1.000  O
  O33      1.0000 0.74340  0.34730  0.26180  Biso   1.000  O
  O34      1.0000 0.25660  0.65270  0.26180  Biso   1.000  O
  O35      1.0000 0.65270  0.74340  0.26180  Biso   1.000  O
  O36      1.0000 0.34730  0.25660  0.26180  Biso   1.000  O
  O37      1.0000 0.74340  0.65270  0.76180  Biso   1.000  O
  O38      1.0000 0.25660  0.34730  0.76180  Biso   1.000  O
  O39      1.0000 0.65270  0.25660  0.76180  Biso   1.000  O
  O40      1.0000 0.34730  0.74340  0.76180  Biso   1.000  O
  O41      1.0000 0.24340  0.84730  0.76180  Biso   1.000  O
  O42      1.0000 0.75660  0.15270  0.76180  Biso   1.000  O
  O43      1.0000 0.15270  0.24340  0.76180  Biso   1.000  O
  O44      1.0000 0.84730  0.75660  0.76180  Biso   1.000  O
  O45      1.0000 0.24340  0.15270  0.26180  Biso   1.000  O
  O46      1.0000 0.75660  0.84730  0.26180  Biso   1.000  O
  O47      1.0000 0.15270  0.75660  0.26180  Biso   1.000  O
  O48      1.0000 0.84730  0.24340  0.26180  Biso   1.000  O
  O49      1.0000 0.70820  0.39109  0.94440  Biso   1.000  O
  O50      1.0000 0.29180  0.60891  0.94440  Biso   1.000  O
  O51      1.0000 0.60891  0.70820  0.94440  Biso   1.000  O
  O52      1.0000 0.39109  0.29180  0.94440  Biso   1.000  O
  O53      1.0000 0.70820  0.60891  0.44440  Biso   1.000  O
  O54      1.0000 0.29180  0.39109  0.44440  Biso   1.000  O
  O55      1.0000 0.60891  0.29180  0.44440  Biso   1.000  O
  O56      1.0000 0.39109  0.70820  0.44440  Biso   1.000  O
  O57      1.0000 0.20820  0.89109  0.44440  Biso   1.000  O
  O58      1.0000 0.79180  0.10891  0.44440  Biso   1.000  O
  O59      1.0000 0.10891  0.20820  0.44440  Biso   1.000  O
  O60      1.0000 0.89109  0.79180  0.44440  Biso   1.000  O
  O61      1.0000 0.20820  0.10891  0.94440  Biso   1.000  O
  O62      1.0000 0.79180  0.89109  0.94440  Biso   1.000  O
  O63      1.0000 0.10891  0.79180  0.94440  Biso   1.000  O
  O64      1.0000 0.89109  0.20820  0.94440  Biso   1.000  O
  O65      1.0000 0.74220  0.24220  0.01130  Biso   1.000  O
  O66      1.0000 0.25780  0.75780  0.01130  Biso   1.000  O
  O67      1.0000 0.75780  0.74220  0.01130  Biso   1.000  O
  O68      1.0000 0.24220  0.25780  0.01130  Biso   1.000  O
  O69      1.0000 0.74220  0.75780  0.51130  Biso   1.000  O
  O70      1.0000 0.25780  0.24220  0.51130  Biso   1.000  O
  O71      1.0000 0.75780  0.25780  0.51130  Biso   1.000  O
  O72      1.0000 0.24220  0.74220  0.51130  Biso   1.000  O
  O73      1.0000 0.54490  0.04490  0.19900  Biso   1.000  O
  O74      1.0000 0.45510  0.95510  0.19900  Biso   1.000  O
  O75      1.0000 0.95510  0.54490  0.19900  Biso   1.000  O
  O76      1.0000 0.04490  0.45510  0.19900  Biso   1.000  O
  O77      1.0000 0.54490  0.95510  0.69900  Biso   1.000  O
  O78      1.0000 0.45510  0.04490  0.69900  Biso   1.000  O
  O79      1.0000 0.95510  0.45510  0.69900  Biso   1.000  O
  O80      1.0000 0.04490  0.54490  0.69900  Biso   1.000  O
  O81      1.0000 0.67900  0.17900  0.50800  Biso   1.000  O
  O82      1.0000 0.32100  0.82100  0.50800  Biso   1.000  O
  O83      1.0000 0.82100  0.67900  0.50800  Biso   1.000  O
  O84      1.0000 0.17900  0.32100  0.50800  Biso   1.000  O
  O85      1.0000 0.67900  0.82100  0.00800  Biso   1.000  O
  O86      1.0000 0.32100  0.17900  0.00800  Biso   1.000  O
  O87      1.0000 0.82100  0.32100  0.00800  Biso   1.000  O
  O88      1.0000 0.17900  0.67900  0.00800  Biso   1.000  O
  O89      1.0000 0.64260  0.14260  0.49300  Biso   1.000  O
  O90      1.0000 0.35740  0.85740  0.49300  Biso   1.000  O
  O91      1.0000 0.85740  0.64260  0.49300  Biso   1.000  O
  O92      1.0000 0.14260  0.35740  0.49300  Biso   1.000  O
  O93      1.0000 0.64260  0.85740  0.99300  Biso   1.000  O
  O94      1.0000 0.35740  0.14260  0.99300  Biso   1.000  O
  O95      1.0000 0.85740  0.35740  0.99300  Biso   1.000  O
  O96      1.0000 0.14260  0.64260  0.99300  Biso   1.000  O
  O97      1.0000 0.62717  0.12717  0.82180  Biso   1.000  O
  O98      1.0000 0.37283  0.87283  0.82180  Biso   1.000  O
  O99      1.0000 0.87283  0.62717  0.82180  Biso   1.000  O
  O100     1.0000 0.12717  0.37283  0.82180  Biso   1.000  O
  O101     1.0000 0.62717  0.87283  0.32180  Biso   1.000  O
  O102     1.0000 0.37283  0.12717  0.32180  Biso   1.000  O
  O103     1.0000 0.87283  0.37283  0.32180  Biso   1.000  O
  O104     1.0000 0.12717  0.62717  0.32180  Biso   1.000  O
  O105     1.0000 0.60850  0.10850  0.80700  Biso   1.000  O
  O106     1.0000 0.39150  0.89150  0.80700  Biso   1.000  O
  O107     1.0000 0.89150  0.60850  0.80700  Biso   1.000  O
  O108     1.0000 0.10850  0.39150  0.80700  Biso   1.000  O
  O109     1.0000 0.60850  0.89150  0.30700  Biso   1.000  O
  O110     1.0000 0.39150  0.10850  0.30700  Biso   1.000  O
  O111     1.0000 0.89150  0.39150  0.30700  Biso   1.000  O
  O112     1.0000 0.10850  0.60850  0.30700  Biso   1.000  O
  N1       1.0000 0.56190  0.23570  0.08030  Biso   1.000  N
  N2       1.0000 0.43810  0.76430  0.08030  Biso   1.000  N
  N3       1.0000 0.76430  0.56190  0.08030  Biso   1.000  N
  N4       1.0000 0.23570  0.43810  0.08030  Biso   1.000  N
  N5       1.0000 0.56190  0.76430  0.58030  Biso   1.000  N
  N6       1.0000 0.43810  0.23570  0.58030  Biso   1.000  N
  N7       1.0000 0.76430  0.43810  0.58030  Biso   1.000  N
  N8       1.0000 0.23570  0.56190  0.58030  Biso   1.000  N
  N9       1.0000 0.06190  0.73570  0.58030  Biso   1.000  N
  N10      1.0000 0.93810  0.26430  0.58030  Biso   1.000  N
  N11      1.0000 0.26430  0.06190  0.58030  Biso   1.000  N
  N12      1.0000 0.73570  0.93810  0.58030  Biso   1.000  N
  N13      1.0000 0.06190  0.26430  0.08030  Biso   1.000  N
  N14      1.0000 0.93810  0.73570  0.08030  Biso   1.000  N
  N15      1.0000 0.26430  0.93810  0.08030  Biso   1.000  N
  N16      1.0000 0.73570  0.06190  0.08030  Biso   1.000  N
  N17      1.0000 0.57520  0.31890  0.97480  Biso   1.000  N
  N18      1.0000 0.42480  0.68110  0.97480  Biso   1.000  N
  N19      1.0000 0.68110  0.57520  0.97480  Biso   1.000  N
  N20      1.0000 0.31890  0.42480  0.97480  Biso   1.000  N
  N21      1.0000 0.57520  0.68110  0.47480  Biso   1.000  N
  N22      1.0000 0.42480  0.31890  0.47480  Biso   1.000  N
  N23      1.0000 0.68110  0.42480  0.47480  Biso   1.000  N
  N24      1.0000 0.31890  0.57520  0.47480  Biso   1.000  N
  N25      1.0000 0.07520  0.81890  0.47480  Biso   1.000  N
  N26      1.0000 0.92480  0.18110  0.47480  Biso   1.000  N
  N27      1.0000 0.18110  0.07520  0.47480  Biso   1.000  N
  N28      1.0000 0.81890  0.92480  0.47480  Biso   1.000  N
  N29      1.0000 0.07520  0.18110  0.97480  Biso   1.000  N
  N30      1.0000 0.92480  0.81890  0.97480  Biso   1.000  N
  N31      1.0000 0.18110  0.92480  0.97480  Biso   1.000  N
  N32      1.0000 0.81890  0.07520  0.97480  Biso   1.000  N
  C1       1.0000 0.55930  0.19280  0.13600  Biso   1.000  C
  C2       1.0000 0.44070  0.80720  0.13600  Biso   1.000  C
  C3       1.0000 0.80720  0.55930  0.13600  Biso   1.000  C
  C4       1.0000 0.19280  0.44070  0.13600  Biso   1.000  C
  C5       1.0000 0.55930  0.80720  0.63600  Biso   1.000  C
  C6       1.0000 0.44070  0.19280  0.63600  Biso   1.000  C
  C7       1.0000 0.80720  0.44070  0.63600  Biso   1.000  C
  C8       1.0000 0.19280  0.55930  0.63600  Biso   1.000  C
  C9       1.0000 0.05930  0.69280  0.63600  Biso   1.000  C
  C10      1.0000 0.94070  0.30720  0.63600  Biso   1.000  C
  C11      1.0000 0.30720  0.05930  0.63600  Biso   1.000  C
  C12      1.0000 0.69280  0.94070  0.63600  Biso   1.000  C
  C13      1.0000 0.05930  0.30720  0.13600  Biso   1.000  C
  C14      1.0000 0.94070  0.69280  0.13600  Biso   1.000  C
  C15      1.0000 0.30720  0.94070  0.13600  Biso   1.000  C
  C16      1.0000 0.69280  0.05930  0.13600  Biso   1.000  C
  H1       1.0000 0.58570  0.17680  0.15840  Biso   1.000  H
  H2       1.0000 0.41430  0.82320  0.15840  Biso   1.000  H
  H3       1.0000 0.82320  0.58570  0.15840  Biso   1.000  H
  H4       1.0000 0.17680  0.41430  0.15840  Biso   1.000  H
  H5       1.0000 0.58570  0.82320  0.65840  Biso   1.000  H
  H6       1.0000 0.41430  0.17680  0.65840  Biso   1.000  H
  H7       1.0000 0.82320  0.41430  0.65840  Biso   1.000  H
  H8       1.0000 0.17680  0.58570  0.65840  Biso   1.000  H
  H9       1.0000 0.08570  0.67680  0.65840  Biso   1.000  H
  H10      1.0000 0.91430  0.32320  0.65840  Biso   1.000  H
  H11      1.0000 0.32320  0.08570  0.65840  Biso   1.000  H
  H12      1.0000 0.67680  0.91430  0.65840  Biso   1.000  H
  H13      1.0000 0.08570  0.32320  0.15840  Biso   1.000  H
  H14      1.0000 0.91430  0.67680  0.15840  Biso   1.000  H
  H15      1.0000 0.32320  0.91430  0.15840  Biso   1.000  H
  H16      1.0000 0.67680  0.08570  0.15840  Biso   1.000  H
  C17      1.0000 0.51730  0.17110  0.16170  Biso   1.000  C
  C18      1.0000 0.48270  0.82890  0.16170  Biso   1.000  C
  C19      1.0000 0.82890  0.51730  0.16170  Biso   1.000  C
  C20      1.0000 0.17110  0.48270  0.16170  Biso   1.000  C
  C21      1.0000 0.51730  0.82890  0.66170  Biso   1.000  C
  C22      1.0000 0.48270  0.17110  0.66170  Biso   1.000  C
  C23      1.0000 0.82890  0.48270  0.66170  Biso   1.000  C
  C24      1.0000 0.17110  0.51730  0.66170  Biso   1.000  C
  C25      1.0000 0.01730  0.67110  0.66170  Biso   1.000  C
  C26      1.0000 0.98270  0.32890  0.66170  Biso   1.000  C
  C27      1.0000 0.32890  0.01730  0.66170  Biso   1.000  C
  C28      1.0000 0.67110  0.98270  0.66170  Biso   1.000  C
  C29      1.0000 0.01730  0.32890  0.16170  Biso   1.000  C
  C30      1.0000 0.98270  0.67110  0.16170  Biso   1.000  C
  C31      1.0000 0.32890  0.98270  0.16170  Biso   1.000  C
  C32      1.0000 0.67110  0.01730  0.16170  Biso   1.000  C
  H17      1.0000 0.51530  0.14090  0.19660  Biso   1.000  H
  H18      1.0000 0.48470  0.85910  0.19660  Biso   1.000  H
  H19      1.0000 0.85910  0.51530  0.19660  Biso   1.000  H
  H20      1.0000 0.14090  0.48470  0.19660  Biso   1.000  H
  H21      1.0000 0.51530  0.85910  0.69660  Biso   1.000  H
  H22      1.0000 0.48470  0.14090  0.69660  Biso   1.000  H
  H23      1.0000 0.85910  0.48470  0.69660  Biso   1.000  H
  H24      1.0000 0.14090  0.51530  0.69660  Biso   1.000  H
  H25      1.0000 0.01530  0.64090  0.69660  Biso   1.000  H
  H26      1.0000 0.98470  0.35910  0.69660  Biso   1.000  H
  H27      1.0000 0.35910  0.01530  0.69660  Biso   1.000  H
  H28      1.0000 0.64090  0.98470  0.69660  Biso   1.000  H
  H29      1.0000 0.01530  0.35910  0.19660  Biso   1.000  H
  H30      1.0000 0.98470  0.64090  0.19660  Biso   1.000  H
  H31      1.0000 0.35910  0.98470  0.19660  Biso   1.000  H
  H32      1.0000 0.64090  0.01530  0.19660  Biso   1.000  H
  C33      1.0000 0.47980  0.19670  0.13280  Biso   1.000  C
  C34      1.0000 0.52020  0.80330  0.13280  Biso   1.000  C
  C35      1.0000 0.80330  0.47980  0.13280  Biso   1.000  C
  C36      1.0000 0.19670  0.52020  0.13280  Biso   1.000  C
  C37      1.0000 0.47980  0.80330  0.63280  Biso   1.000  C
  C38      1.0000 0.52020  0.19670  0.63280  Biso   1.000  C
  C39      1.0000 0.80330  0.52020  0.63280  Biso   1.000  C
  C40      1.0000 0.19670  0.47980  0.63280  Biso   1.000  C
  C41      1.0000 0.97980  0.69670  0.63280  Biso   1.000  C
  C42      1.0000 0.02020  0.30330  0.63280  Biso   1.000  C
  C43      1.0000 0.30330  0.97980  0.63280  Biso   1.000  C
  C44      1.0000 0.69670  0.02020  0.63280  Biso   1.000  C
  C45      1.0000 0.97980  0.30330  0.13280  Biso   1.000  C
  C46      1.0000 0.02020  0.69670  0.13280  Biso   1.000  C
  C47      1.0000 0.30330  0.02020  0.13280  Biso   1.000  C
  C48      1.0000 0.69670  0.97980  0.13280  Biso   1.000  C
  H33      1.0000 0.45160  0.18370  0.15210  Biso   1.000  H
  H34      1.0000 0.54840  0.81630  0.15210  Biso   1.000  H
  H35      1.0000 0.81630  0.45160  0.15210  Biso   1.000  H
  H36      1.0000 0.18370  0.54840  0.15210  Biso   1.000  H
  H37      1.0000 0.45160  0.81630  0.65210  Biso   1.000  H
  H38      1.0000 0.54840  0.18370  0.65210  Biso   1.000  H
  H39      1.0000 0.81630  0.54840  0.65210  Biso   1.000  H
  H40      1.0000 0.18370  0.45160  0.65210  Biso   1.000  H
  H41      1.0000 0.95160  0.68370  0.65210  Biso   1.000  H
  H42      1.0000 0.04840  0.31630  0.65210  Biso   1.000  H
  H43      1.0000 0.31630  0.95160  0.65210  Biso   1.000  H
  H44      1.0000 0.68370  0.04840  0.65210  Biso   1.000  H
  H45      1.0000 0.95160  0.31630  0.15210  Biso   1.000  H
  H46      1.0000 0.04840  0.68370  0.15210  Biso   1.000  H
  H47      1.0000 0.31630  0.04840  0.15210  Biso   1.000  H
  H48      1.0000 0.68370  0.95160  0.15210  Biso   1.000  H
  C49      1.0000 0.48180  0.23990  0.07770  Biso   1.000  C
  C50      1.0000 0.51820  0.76010  0.07770  Biso   1.000  C
  C51      1.0000 0.76010  0.48180  0.07770  Biso   1.000  C
  C52      1.0000 0.23990  0.51820  0.07770  Biso   1.000  C
  C53      1.0000 0.48180  0.76010  0.57770  Biso   1.000  C
  C54      1.0000 0.51820  0.23990  0.57770  Biso   1.000  C
  C55      1.0000 0.76010  0.51820  0.57770  Biso   1.000  C
  C56      1.0000 0.23990  0.48180  0.57770  Biso   1.000  C
  C57      1.0000 0.98180  0.73990  0.57770  Biso   1.000  C
  C58      1.0000 0.01820  0.26010  0.57770  Biso   1.000  C
  C59      1.0000 0.26010  0.98180  0.57770  Biso   1.000  C
  C60      1.0000 0.73990  0.01820  0.57770  Biso   1.000  C
  C61      1.0000 0.98180  0.26010  0.07770  Biso   1.000  C
  C62      1.0000 0.01820  0.73990  0.07770  Biso   1.000  C
  C63      1.0000 0.26010  0.01820  0.07770  Biso   1.000  C
  C64      1.0000 0.73990  0.98180  0.07770  Biso   1.000  C
  H49      1.0000 0.45560  0.25670  0.05990  Biso   1.000  H
  H50      1.0000 0.54440  0.74330  0.05990  Biso   1.000  H
  H51      1.0000 0.74330  0.45560  0.05990  Biso   1.000  H
  H52      1.0000 0.25670  0.54440  0.05990  Biso   1.000  H
  H53      1.0000 0.45560  0.74330  0.55990  Biso   1.000  H
  H54      1.0000 0.54440  0.25670  0.55990  Biso   1.000  H
  H55      1.0000 0.74330  0.54440  0.55990  Biso   1.000  H
  H56      1.0000 0.25670  0.45560  0.55990  Biso   1.000  H
  H57      1.0000 0.95560  0.75670  0.55990  Biso   1.000  H
  H58      1.0000 0.04440  0.24330  0.55990  Biso   1.000  H
  H59      1.0000 0.24330  0.95560  0.55990  Biso   1.000  H
  H60      1.0000 0.75670  0.04440  0.55990  Biso   1.000  H
  H61      1.0000 0.95560  0.24330  0.05990  Biso   1.000  H
  H62      1.0000 0.04440  0.75670  0.05990  Biso   1.000  H
  H63      1.0000 0.24330  0.04440  0.05990  Biso   1.000  H
  H64      1.0000 0.75670  0.95560  0.05990  Biso   1.000  H
  C65      1.0000 0.52400  0.25880  0.04800  Biso   1.000  C
  C66      1.0000 0.47600  0.74120  0.04800  Biso   1.000  C
  C67      1.0000 0.74120  0.52400  0.04800  Biso   1.000  C
  C68      1.0000 0.25880  0.47600  0.04800  Biso   1.000  C
  C69      1.0000 0.52400  0.74120  0.54800  Biso   1.000  C
  C70      1.0000 0.47600  0.25880  0.54800  Biso   1.000  C
  C71      1.0000 0.74120  0.47600  0.54800  Biso   1.000  C
  C72      1.0000 0.25880  0.52400  0.54800  Biso   1.000  C
  C73      1.0000 0.02400  0.75880  0.54800  Biso   1.000  C
  C74      1.0000 0.97600  0.24120  0.54800  Biso   1.000  C
  C75      1.0000 0.24120  0.02400  0.54800  Biso   1.000  C
  C76      1.0000 0.75880  0.97600  0.54800  Biso   1.000  C
  C77      1.0000 0.02400  0.24120  0.04800  Biso   1.000  C
  C78      1.0000 0.97600  0.75880  0.04800  Biso   1.000  C
  C79      1.0000 0.24120  0.97600  0.04800  Biso   1.000  C
  C80      1.0000 0.75880  0.02400  0.04800  Biso   1.000  C
  C81      1.0000 0.53080  0.30610  0.98360  Biso   1.000  C
  C82      1.0000 0.46920  0.69390  0.98360  Biso   1.000  C
  C83      1.0000 0.69390  0.53080  0.98360  Biso   1.000  C
  C84      1.0000 0.30610  0.46920  0.98360  Biso   1.000  C
  C85      1.0000 0.53080  0.69390  0.48360  Biso   1.000  C
  C86      1.0000 0.46920  0.30610  0.48360  Biso   1.000  C
  C87      1.0000 0.69390  0.46920  0.48360  Biso   1.000  C
  C88      1.0000 0.30610  0.53080  0.48360  Biso   1.000  C
  C89      1.0000 0.03080  0.80610  0.48360  Biso   1.000  C
  C90      1.0000 0.96920  0.19390  0.48360  Biso   1.000  C
  C91      1.0000 0.19390  0.03080  0.48360  Biso   1.000  C
  C92      1.0000 0.80610  0.96920  0.48360  Biso   1.000  C
  C93      1.0000 0.03080  0.19390  0.98360  Biso   1.000  C
  C94      1.0000 0.96920  0.80610  0.98360  Biso   1.000  C
  C95      1.0000 0.19390  0.96920  0.98360  Biso   1.000  C
  C96      1.0000 0.80610  0.03080  0.98360  Biso   1.000  C
  C97      1.0000 0.49690  0.33600  0.93240  Biso   1.000  C
  C98      1.0000 0.50310  0.66400  0.93240  Biso   1.000  C
  C99      1.0000 0.66400  0.49690  0.93240  Biso   1.000  C
  C100     1.0000 0.33600  0.50310  0.93240  Biso   1.000  C
  C101     1.0000 0.49690  0.66400  0.43240  Biso   1.000  C
  C102     1.0000 0.50310  0.33600  0.43240  Biso   1.000  C
  C103     1.0000 0.66400  0.50310  0.43240  Biso   1.000  C
  C104     1.0000 0.33600  0.49690  0.43240  Biso   1.000  C
  C105     1.0000 0.99690  0.83600  0.43240  Biso   1.000  C
  C106     1.0000 0.00310  0.16400  0.43240  Biso   1.000  C
  C107     1.0000 0.16400  0.99690  0.43240  Biso   1.000  C
  C108     1.0000 0.83600  0.00310  0.43240  Biso   1.000  C
  C109     1.0000 0.99690  0.16400  0.93240  Biso   1.000  C
  C110     1.0000 0.00310  0.83600  0.93240  Biso   1.000  C
  C111     1.0000 0.16400  0.00310  0.93240  Biso   1.000  C
  C112     1.0000 0.83600  0.99690  0.93240  Biso   1.000  C
  H65      1.0000 0.46680  0.32740  0.94100  Biso   1.000  H
  H66      1.0000 0.53320  0.67260  0.94100  Biso   1.000  H
  H67      1.0000 0.67260  0.46680  0.94100  Biso   1.000  H
  H68      1.0000 0.32740  0.53320  0.94100  Biso   1.000  H
  H69      1.0000 0.46680  0.67260  0.44100  Biso   1.000  H
  H70      1.0000 0.53320  0.32740  0.44100  Biso   1.000  H
  H71      1.0000 0.67260  0.53320  0.44100  Biso   1.000  H
  H72      1.0000 0.32740  0.46680  0.44100  Biso   1.000  H
  H73      1.0000 0.96680  0.82740  0.44100  Biso   1.000  H
  H74      1.0000 0.03320  0.17260  0.44100  Biso   1.000  H
  H75      1.0000 0.17260  0.96680  0.44100  Biso   1.000  H
  H76      1.0000 0.82740  0.03320  0.44100  Biso   1.000  H
  H77      1.0000 0.96680  0.17260  0.94100  Biso   1.000  H
  H78      1.0000 0.03320  0.82740  0.94100  Biso   1.000  H
  H79      1.0000 0.17260  0.03320  0.94100  Biso   1.000  H
  H80      1.0000 0.82740  0.96680  0.94100  Biso   1.000  H
  C113     1.0000 0.50770  0.37700  0.87120  Biso   1.000  C
  C114     1.0000 0.49230  0.62300  0.87120  Biso   1.000  C
  C115     1.0000 0.62300  0.50770  0.87120  Biso   1.000  C
  C116     1.0000 0.37700  0.49230  0.87120  Biso   1.000  C
  C117     1.0000 0.50770  0.62300  0.37120  Biso   1.000  C
  C118     1.0000 0.49230  0.37700  0.37120  Biso   1.000  C
  C119     1.0000 0.62300  0.49230  0.37120  Biso   1.000  C
  C120     1.0000 0.37700  0.50770  0.37120  Biso   1.000  C
  C121     1.0000 0.00770  0.87700  0.37120  Biso   1.000  C
  C122     1.0000 0.99230  0.12300  0.37120  Biso   1.000  C
  C123     1.0000 0.12300  0.00770  0.37120  Biso   1.000  C
  C124     1.0000 0.87700  0.99230  0.37120  Biso   1.000  C
  C125     1.0000 0.00770  0.12300  0.87120  Biso   1.000  C
  C126     1.0000 0.99230  0.87700  0.87120  Biso   1.000  C
  C127     1.0000 0.12300  0.99230  0.87120  Biso   1.000  C
  C128     1.0000 0.87700  0.00770  0.87120  Biso   1.000  C
  H81      1.0000 0.48490  0.39710  0.83910  Biso   1.000  H
  H82      1.0000 0.51510  0.60290  0.83910  Biso   1.000  H
  H83      1.0000 0.60290  0.48490  0.83910  Biso   1.000  H
  H84      1.0000 0.39710  0.51510  0.83910  Biso   1.000  H
  H85      1.0000 0.48490  0.60290  0.33910  Biso   1.000  H
  H86      1.0000 0.51510  0.39710  0.33910  Biso   1.000  H
  H87      1.0000 0.60290  0.51510  0.33910  Biso   1.000  H
  H88      1.0000 0.39710  0.48490  0.33910  Biso   1.000  H
  H89      1.0000 0.98490  0.89710  0.33910  Biso   1.000  H
  H90      1.0000 0.01510  0.10290  0.33910  Biso   1.000  H
  H91      1.0000 0.10290  0.98490  0.33910  Biso   1.000  H
  H92      1.0000 0.89710  0.01510  0.33910  Biso   1.000  H
  H93      1.0000 0.98490  0.10290  0.83910  Biso   1.000  H
  H94      1.0000 0.01510  0.89710  0.83910  Biso   1.000  H
  H95      1.0000 0.10290  0.01510  0.83910  Biso   1.000  H
  H96      1.0000 0.89710  0.98490  0.83910  Biso   1.000  H
  C129     1.0000 0.55300  0.39040  0.85400  Biso   1.000  C
  C130     1.0000 0.44700  0.60960  0.85400  Biso   1.000  C
  C131     1.0000 0.60960  0.55300  0.85400  Biso   1.000  C
  C132     1.0000 0.39040  0.44700  0.85400  Biso   1.000  C
  C133     1.0000 0.55300  0.60960  0.35400  Biso   1.000  C
  C134     1.0000 0.44700  0.39040  0.35400  Biso   1.000  C
  C135     1.0000 0.60960  0.44700  0.35400  Biso   1.000  C
  C136     1.0000 0.39040  0.55300  0.35400  Biso   1.000  C
  C137     1.0000 0.05300  0.89040  0.35400  Biso   1.000  C
  C138     1.0000 0.94700  0.10960  0.35400  Biso   1.000  C
  C139     1.0000 0.10960  0.05300  0.35400  Biso   1.000  C
  C140     1.0000 0.89040  0.94700  0.35400  Biso   1.000  C
  C141     1.0000 0.05300  0.10960  0.85400  Biso   1.000  C
  C142     1.0000 0.94700  0.89040  0.85400  Biso   1.000  C
  C143     1.0000 0.10960  0.94700  0.85400  Biso   1.000  C
  C144     1.0000 0.89040  0.05300  0.85400  Biso   1.000  C
  H97      1.0000 0.56070  0.41870  0.80640  Biso   1.000  H
  H98      1.0000 0.43930  0.58130  0.80640  Biso   1.000  H
  H99      1.0000 0.58130  0.56070  0.80640  Biso   1.000  H
  H100     1.0000 0.41870  0.43930  0.80640  Biso   1.000  H
  H101     1.0000 0.56070  0.58130  0.30640  Biso   1.000  H
  H102     1.0000 0.43930  0.41870  0.30640  Biso   1.000  H
  H103     1.0000 0.58130  0.43930  0.30640  Biso   1.000  H
  H104     1.0000 0.41870  0.56070  0.30640  Biso   1.000  H
  H105     1.0000 0.06070  0.91870  0.30640  Biso   1.000  H
  H106     1.0000 0.93930  0.08130  0.30640  Biso   1.000  H
  H107     1.0000 0.08130  0.06070  0.30640  Biso   1.000  H
  H108     1.0000 0.91870  0.93930  0.30640  Biso   1.000  H
  H109     1.0000 0.06070  0.08130  0.80640  Biso   1.000  H
  H110     1.0000 0.93930  0.91870  0.80640  Biso   1.000  H
  H111     1.0000 0.08130  0.93930  0.80640  Biso   1.000  H
  H112     1.0000 0.91870  0.06070  0.80640  Biso   1.000  H
  C145     1.0000 0.58590  0.35980  0.91090  Biso   1.000  C
  C146     1.0000 0.41410  0.64020  0.91090  Biso   1.000  C
  C147     1.0000 0.64020  0.58590  0.91090  Biso   1.000  C
  C148     1.0000 0.35980  0.41410  0.91090  Biso   1.000  C
  C149     1.0000 0.58590  0.64020  0.41090  Biso   1.000  C
  C150     1.0000 0.41410  0.35980  0.41090  Biso   1.000  C
  C151     1.0000 0.64020  0.41410  0.41090  Biso   1.000  C
  C152     1.0000 0.35980  0.58590  0.41090  Biso   1.000  C
  C153     1.0000 0.08590  0.85980  0.41090  Biso   1.000  C
  C154     1.0000 0.91410  0.14020  0.41090  Biso   1.000  C
  C155     1.0000 0.14020  0.08590  0.41090  Biso   1.000  C
  C156     1.0000 0.85980  0.91410  0.41090  Biso   1.000  C
  C157     1.0000 0.08590  0.14020  0.91090  Biso   1.000  C
  C158     1.0000 0.91410  0.85980  0.91090  Biso   1.000  C
  C159     1.0000 0.14020  0.91410  0.91090  Biso   1.000  C
  C160     1.0000 0.85980  0.08590  0.91090  Biso   1.000  C
  H113     1.0000 0.61610  0.36810  0.90410  Biso   1.000  H
  H114     1.0000 0.38390  0.63190  0.90410  Biso   1.000  H
  H115     1.0000 0.63190  0.61610  0.90410  Biso   1.000  H
  H116     1.0000 0.36810  0.38390  0.90410  Biso   1.000  H
  H117     1.0000 0.61610  0.63190  0.40410  Biso   1.000  H
  H118     1.0000 0.38390  0.36810  0.40410  Biso   1.000  H
  H119     1.0000 0.63190  0.38390  0.40410  Biso   1.000  H
  H120     1.0000 0.36810  0.61610  0.40410  Biso   1.000  H
  H121     1.0000 0.11610  0.86810  0.40410  Biso   1.000  H
  H122     1.0000 0.88390  0.13190  0.40410  Biso   1.000  H
  H123     1.0000 0.13190  0.11610  0.40410  Biso   1.000  H
  H124     1.0000 0.86810  0.88390  0.40410  Biso   1.000  H
  H125     1.0000 0.11610  0.13190  0.90410  Biso   1.000  H
  H126     1.0000 0.88390  0.86810  0.90410  Biso   1.000  H
  H127     1.0000 0.13190  0.88390  0.90410  Biso   1.000  H
  H128     1.0000 0.86810  0.11610  0.90410  Biso   1.000  H
