data_image0
_cell_length_a       9.346
_cell_length_b       10.627
_cell_length_c       13.27
_cell_angle_alpha    108.791
_cell_angle_beta     93.295
_cell_angle_gamma    105.981

_symmetry_space_group_name_H-M    "P 1"
_symmetry_int_tables_number       1

loop_
  _symmetry_equiv_pos_as_xyz
  'x, y, z'

loop_
  _atom_site_label
  _atom_site_occupancy
  _atom_site_fract_x
  _atom_site_fract_y
  _atom_site_fract_z
  _atom_site_thermal_displace_type
  _atom_site_B_iso_or_equiv
  _atom_site_type_symbol
  Cu1      1.0000 0.50000  0.00000  0.00000  Biso   1.000  Cu
  O1       1.0000 0.29097  0.88237  0.93880  Biso   1.000  O
  O2       1.0000 0.70903  0.11763  0.06120  Biso   1.000  O
  O3       1.0000 0.38770  0.70850  0.90162  Biso   1.000  O
  O4       1.0000 0.61230  0.29150  0.09838  Biso   1.000  O
  O5       1.0000 0.74240  0.79620  0.92413  Biso   1.000  O
  O6       1.0000 0.25760  0.20380  0.07587  Biso   1.000  O
  O7       1.0000 0.59294  0.57808  0.88498  Biso   1.000  O
  O8       1.0000 0.40706  0.42192  0.11502  Biso   1.000  O
  H1       1.0000 0.52560  0.61730  0.89250  Biso   1.000  H
  H2       1.0000 0.47440  0.38270  0.10750  Biso   1.000  H
  O9       1.0000 0.93009  0.28570  0.85754  Biso   1.000  O
  O10      1.0000 0.06991  0.71430  0.14246  Biso   1.000  O
  N1       1.0000 0.46930  0.96858  0.13913  Biso   1.000  N
  N2       1.0000 0.53070  0.03142  0.86087  Biso   1.000  N
  N3       1.0000 0.33320  0.75913  0.42213  Biso   1.000  N
  N4       1.0000 0.66680  0.24087  0.57787  Biso   1.000  N
  N5       1.0000 0.27740  0.30990  0.48260  Biso   1.000  N
  N6       1.0000 0.72260  0.69010  0.51740  Biso   1.000  N
  C1       1.0000 0.46660  0.84100  0.25832  Biso   1.000  C
  C2       1.0000 0.53340  0.15900  0.74168  Biso   1.000  C
  H3       1.0000 0.49270  0.76860  0.27470  Biso   1.000  H
  H4       1.0000 0.50730  0.23140  0.72530  Biso   1.000  H
  C3       1.0000 0.50400  0.86870  0.16635  Biso   1.000  C
  C4       1.0000 0.49600  0.13130  0.83365  Biso   1.000  C
  H5       1.0000 0.55650  0.81450  0.12080  Biso   1.000  H
  H6       1.0000 0.44350  0.18550  0.87920  Biso   1.000  H
  C5       1.0000 0.40000  0.04640  0.20620  Biso   1.000  C
  C6       1.0000 0.60000  0.95360  0.79380  Biso   1.000  C
  H7       1.0000 0.37710  0.11950  0.18880  Biso   1.000  H
  H8       1.0000 0.62290  0.88050  0.81120  Biso   1.000  H
  C7       1.0000 0.36000  0.02590  0.29940  Biso   1.000  C
  C8       1.0000 0.64000  0.97410  0.70060  Biso   1.000  C
  H9       1.0000 0.31160  0.08460  0.34490  Biso   1.000  H
  H10      1.0000 0.68840  0.91540  0.65510  Biso   1.000  H
  C9       1.0000 0.39060  0.91970  0.32653  Biso   1.000  C
  C10      1.0000 0.60940  0.08030  0.67347  Biso   1.000  C
  C11      1.0000 0.33580  0.88560  0.42090  Biso   1.000  C
  C12      1.0000 0.66420  0.11440  0.57910  Biso   1.000  C
  C13      1.0000 0.28210  0.97690  0.49895  Biso   1.000  C
  C14      1.0000 0.71790  0.02310  0.50105  Biso   1.000  C
  H11      1.0000 0.29140  0.06750  0.49740  Biso   1.000  H
  H12      1.0000 0.70860  0.93250  0.50260  Biso   1.000  H
  C15      1.0000 0.21490  0.93600  0.57914  Biso   1.000  C
  C16      1.0000 0.78510  0.06400  0.42086  Biso   1.000  C
  C17      1.0000 0.21470  0.80590  0.58148  Biso   1.000  C
  C18      1.0000 0.78530  0.19410  0.41852  Biso   1.000  C
  H13      1.0000 0.17320  0.77420  0.63590  Biso   1.000  H
  H14      1.0000 0.82680  0.22580  0.36410  Biso   1.000  H
  C19      1.0000 0.27620  0.72220  0.50306  Biso   1.000  C
  C20      1.0000 0.72380  0.27780  0.49694  Biso   1.000  C
  C21      1.0000 0.27610  0.58060  0.49950  Biso   1.000  C
  C22      1.0000 0.72390  0.41940  0.50050  Biso   1.000  C
  C23      1.0000 0.31750  0.55180  0.58930  Biso   1.000  C
  C24      1.0000 0.68250  0.44820  0.41070  Biso   1.000  C
  H15      1.0000 0.34450  0.62270  0.65870  Biso   1.000  H
  H16      1.0000 0.65550  0.37730  0.34130  Biso   1.000  H
  C25      1.0000 0.31880  0.41680  0.57590  Biso   1.000  C
  C26      1.0000 0.68120  0.58320  0.42410  Biso   1.000  C
  H17      1.0000 0.35170  0.39970  0.63790  Biso   1.000  H
  H18      1.0000 0.64830  0.60030  0.36210  Biso   1.000  H
  C27      1.0000 0.23320  0.33840  0.39760  Biso   1.000  C
  C28      1.0000 0.76680  0.66160  0.60240  Biso   1.000  C
  H19      1.0000 0.19990  0.26370  0.33020  Biso   1.000  H
  H20      1.0000 0.80010  0.73630  0.66980  Biso   1.000  H
  C29      1.0000 0.23250  0.46970  0.40070  Biso   1.000  C
  C30      1.0000 0.76750  0.53030  0.59930  Biso   1.000  C
  H21      1.0000 0.20280  0.48410  0.33670  Biso   1.000  H
  H22      1.0000 0.79720  0.51590  0.66330  Biso   1.000  H
  C31      1.0000 0.14170  0.02740  0.65431  Biso   1.000  C
  C32      1.0000 0.85830  0.97260  0.34569  Biso   1.000  C
  C33      1.0000 0.09720  0.12730  0.62420  Biso   1.000  C
  C34      1.0000 0.90280  0.87270  0.37580  Biso   1.000  C
  H23      1.0000 0.11340  0.13470  0.55600  Biso   1.000  H
  H24      1.0000 0.88660  0.86530  0.44400  Biso   1.000  H
  C35      1.0000 0.03000  0.21570  0.69113  Biso   1.000  C
  C36      1.0000 0.97000  0.78430  0.30887  Biso   1.000  C
  H25      1.0000 0.00140  0.28310  0.66910  Biso   1.000  H
  H26      1.0000 0.99860  0.71690  0.33090  Biso   1.000  H
  C37      1.0000 0.00500  0.20520  0.78999  Biso   1.000  C
  C38      1.0000 0.99500  0.79480  0.21001  Biso   1.000  C
  C39      1.0000 0.04590  0.10600  0.82209  Biso   1.000  C
  C40      1.0000 0.95410  0.89400  0.17791  Biso   1.000  C
  H27      1.0000 0.02750  0.09840  0.88990  Biso   1.000  H
  H28      1.0000 0.97250  0.90160  0.11010  Biso   1.000  H
  C41      1.0000 0.11380  0.01810  0.75451  Biso   1.000  C
  C42      1.0000 0.88620  0.98190  0.24549  Biso   1.000  C
  H29      1.0000 0.14180  0.95060  0.77680  Biso   1.000  H
  H30      1.0000 0.85820  0.04940  0.22320  Biso   1.000  H
  C43      1.0000 0.95650  0.42410  0.86381  Biso   1.000  C
  C44      1.0000 0.04350  0.57590  0.13619  Biso   1.000  C
  C45      1.0000 0.09970  0.51200  0.87081  Biso   1.000  C
  C46      1.0000 0.90030  0.48800  0.12919  Biso   1.000  C
  H31      1.0000 0.18300  0.47650  0.86390  Biso   1.000  H
  H32      1.0000 0.81700  0.52350  0.13610  Biso   1.000  H
  C47      1.0000 0.12110  0.65330  0.88819  Biso   1.000  C
  C48      1.0000 0.87890  0.34670  0.11181  Biso   1.000  C
  C49      1.0000 0.99760  0.70360  0.89668  Biso   1.000  C
  C50      1.0000 0.00240  0.29640  0.10332  Biso   1.000  C
  H33      1.0000 0.01130  0.79930  0.90780  Biso   1.000  H
  H34      1.0000 0.98870  0.20070  0.09220  Biso   1.000  H
  C51      1.0000 0.85460  0.61370  0.88884  Biso   1.000  C
  C52      1.0000 0.14540  0.38630  0.11116  Biso   1.000  C
  C53      1.0000 0.83330  0.47290  0.87271  Biso   1.000  C
  C54      1.0000 0.16670  0.52710  0.12729  Biso   1.000  C
  H35      1.0000 0.73560  0.41150  0.86790  Biso   1.000  H
  H36      1.0000 0.26440  0.58850  0.13210  Biso   1.000  H
  C55      1.0000 0.27790  0.75310  0.90919  Biso   1.000  C
  C56      1.0000 0.72210  0.24690  0.09081  Biso   1.000  C
  C57      1.0000 0.72620  0.67300  0.90050  Biso   1.000  C
  C58      1.0000 0.27380  0.32700  0.09950  Biso   1.000  C
