data_image0
_cell_length_a       8.286
_cell_length_b       8.546
_cell_length_c       17.309
_cell_angle_alpha    90
_cell_angle_beta     90
_cell_angle_gamma    90

_symmetry_space_group_name_H-M    "P 1"
_symmetry_int_tables_number       1

loop_
  _symmetry_equiv_pos_as_xyz
  'x, y, z'

loop_
  _atom_site_label
  _atom_site_occupancy
  _atom_site_fract_x
  _atom_site_fract_y
  _atom_site_fract_z
  _atom_site_thermal_displace_type
  _atom_site_B_iso_or_equiv
  _atom_site_type_symbol
  Cu1      1.0000 0.02128  0.36659  0.37229  Biso   1.000  Cu
  Cu2      1.0000 0.47872  0.63341  0.87229  Biso   1.000  Cu
  Cu3      1.0000 0.97872  0.86659  0.12771  Biso   1.000  Cu
  Cu4      1.0000 0.52128  0.13341  0.62771  Biso   1.000  Cu
  N1       1.0000 0.16870  0.18740  0.35340  Biso   1.000  N
  N2       1.0000 0.33130  0.81260  0.85340  Biso   1.000  N
  N3       1.0000 0.83130  0.68740  0.14660  Biso   1.000  N
  N4       1.0000 0.66870  0.31260  0.64660  Biso   1.000  N
  N5       1.0000 0.87000  0.53640  0.39520  Biso   1.000  N
  N6       1.0000 0.63000  0.46360  0.89520  Biso   1.000  N
  N7       1.0000 0.13000  0.03640  0.10480  Biso   1.000  N
  N8       1.0000 0.37000  0.96360  0.60480  Biso   1.000  N
  N9       1.0000 0.64190  0.66370  0.40320  Biso   1.000  N
  N10      1.0000 0.85810  0.33630  0.90320  Biso   1.000  N
  N11      1.0000 0.35810  0.16370  0.09680  Biso   1.000  N
  N12      1.0000 0.14190  0.83630  0.59680  Biso   1.000  N
  O1       1.0000 0.18630  0.42770  0.44749  Biso   1.000  O
  O2       1.0000 0.31370  0.57230  0.94749  Biso   1.000  O
  O3       1.0000 0.81370  0.92770  0.05251  Biso   1.000  O
  O4       1.0000 0.68630  0.07230  0.55251  Biso   1.000  O
  O5       1.0000 0.38710  0.33060  0.51700  Biso   1.000  O
  O6       1.0000 0.11290  0.66940  0.01700  Biso   1.000  O
  O7       1.0000 0.61290  0.83060  0.98300  Biso   1.000  O
  O8       1.0000 0.88710  0.16940  0.48300  Biso   1.000  O
  O9       1.0000 0.87770  0.26300  0.29871  Biso   1.000  O
  O10      1.0000 0.62230  0.73700  0.79871  Biso   1.000  O
  O11      1.0000 0.12230  0.76300  0.20129  Biso   1.000  O
  O12      1.0000 0.37770  0.23700  0.70129  Biso   1.000  O
  O13      1.0000 0.85410  0.04040  0.23390  Biso   1.000  O
  O14      1.0000 0.64590  0.95960  0.73390  Biso   1.000  O
  O15      1.0000 0.14590  0.54040  0.26610  Biso   1.000  O
  O16      1.0000 0.35410  0.45960  0.76610  Biso   1.000  O
  C1       1.0000 0.29640  0.21830  0.29490  Biso   1.000  C
  C2       1.0000 0.20360  0.78170  0.79490  Biso   1.000  C
  C3       1.0000 0.70360  0.71830  0.20510  Biso   1.000  C
  C4       1.0000 0.79640  0.28170  0.70510  Biso   1.000  C
  C5       1.0000 0.42770  0.09820  0.31270  Biso   1.000  C
  C6       1.0000 0.07230  0.90180  0.81270  Biso   1.000  C
  C7       1.0000 0.57230  0.59820  0.18730  Biso   1.000  C
  C8       1.0000 0.92770  0.40180  0.68730  Biso   1.000  C
  C9       1.0000 0.42240  0.08380  0.40040  Biso   1.000  C
  C10      1.0000 0.07760  0.91620  0.90040  Biso   1.000  C
  C11      1.0000 0.57760  0.58380  0.09960  Biso   1.000  C
  C12      1.0000 0.92240  0.41620  0.59960  Biso   1.000  C
  C13      1.0000 0.26230  0.16020  0.42510  Biso   1.000  C
  C14      1.0000 0.23770  0.83980  0.92510  Biso   1.000  C
  C15      1.0000 0.73770  0.66020  0.07490  Biso   1.000  C
  C16      1.0000 0.76230  0.33980  0.57490  Biso   1.000  C
  C17      1.0000 0.28290  0.31740  0.46690  Biso   1.000  C
  C18      1.0000 0.21710  0.68260  0.96690  Biso   1.000  C
  C19      1.0000 0.71710  0.81740  0.03310  Biso   1.000  C
  C20      1.0000 0.78290  0.18260  0.53310  Biso   1.000  C
  C21      1.0000 0.06190  0.05770  0.32960  Biso   1.000  C
  C22      1.0000 0.43810  0.94230  0.82960  Biso   1.000  C
  C23      1.0000 0.93810  0.55770  0.17040  Biso   1.000  C
  C24      1.0000 0.56190  0.44230  0.67040  Biso   1.000  C
  C25      1.0000 0.92140  0.12380  0.28270  Biso   1.000  C
  C26      1.0000 0.57860  0.87620  0.78270  Biso   1.000  C
  C27      1.0000 0.07860  0.62380  0.21730  Biso   1.000  C
  C28      1.0000 0.42140  0.37620  0.71730  Biso   1.000  C
  C29      1.0000 0.71110  0.52700  0.38590  Biso   1.000  C
  C30      1.0000 0.78890  0.47300  0.88590  Biso   1.000  C
  C31      1.0000 0.28890  0.02700  0.11410  Biso   1.000  C
  C32      1.0000 0.21110  0.97300  0.61410  Biso   1.000  C
  C33      1.0000 0.76020  0.76740  0.42340  Biso   1.000  C
  C34      1.0000 0.73980  0.23260  0.92340  Biso   1.000  C
  C35      1.0000 0.23980  0.26740  0.07660  Biso   1.000  C
  C36      1.0000 0.26020  0.73260  0.57660  Biso   1.000  C
  C37      1.0000 0.90130  0.68680  0.41900  Biso   1.000  C
  C38      1.0000 0.59870  0.31320  0.91900  Biso   1.000  C
  C39      1.0000 0.09870  0.18680  0.08100  Biso   1.000  C
  C40      1.0000 0.40130  0.81320  0.58100  Biso   1.000  C
  O17      1.0000 0.31660  0.69580  0.38050  Biso   1.000  O
  O18      1.0000 0.18340  0.30420  0.88050  Biso   1.000  O
  O19      1.0000 0.68340  0.19580  0.11950  Biso   1.000  O
  O20      1.0000 0.81660  0.80420  0.61950  Biso   1.000  O
  H1       1.0000 0.34150  0.30410  0.29800  Biso   1.000  H
  H2       1.0000 0.15850  0.69590  0.79800  Biso   1.000  H
  H3       1.0000 0.65850  0.80410  0.20200  Biso   1.000  H
  H4       1.0000 0.84150  0.19590  0.70200  Biso   1.000  H
  H5       1.0000 0.25880  0.21240  0.24110  Biso   1.000  H
  H6       1.0000 0.24120  0.78760  0.74110  Biso   1.000  H
  H7       1.0000 0.74120  0.71240  0.25890  Biso   1.000  H
  H8       1.0000 0.75880  0.28760  0.75890  Biso   1.000  H
  H9       1.0000 0.39100  0.98750  0.29340  Biso   1.000  H
  H10      1.0000 0.10900  0.01250  0.79340  Biso   1.000  H
  H11      1.0000 0.60900  0.48750  0.20660  Biso   1.000  H
  H12      1.0000 0.89100  0.51250  0.70660  Biso   1.000  H
  H13      1.0000 0.52800  0.15030  0.30080  Biso   1.000  H
  H14      1.0000 0.97200  0.84970  0.80080  Biso   1.000  H
  H15      1.0000 0.47200  0.65030  0.19920  Biso   1.000  H
  H16      1.0000 0.02800  0.34970  0.69920  Biso   1.000  H
  H17      1.0000 0.50210  0.13640  0.41590  Biso   1.000  H
  H18      1.0000 0.99790  0.86360  0.91590  Biso   1.000  H
  H19      1.0000 0.49790  0.63640  0.08410  Biso   1.000  H
  H20      1.0000 0.00210  0.36360  0.58410  Biso   1.000  H
  H21      1.0000 0.42410  0.96720  0.41680  Biso   1.000  H
  H22      1.0000 0.07590  0.03280  0.91680  Biso   1.000  H
  H23      1.0000 0.57590  0.46720  0.08320  Biso   1.000  H
  H24      1.0000 0.92410  0.53280  0.58320  Biso   1.000  H
  H25      1.0000 0.20220  0.09510  0.45720  Biso   1.000  H
  H26      1.0000 0.29780  0.90490  0.95720  Biso   1.000  H
  H27      1.0000 0.79780  0.59510  0.04280  Biso   1.000  H
  H28      1.0000 0.70220  0.40490  0.54280  Biso   1.000  H
  H29      1.0000 0.02920  0.00530  0.37510  Biso   1.000  H
  H30      1.0000 0.47080  0.99470  0.87510  Biso   1.000  H
  H31      1.0000 0.97080  0.50530  0.12490  Biso   1.000  H
  H32      1.0000 0.52920  0.49470  0.62490  Biso   1.000  H
  H33      1.0000 0.11180  0.96680  0.30170  Biso   1.000  H
  H34      1.0000 0.38820  0.03320  0.80170  Biso   1.000  H
  H35      1.0000 0.88820  0.46680  0.19830  Biso   1.000  H
  H36      1.0000 0.61180  0.53320  0.69830  Biso   1.000  H
  H37      1.0000 0.65520  0.45040  0.36310  Biso   1.000  H
  H38      1.0000 0.84480  0.54960  0.86310  Biso   1.000  H
  H39      1.0000 0.34480  0.95040  0.13690  Biso   1.000  H
  H40      1.0000 0.15520  0.04960  0.63690  Biso   1.000  H
  H41      1.0000 0.72700  0.88390  0.42970  Biso   1.000  H
  H42      1.0000 0.77300  0.11610  0.92970  Biso   1.000  H
  H43      1.0000 0.27300  0.38390  0.07030  Biso   1.000  H
  H44      1.0000 0.22700  0.61610  0.57030  Biso   1.000  H
  H45      1.0000 0.00310  0.71890  0.42470  Biso   1.000  H
  H46      1.0000 0.49690  0.28110  0.92470  Biso   1.000  H
  H47      1.0000 0.99690  0.21890  0.07530  Biso   1.000  H
  H48      1.0000 0.50310  0.78110  0.57530  Biso   1.000  H
  H49      1.0000 0.27800  0.61050  0.41360  Biso   1.000  H
  H50      1.0000 0.22200  0.38950  0.91360  Biso   1.000  H
  H51      1.0000 0.72200  0.11050  0.08640  Biso   1.000  H
  H52      1.0000 0.77800  0.88950  0.58640  Biso   1.000  H
  H53      1.0000 0.29680  0.63640  0.33770  Biso   1.000  H
  H54      1.0000 0.20320  0.36360  0.83770  Biso   1.000  H
  H55      1.0000 0.70320  0.13640  0.16230  Biso   1.000  H
  H56      1.0000 0.79680  0.86360  0.66230  Biso   1.000  H
  H57      1.0000 0.54150  0.68370  0.39200  Biso   1.000  H
  H58      1.0000 0.95850  0.31630  0.89200  Biso   1.000  H
  H59      1.0000 0.45850  0.18370  0.10800  Biso   1.000  H
  H60      1.0000 0.04150  0.81630  0.60800  Biso   1.000  H
