data_image0
_cell_length_a       8.303
_cell_length_b       8.566
_cell_length_c       17.355
_cell_angle_alpha    90
_cell_angle_beta     90
_cell_angle_gamma    90

_symmetry_space_group_name_H-M    "P 1"
_symmetry_int_tables_number       1

loop_
  _symmetry_equiv_pos_as_xyz
  'x, y, z'

loop_
  _atom_site_label
  _atom_site_occupancy
  _atom_site_fract_x
  _atom_site_fract_y
  _atom_site_fract_z
  _atom_site_thermal_displace_type
  _atom_site_B_iso_or_equiv
  _atom_site_type_symbol
  Cu1      1.0000 0.52136  0.86647  0.37227  Biso   1.000  Cu
  Cu2      1.0000 0.97864  0.13353  0.87227  Biso   1.000  Cu
  Cu3      1.0000 0.02136  0.63353  0.62773  Biso   1.000  Cu
  Cu4      1.0000 0.47864  0.36647  0.12773  Biso   1.000  Cu
  C1       1.0000 0.78320  0.81700  0.46660  Biso   1.000  C
  C2       1.0000 0.71680  0.18300  0.96660  Biso   1.000  C
  C3       1.0000 0.28320  0.68300  0.53340  Biso   1.000  C
  C4       1.0000 0.21680  0.31700  0.03340  Biso   1.000  C
  C5       1.0000 0.76230  0.65970  0.42532  Biso   1.000  C
  C6       1.0000 0.73770  0.34030  0.92532  Biso   1.000  C
  C7       1.0000 0.26230  0.84030  0.57468  Biso   1.000  C
  C8       1.0000 0.23770  0.15970  0.07468  Biso   1.000  C
  H1       1.0000 0.70200  0.58580  0.45930  Biso   1.000  H
  H2       1.0000 0.79800  0.41420  0.95930  Biso   1.000  H
  H3       1.0000 0.20200  0.91420  0.54070  Biso   1.000  H
  H4       1.0000 0.29800  0.08580  0.04070  Biso   1.000  H
  C9       1.0000 0.92290  0.58570  0.40074  Biso   1.000  C
  C10      1.0000 0.57710  0.41430  0.90074  Biso   1.000  C
  C11      1.0000 0.42290  0.91430  0.59926  Biso   1.000  C
  C12      1.0000 0.07710  0.08570  0.09926  Biso   1.000  C
  H5       1.0000 0.01480  0.64210  0.42420  Biso   1.000  H
  H6       1.0000 0.48520  0.35790  0.92420  Biso   1.000  H
  H7       1.0000 0.51480  0.85790  0.57580  Biso   1.000  H
  H8       1.0000 0.98520  0.14210  0.07580  Biso   1.000  H
  H9       1.0000 0.92770  0.47490  0.41670  Biso   1.000  H
  H10      1.0000 0.57230  0.52510  0.91670  Biso   1.000  H
  H11      1.0000 0.42770  0.02510  0.58330  Biso   1.000  H
  H12      1.0000 0.07230  0.97490  0.08330  Biso   1.000  H
  C13      1.0000 0.92730  0.59960  0.31257  Biso   1.000  C
  C14      1.0000 0.57270  0.40040  0.81257  Biso   1.000  C
  C15      1.0000 0.42730  0.90040  0.68743  Biso   1.000  C
  C16      1.0000 0.07270  0.09960  0.18743  Biso   1.000  C
  H13      1.0000 0.03370  0.63710  0.29460  Biso   1.000  H
  H14      1.0000 0.46630  0.36290  0.79460  Biso   1.000  H
  H15      1.0000 0.53370  0.86290  0.70540  Biso   1.000  H
  H16      1.0000 0.96630  0.13710  0.20540  Biso   1.000  H
  H17      1.0000 0.90350  0.49810  0.28780  Biso   1.000  H
  H18      1.0000 0.59650  0.50190  0.78780  Biso   1.000  H
  H19      1.0000 0.40350  0.00190  0.71220  Biso   1.000  H
  H20      1.0000 0.09650  0.99810  0.21220  Biso   1.000  H
  C17      1.0000 0.79600  0.71860  0.29515  Biso   1.000  C
  C18      1.0000 0.70400  0.28140  0.79515  Biso   1.000  C
  C19      1.0000 0.29600  0.78140  0.70485  Biso   1.000  C
  C20      1.0000 0.20400  0.21860  0.20485  Biso   1.000  C
  H21      1.0000 0.83790  0.82640  0.30020  Biso   1.000  H
  H22      1.0000 0.66210  0.17360  0.80020  Biso   1.000  H
  H23      1.0000 0.33790  0.67360  0.69980  Biso   1.000  H
  H24      1.0000 0.16210  0.32640  0.19980  Biso   1.000  H
  H25      1.0000 0.75360  0.70420  0.24230  Biso   1.000  H
  H26      1.0000 0.74640  0.29580  0.74230  Biso   1.000  H
  H27      1.0000 0.25360  0.79580  0.75770  Biso   1.000  H
  H28      1.0000 0.24640  0.20420  0.25770  Biso   1.000  H
  C21      1.0000 0.56240  0.55750  0.32940  Biso   1.000  C
  C22      1.0000 0.93760  0.44250  0.82940  Biso   1.000  C
  C23      1.0000 0.06240  0.94250  0.67060  Biso   1.000  C
  C24      1.0000 0.43760  0.05750  0.17060  Biso   1.000  C
  H29      1.0000 0.52180  0.50170  0.37540  Biso   1.000  H
  H30      1.0000 0.97820  0.49830  0.87540  Biso   1.000  H
  H31      1.0000 0.02180  0.99830  0.62460  Biso   1.000  H
  H32      1.0000 0.47820  0.00170  0.12460  Biso   1.000  H
  H33      1.0000 0.62370  0.48240  0.29750  Biso   1.000  H
  H34      1.0000 0.87630  0.51760  0.79750  Biso   1.000  H
  H35      1.0000 0.12370  0.01760  0.70250  Biso   1.000  H
  H36      1.0000 0.37630  0.98240  0.20250  Biso   1.000  H
  C25      1.0000 0.42090  0.62300  0.28313  Biso   1.000  C
  C26      1.0000 0.07910  0.37700  0.78313  Biso   1.000  C
  C27      1.0000 0.92090  0.87700  0.71687  Biso   1.000  C
  C28      1.0000 0.57910  0.12300  0.21687  Biso   1.000  C
  C29      1.0000 0.21090  0.02720  0.38655  Biso   1.000  C
  C30      1.0000 0.28910  0.97280  0.88655  Biso   1.000  C
  C31      1.0000 0.71090  0.47280  0.61345  Biso   1.000  C
  C32      1.0000 0.78910  0.52720  0.11345  Biso   1.000  C
  H37      1.0000 0.15430  0.93630  0.37070  Biso   1.000  H
  H38      1.0000 0.34570  0.06370  0.87070  Biso   1.000  H
  H39      1.0000 0.65430  0.56370  0.62930  Biso   1.000  H
  H40      1.0000 0.84570  0.43630  0.12930  Biso   1.000  H
  C33      1.0000 0.40040  0.18610  0.41889  Biso   1.000  C
  C34      1.0000 0.09960  0.81390  0.91889  Biso   1.000  C
  C35      1.0000 0.90040  0.31390  0.58111  Biso   1.000  C
  C36      1.0000 0.59960  0.68610  0.08111  Biso   1.000  C
  H41      1.0000 0.50400  0.22750  0.42990  Biso   1.000  H
  H42      1.0000 0.99600  0.77250  0.92990  Biso   1.000  H
  H43      1.0000 0.00400  0.27250  0.57010  Biso   1.000  H
  H44      1.0000 0.49600  0.72750  0.07010  Biso   1.000  H
  C37      1.0000 0.26020  0.26590  0.42391  Biso   1.000  C
  C38      1.0000 0.23980  0.73410  0.92391  Biso   1.000  C
  C39      1.0000 0.76020  0.23410  0.57609  Biso   1.000  C
  C40      1.0000 0.73980  0.76590  0.07609  Biso   1.000  C
  H45      1.0000 0.24680  0.37170  0.43900  Biso   1.000  H
  H46      1.0000 0.25320  0.62830  0.93900  Biso   1.000  H
  H47      1.0000 0.74680  0.12830  0.56100  Biso   1.000  H
  H48      1.0000 0.75320  0.87170  0.06100  Biso   1.000  H
  N1       1.0000 0.66890  0.68790  0.35338  Biso   1.000  N
  N2       1.0000 0.83110  0.31210  0.85338  Biso   1.000  N
  N3       1.0000 0.16890  0.81210  0.64662  Biso   1.000  N
  N4       1.0000 0.33110  0.18790  0.14662  Biso   1.000  N
  N5       1.0000 0.36980  0.03590  0.39540  Biso   1.000  N
  N6       1.0000 0.13020  0.96410  0.89540  Biso   1.000  N
  N7       1.0000 0.86980  0.46410  0.60460  Biso   1.000  N
  N8       1.0000 0.63020  0.53590  0.10460  Biso   1.000  N
  N9       1.0000 0.14220  0.16400  0.40303  Biso   1.000  N
  N10      1.0000 0.35780  0.83600  0.90303  Biso   1.000  N
  N11      1.0000 0.64220  0.33600  0.59697  Biso   1.000  N
  N12      1.0000 0.85780  0.66400  0.09697  Biso   1.000  N
  H49      1.0000 0.02260  0.16830  0.39490  Biso   1.000  H
  H50      1.0000 0.47740  0.83170  0.89490  Biso   1.000  H
  H51      1.0000 0.52260  0.33170  0.60510  Biso   1.000  H
  H52      1.0000 0.97740  0.66830  0.10510  Biso   1.000  H
  O1       1.0000 0.37730  0.76305  0.29938  Biso   1.000  O
  O2       1.0000 0.12270  0.23695  0.79938  Biso   1.000  O
  O3       1.0000 0.87730  0.73695  0.70062  Biso   1.000  O
  O4       1.0000 0.62270  0.26305  0.20062  Biso   1.000  O
  O5       1.0000 0.35430  0.54056  0.23390  Biso   1.000  O
  O6       1.0000 0.14570  0.45944  0.73390  Biso   1.000  O
  O7       1.0000 0.85430  0.95944  0.76610  Biso   1.000  O
  O8       1.0000 0.64570  0.04056  0.26610  Biso   1.000  O
  O9       1.0000 0.68553  0.92761  0.44753  Biso   1.000  O
  O10      1.0000 0.81447  0.07239  0.94753  Biso   1.000  O
  O11      1.0000 0.18553  0.57239  0.55247  Biso   1.000  O
  O12      1.0000 0.31447  0.42761  0.05247  Biso   1.000  O
  O13      1.0000 0.88750  0.83200  0.51668  Biso   1.000  O
  O14      1.0000 0.61250  0.16800  0.01668  Biso   1.000  O
  O15      1.0000 0.38750  0.66800  0.48332  Biso   1.000  O
  O16      1.0000 0.11250  0.33200  0.98332  Biso   1.000  O
  O17      1.0000 0.81650  0.19550  0.38036  Biso   1.000  O
  O18      1.0000 0.68350  0.80450  0.88036  Biso   1.000  O
  O19      1.0000 0.31650  0.30450  0.61964  Biso   1.000  O
  O20      1.0000 0.18350  0.69550  0.11964  Biso   1.000  O
  H53      1.0000 0.79780  0.15080  0.33110  Biso   1.000  H
  H54      1.0000 0.70220  0.84920  0.83110  Biso   1.000  H
  H55      1.0000 0.29780  0.34920  0.66890  Biso   1.000  H
  H56      1.0000 0.20220  0.65080  0.16890  Biso   1.000  H
  H57      1.0000 0.78380  0.13110  0.41370  Biso   1.000  H
  H58      1.0000 0.71620  0.86890  0.91370  Biso   1.000  H
  H59      1.0000 0.28380  0.36890  0.58630  Biso   1.000  H
  H60      1.0000 0.21620  0.63110  0.08630  Biso   1.000  H
