data_image0
_cell_length_a       20.856
_cell_length_b       17.255
_cell_length_c       19.009
_cell_angle_alpha    90
_cell_angle_beta     95.94
_cell_angle_gamma    90

_symmetry_space_group_name_H-M    "P 1"
_symmetry_int_tables_number       1

loop_
  _symmetry_equiv_pos_as_xyz
  'x, y, z'

loop_
  _atom_site_label
  _atom_site_occupancy
  _atom_site_fract_x
  _atom_site_fract_y
  _atom_site_fract_z
  _atom_site_thermal_displace_type
  _atom_site_B_iso_or_equiv
  _atom_site_type_symbol
  Mo1      1.0000 0.34532  0.74237  0.07555  Biso   1.000  Mo
  Mo2      1.0000 0.65468  0.74237  0.42445  Biso   1.000  Mo
  Mo3      1.0000 0.84532  0.24237  0.07555  Biso   1.000  Mo
  Mo4      1.0000 0.15468  0.24237  0.42445  Biso   1.000  Mo
  Mo5      1.0000 0.65468  0.25763  0.92445  Biso   1.000  Mo
  Mo6      1.0000 0.34532  0.25763  0.57555  Biso   1.000  Mo
  Mo7      1.0000 0.15468  0.75763  0.92445  Biso   1.000  Mo
  Mo8      1.0000 0.84532  0.75763  0.57555  Biso   1.000  Mo
  Mo9      1.0000 0.23678  0.61782  0.00903  Biso   1.000  Mo
  Mo10     1.0000 0.76322  0.61782  0.49097  Biso   1.000  Mo
  Mo11     1.0000 0.73678  0.11782  0.00903  Biso   1.000  Mo
  Mo12     1.0000 0.26322  0.11782  0.49097  Biso   1.000  Mo
  Mo13     1.0000 0.76322  0.38218  0.99097  Biso   1.000  Mo
  Mo14     1.0000 0.23678  0.38218  0.50903  Biso   1.000  Mo
  Mo15     1.0000 0.26322  0.88218  0.99097  Biso   1.000  Mo
  Mo16     1.0000 0.73678  0.88218  0.50903  Biso   1.000  Mo
  Mo17     1.0000 0.19280  0.76836  0.09685  Biso   1.000  Mo
  Mo18     1.0000 0.80720  0.76836  0.40315  Biso   1.000  Mo
  Mo19     1.0000 0.69280  0.26836  0.09685  Biso   1.000  Mo
  Mo20     1.0000 0.30720  0.26836  0.40315  Biso   1.000  Mo
  Mo21     1.0000 0.80720  0.23164  0.90315  Biso   1.000  Mo
  Mo22     1.0000 0.19280  0.23164  0.59685  Biso   1.000  Mo
  Mo23     1.0000 0.30720  0.73164  0.90315  Biso   1.000  Mo
  Mo24     1.0000 0.69280  0.73164  0.59685  Biso   1.000  Mo
  O1       1.0000 0.22700  0.52210  0.01810  Biso   1.000  O
  O2       1.0000 0.77300  0.52210  0.48190  Biso   1.000  O
  O3       1.0000 0.72700  0.02210  0.01810  Biso   1.000  O
  O4       1.0000 0.27300  0.02210  0.48190  Biso   1.000  O
  O5       1.0000 0.77300  0.47790  0.98190  Biso   1.000  O
  O6       1.0000 0.22700  0.47790  0.51810  Biso   1.000  O
  O7       1.0000 0.27300  0.97790  0.98190  Biso   1.000  O
  O8       1.0000 0.72700  0.97790  0.51810  Biso   1.000  O
  O9       1.0000 0.25000  0.75000  0.00000  Biso   1.000  O
  O10      1.0000 0.75000  0.75000  0.50000  Biso   1.000  O
  O11      1.0000 0.75000  0.25000  0.00000  Biso   1.000  O
  O12      1.0000 0.25000  0.25000  0.50000  Biso   1.000  O
  O13      1.0000 0.14970  0.78470  0.16520  Biso   1.000  O
  O14      1.0000 0.85030  0.78470  0.33480  Biso   1.000  O
  O15      1.0000 0.64970  0.28470  0.16520  Biso   1.000  O
  O16      1.0000 0.35030  0.28470  0.33480  Biso   1.000  O
  O17      1.0000 0.85030  0.21530  0.83480  Biso   1.000  O
  O18      1.0000 0.14970  0.21530  0.66520  Biso   1.000  O
  O19      1.0000 0.35030  0.71530  0.83480  Biso   1.000  O
  O20      1.0000 0.64970  0.71530  0.66520  Biso   1.000  O
  O21      1.0000 0.41420  0.73770  0.13130  Biso   1.000  O
  O22      1.0000 0.58580  0.73770  0.36870  Biso   1.000  O
  O23      1.0000 0.91420  0.23770  0.13130  Biso   1.000  O
  O24      1.0000 0.08580  0.23770  0.36870  Biso   1.000  O
  O25      1.0000 0.58580  0.26230  0.86870  Biso   1.000  O
  O26      1.0000 0.41420  0.26230  0.63130  Biso   1.000  O
  O27      1.0000 0.08580  0.76230  0.86870  Biso   1.000  O
  O28      1.0000 0.91420  0.76230  0.63130  Biso   1.000  O
  O29      1.0000 0.28870  0.62690  0.93300  Biso   1.000  O
  O30      1.0000 0.71130  0.62690  0.56700  Biso   1.000  O
  O31      1.0000 0.78870  0.12690  0.93300  Biso   1.000  O
  O32      1.0000 0.21130  0.12690  0.56700  Biso   1.000  O
  O33      1.0000 0.71130  0.37310  0.06700  Biso   1.000  O
  O34      1.0000 0.28870  0.37310  0.43300  Biso   1.000  O
  O35      1.0000 0.21130  0.87310  0.06700  Biso   1.000  O
  O36      1.0000 0.78870  0.87310  0.43300  Biso   1.000  O
  O37      1.0000 0.37300  0.72750  0.98520  Biso   1.000  O
  O38      1.0000 0.62700  0.72750  0.51480  Biso   1.000  O
  O39      1.0000 0.87300  0.22750  0.98520  Biso   1.000  O
  O40      1.0000 0.12700  0.22750  0.51480  Biso   1.000  O
  O41      1.0000 0.62700  0.27250  0.01480  Biso   1.000  O
  O42      1.0000 0.37300  0.27250  0.48520  Biso   1.000  O
  O43      1.0000 0.12700  0.77250  0.01480  Biso   1.000  O
  O44      1.0000 0.87300  0.77250  0.48520  Biso   1.000  O
  O45      1.0000 0.19080  0.65940  0.08430  Biso   1.000  O
  O46      1.0000 0.80920  0.65940  0.41570  Biso   1.000  O
  O47      1.0000 0.69080  0.15940  0.08430  Biso   1.000  O
  O48      1.0000 0.30920  0.15940  0.41570  Biso   1.000  O
  O49      1.0000 0.80920  0.34060  0.91570  Biso   1.000  O
  O50      1.0000 0.19080  0.34060  0.58430  Biso   1.000  O
  O51      1.0000 0.30920  0.84060  0.91570  Biso   1.000  O
  O52      1.0000 0.69080  0.84060  0.58430  Biso   1.000  O
  O53      1.0000 0.27850  0.76160  0.13870  Biso   1.000  O
  O54      1.0000 0.72150  0.76160  0.36130  Biso   1.000  O
  O55      1.0000 0.77850  0.26160  0.13870  Biso   1.000  O
  O56      1.0000 0.22150  0.26160  0.36130  Biso   1.000  O
  O57      1.0000 0.72150  0.23840  0.86130  Biso   1.000  O
  O58      1.0000 0.27850  0.23840  0.63870  Biso   1.000  O
  O59      1.0000 0.22150  0.73840  0.86130  Biso   1.000  O
  O60      1.0000 0.77850  0.73840  0.63870  Biso   1.000  O
  O61      1.0000 0.33570  0.85170  0.05480  Biso   1.000  O
  O62      1.0000 0.66430  0.85170  0.44520  Biso   1.000  O
  O63      1.0000 0.83570  0.35170  0.05480  Biso   1.000  O
  O64      1.0000 0.16430  0.35170  0.44520  Biso   1.000  O
  O65      1.0000 0.66430  0.14830  0.94520  Biso   1.000  O
  O66      1.0000 0.33570  0.14830  0.55480  Biso   1.000  O
  O67      1.0000 0.16430  0.64830  0.94520  Biso   1.000  O
  O68      1.0000 0.83570  0.64830  0.55480  Biso   1.000  O
  O69      1.0000 0.31430  0.63870  0.07200  Biso   1.000  O
  O70      1.0000 0.68570  0.63870  0.42800  Biso   1.000  O
  O71      1.0000 0.81430  0.13870  0.07200  Biso   1.000  O
  O72      1.0000 0.18570  0.13870  0.42800  Biso   1.000  O
  O73      1.0000 0.68570  0.36130  0.92800  Biso   1.000  O
  O74      1.0000 0.31430  0.36130  0.57200  Biso   1.000  O
  O75      1.0000 0.18570  0.86130  0.92800  Biso   1.000  O
  O76      1.0000 0.81430  0.86130  0.57200  Biso   1.000  O
  Cu1      1.0000 0.50000  0.74283  0.25000  Biso   1.000  Cu
  Cu2      1.0000 0.00000  0.24283  0.25000  Biso   1.000  Cu
  Cu3      1.0000 0.50000  0.25717  0.75000  Biso   1.000  Cu
  Cu4      1.0000 0.00000  0.75717  0.75000  Biso   1.000  Cu
  N1       1.0000 0.44050  0.66030  0.27940  Biso   1.000  N
  N2       1.0000 0.55950  0.66030  0.22060  Biso   1.000  N
  N3       1.0000 0.94050  0.16030  0.27940  Biso   1.000  N
  N4       1.0000 0.05950  0.16030  0.22060  Biso   1.000  N
  N5       1.0000 0.55950  0.33970  0.72060  Biso   1.000  N
  N6       1.0000 0.44050  0.33970  0.77940  Biso   1.000  N
  N7       1.0000 0.05950  0.83970  0.72060  Biso   1.000  N
  N8       1.0000 0.94050  0.83970  0.77940  Biso   1.000  N
  N9       1.0000 0.42610  0.66350  0.34530  Biso   1.000  N
  N10      1.0000 0.57390  0.66350  0.15470  Biso   1.000  N
  N11      1.0000 0.92610  0.16350  0.34530  Biso   1.000  N
  N12      1.0000 0.07390  0.16350  0.15470  Biso   1.000  N
  N13      1.0000 0.57390  0.33650  0.65470  Biso   1.000  N
  N14      1.0000 0.42610  0.33650  0.84530  Biso   1.000  N
  N15      1.0000 0.07390  0.83650  0.65470  Biso   1.000  N
  N16      1.0000 0.92610  0.83650  0.84530  Biso   1.000  N
  N17      1.0000 0.40090  0.59600  0.36060  Biso   1.000  N
  N18      1.0000 0.59910  0.59600  0.13940  Biso   1.000  N
  N19      1.0000 0.90090  0.09600  0.36060  Biso   1.000  N
  N20      1.0000 0.09910  0.09600  0.13940  Biso   1.000  N
  N21      1.0000 0.59910  0.40400  0.63940  Biso   1.000  N
  N22      1.0000 0.40090  0.40400  0.86060  Biso   1.000  N
  N23      1.0000 0.09910  0.90400  0.63940  Biso   1.000  N
  N24      1.0000 0.90090  0.90400  0.86060  Biso   1.000  N
  N25      1.0000 0.44830  0.82420  0.29180  Biso   1.000  N
  N26      1.0000 0.55170  0.82420  0.20820  Biso   1.000  N
  N27      1.0000 0.94830  0.32420  0.29180  Biso   1.000  N
  N28      1.0000 0.05170  0.32420  0.20820  Biso   1.000  N
  N29      1.0000 0.55170  0.17580  0.70820  Biso   1.000  N
  N30      1.0000 0.44830  0.17580  0.79180  Biso   1.000  N
  N31      1.0000 0.05170  0.67580  0.70820  Biso   1.000  N
  N32      1.0000 0.94830  0.67580  0.79180  Biso   1.000  N
  N33      1.0000 0.38550  0.82310  0.27870  Biso   1.000  N
  N34      1.0000 0.61450  0.82310  0.22130  Biso   1.000  N
  N35      1.0000 0.88550  0.32310  0.27870  Biso   1.000  N
  N36      1.0000 0.11450  0.32310  0.22130  Biso   1.000  N
  N37      1.0000 0.61450  0.17690  0.72130  Biso   1.000  N
  N38      1.0000 0.38550  0.17690  0.77870  Biso   1.000  N
  N39      1.0000 0.11450  0.67690  0.72130  Biso   1.000  N
  N40      1.0000 0.88550  0.67690  0.77870  Biso   1.000  N
  N41      1.0000 0.36180  0.88500  0.30880  Biso   1.000  N
  N42      1.0000 0.63820  0.88500  0.19120  Biso   1.000  N
  N43      1.0000 0.86180  0.38500  0.30880  Biso   1.000  N
  N44      1.0000 0.13820  0.38500  0.19120  Biso   1.000  N
  N45      1.0000 0.63820  0.11500  0.69120  Biso   1.000  N
  N46      1.0000 0.36180  0.11500  0.80880  Biso   1.000  N
  N47      1.0000 0.13820  0.61500  0.69120  Biso   1.000  N
  N48      1.0000 0.86180  0.61500  0.80880  Biso   1.000  N
  N49      1.0000 0.30090  0.19440  0.08430  Biso   1.000  N
  N50      1.0000 0.69910  0.19440  0.41570  Biso   1.000  N
  N51      1.0000 0.80090  0.69440  0.08430  Biso   1.000  N
  N52      1.0000 0.19910  0.69440  0.41570  Biso   1.000  N
  N53      1.0000 0.69910  0.80560  0.91570  Biso   1.000  N
  N54      1.0000 0.30090  0.80560  0.58430  Biso   1.000  N
  N55      1.0000 0.19910  0.30560  0.91570  Biso   1.000  N
  N56      1.0000 0.80090  0.30560  0.58430  Biso   1.000  N
  N57      1.0000 0.27550  0.17720  0.01640  Biso   1.000  N
  N58      1.0000 0.72450  0.17720  0.48360  Biso   1.000  N
  N59      1.0000 0.77550  0.67720  0.01640  Biso   1.000  N
  N60      1.0000 0.22450  0.67720  0.48360  Biso   1.000  N
  N61      1.0000 0.72450  0.82280  0.98360  Biso   1.000  N
  N62      1.0000 0.27550  0.82280  0.51640  Biso   1.000  N
  N63      1.0000 0.22450  0.32280  0.98360  Biso   1.000  N
  N64      1.0000 0.77550  0.32280  0.51640  Biso   1.000  N
  N65      1.0000 0.32800  0.18000  0.97500  Biso   1.000  N
  N66      1.0000 0.67200  0.18000  0.52500  Biso   1.000  N
  N67      1.0000 0.82800  0.68000  0.97500  Biso   1.000  N
  N68      1.0000 0.17200  0.68000  0.52500  Biso   1.000  N
  N69      1.0000 0.67200  0.82000  0.02500  Biso   1.000  N
  N70      1.0000 0.32800  0.82000  0.47500  Biso   1.000  N
  N71      1.0000 0.17200  0.32000  0.02500  Biso   1.000  N
  N72      1.0000 0.82800  0.32000  0.47500  Biso   1.000  N
  C1       1.0000 0.40010  0.54590  0.30540  Biso   1.000  C
  C2       1.0000 0.59990  0.54590  0.19460  Biso   1.000  C
  C3       1.0000 0.90010  0.04590  0.30540  Biso   1.000  C
  C4       1.0000 0.09990  0.04590  0.19460  Biso   1.000  C
  C5       1.0000 0.59990  0.45410  0.69460  Biso   1.000  C
  C6       1.0000 0.40010  0.45410  0.80540  Biso   1.000  C
  C7       1.0000 0.09990  0.95410  0.69460  Biso   1.000  C
  C8       1.0000 0.90010  0.95410  0.80540  Biso   1.000  C
  C9       1.0000 0.42400  0.58840  0.25180  Biso   1.000  C
  C10      1.0000 0.57600  0.58840  0.24820  Biso   1.000  C
  C11      1.0000 0.92400  0.08840  0.25180  Biso   1.000  C
  C12      1.0000 0.07600  0.08840  0.24820  Biso   1.000  C
  C13      1.0000 0.57600  0.41160  0.74820  Biso   1.000  C
  C14      1.0000 0.42400  0.41160  0.75180  Biso   1.000  C
  C15      1.0000 0.07600  0.91160  0.74820  Biso   1.000  C
  C16      1.0000 0.92400  0.91160  0.75180  Biso   1.000  C
  C17      1.0000 0.42990  0.55470  0.18560  Biso   1.000  C
  C18      1.0000 0.57010  0.55470  0.31440  Biso   1.000  C
  C19      1.0000 0.92990  0.05470  0.18560  Biso   1.000  C
  C20      1.0000 0.07010  0.05470  0.31440  Biso   1.000  C
  C21      1.0000 0.57010  0.44530  0.81440  Biso   1.000  C
  C22      1.0000 0.42990  0.44530  0.68560  Biso   1.000  C
  C23      1.0000 0.07010  0.94530  0.81440  Biso   1.000  C
  C24      1.0000 0.92990  0.94530  0.68560  Biso   1.000  C
  H1       1.0000 0.44430  0.58310  0.14870  Biso   1.000  H
  H2       1.0000 0.55570  0.58310  0.35130  Biso   1.000  H
  H3       1.0000 0.94430  0.08310  0.14870  Biso   1.000  H
  H4       1.0000 0.05570  0.08310  0.35130  Biso   1.000  H
  H5       1.0000 0.55570  0.41690  0.85130  Biso   1.000  H
  H6       1.0000 0.44430  0.41690  0.64870  Biso   1.000  H
  H7       1.0000 0.05570  0.91690  0.85130  Biso   1.000  H
  H8       1.0000 0.94430  0.91690  0.64870  Biso   1.000  H
  C25      1.0000 0.41370  0.47880  0.17820  Biso   1.000  C
  C26      1.0000 0.58630  0.47880  0.32180  Biso   1.000  C
  C27      1.0000 0.91370  0.97880  0.17820  Biso   1.000  C
  C28      1.0000 0.08630  0.97880  0.32180  Biso   1.000  C
  C29      1.0000 0.58630  0.52120  0.82180  Biso   1.000  C
  C30      1.0000 0.41370  0.52120  0.67820  Biso   1.000  C
  C31      1.0000 0.08630  0.02120  0.82180  Biso   1.000  C
  C32      1.0000 0.91370  0.02120  0.67820  Biso   1.000  C
  H9       1.0000 0.41800  0.45440  0.13530  Biso   1.000  H
  H10      1.0000 0.58200  0.45440  0.36470  Biso   1.000  H
  H11      1.0000 0.91800  0.95440  0.13530  Biso   1.000  H
  H12      1.0000 0.08200  0.95440  0.36470  Biso   1.000  H
  H13      1.0000 0.58200  0.54560  0.86470  Biso   1.000  H
  H14      1.0000 0.41800  0.54560  0.63530  Biso   1.000  H
  H15      1.0000 0.08200  0.04560  0.86470  Biso   1.000  H
  H16      1.0000 0.91800  0.04560  0.63530  Biso   1.000  H
  C33      1.0000 0.39090  0.43610  0.23270  Biso   1.000  C
  C34      1.0000 0.60910  0.43610  0.26730  Biso   1.000  C
  C35      1.0000 0.89090  0.93610  0.23270  Biso   1.000  C
  C36      1.0000 0.10910  0.93610  0.26730  Biso   1.000  C
  C37      1.0000 0.60910  0.56390  0.76730  Biso   1.000  C
  C38      1.0000 0.39090  0.56390  0.73270  Biso   1.000  C
  C39      1.0000 0.10910  0.06390  0.76730  Biso   1.000  C
  C40      1.0000 0.89090  0.06390  0.73270  Biso   1.000  C
  H17      1.0000 0.38080  0.38410  0.22480  Biso   1.000  H
  H18      1.0000 0.61920  0.38410  0.27520  Biso   1.000  H
  H19      1.0000 0.88080  0.88410  0.22480  Biso   1.000  H
  H20      1.0000 0.11920  0.88410  0.27520  Biso   1.000  H
  H21      1.0000 0.61920  0.61590  0.77520  Biso   1.000  H
  H22      1.0000 0.38080  0.61590  0.72480  Biso   1.000  H
  H23      1.0000 0.11920  0.11590  0.77520  Biso   1.000  H
  H24      1.0000 0.88080  0.11590  0.72480  Biso   1.000  H
  C41      1.0000 0.38250  0.46780  0.29770  Biso   1.000  C
  C42      1.0000 0.61750  0.46780  0.20230  Biso   1.000  C
  C43      1.0000 0.88250  0.96780  0.29770  Biso   1.000  C
  C44      1.0000 0.11750  0.96780  0.20230  Biso   1.000  C
  C45      1.0000 0.61750  0.53220  0.70230  Biso   1.000  C
  C46      1.0000 0.38250  0.53220  0.79770  Biso   1.000  C
  C47      1.0000 0.11750  0.03220  0.70230  Biso   1.000  C
  C48      1.0000 0.88250  0.03220  0.79770  Biso   1.000  C
  H25      1.0000 0.36650  0.43950  0.33360  Biso   1.000  H
  H26      1.0000 0.63350  0.43950  0.16640  Biso   1.000  H
  H27      1.0000 0.86650  0.93950  0.33360  Biso   1.000  H
  H28      1.0000 0.13350  0.93950  0.16640  Biso   1.000  H
  H29      1.0000 0.63350  0.56050  0.66640  Biso   1.000  H
  H30      1.0000 0.36650  0.56050  0.83360  Biso   1.000  H
  H31      1.0000 0.13350  0.06050  0.66640  Biso   1.000  H
  H32      1.0000 0.86650  0.06050  0.83360  Biso   1.000  H
  C49      1.0000 0.38790  0.57920  0.43200  Biso   1.000  C
  C50      1.0000 0.61210  0.57920  0.06800  Biso   1.000  C
  C51      1.0000 0.88790  0.07920  0.43200  Biso   1.000  C
  C52      1.0000 0.11210  0.07920  0.06800  Biso   1.000  C
  C53      1.0000 0.61210  0.42080  0.56800  Biso   1.000  C
  C54      1.0000 0.38790  0.42080  0.93200  Biso   1.000  C
  C55      1.0000 0.11210  0.92080  0.56800  Biso   1.000  C
  C56      1.0000 0.88790  0.92080  0.93200  Biso   1.000  C
  H33      1.0000 0.34980  0.54690  0.43170  Biso   1.000  H
  H34      1.0000 0.65020  0.54690  0.06830  Biso   1.000  H
  H35      1.0000 0.84980  0.04690  0.43170  Biso   1.000  H
  H36      1.0000 0.15020  0.04690  0.06830  Biso   1.000  H
  H37      1.0000 0.65020  0.45310  0.56830  Biso   1.000  H
  H38      1.0000 0.34980  0.45310  0.93170  Biso   1.000  H
  H39      1.0000 0.15020  0.95310  0.56830  Biso   1.000  H
  H40      1.0000 0.84980  0.95310  0.93170  Biso   1.000  H
  H41      1.0000 0.38020  0.62690  0.45680  Biso   1.000  H
  H42      1.0000 0.61980  0.62690  0.04320  Biso   1.000  H
  H43      1.0000 0.88020  0.12690  0.45680  Biso   1.000  H
  H44      1.0000 0.11980  0.12690  0.04320  Biso   1.000  H
  H45      1.0000 0.61980  0.37310  0.54320  Biso   1.000  H
  H46      1.0000 0.38020  0.37310  0.95680  Biso   1.000  H
  H47      1.0000 0.11980  0.87310  0.54320  Biso   1.000  H
  H48      1.0000 0.88020  0.87310  0.95680  Biso   1.000  H
  C57      1.0000 0.44540  0.53770  0.46860  Biso   1.000  C
  C58      1.0000 0.55460  0.53770  0.03140  Biso   1.000  C
  C59      1.0000 0.94540  0.03770  0.46860  Biso   1.000  C
  C60      1.0000 0.05460  0.03770  0.03140  Biso   1.000  C
  C61      1.0000 0.55460  0.46230  0.53140  Biso   1.000  C
  C62      1.0000 0.44540  0.46230  0.96860  Biso   1.000  C
  C63      1.0000 0.05460  0.96230  0.53140  Biso   1.000  C
  C64      1.0000 0.94540  0.96230  0.96860  Biso   1.000  C
  C65      1.0000 0.44250  0.46130  0.48640  Biso   1.000  C
  C66      1.0000 0.55750  0.46130  0.01360  Biso   1.000  C
  C67      1.0000 0.94250  0.96130  0.48640  Biso   1.000  C
  C68      1.0000 0.05750  0.96130  0.01360  Biso   1.000  C
  C69      1.0000 0.55750  0.53870  0.51360  Biso   1.000  C
  C70      1.0000 0.44250  0.53870  0.98640  Biso   1.000  C
  C71      1.0000 0.05750  0.03870  0.51360  Biso   1.000  C
  C72      1.0000 0.94250  0.03870  0.98640  Biso   1.000  C
  H49      1.0000 0.40360  0.43480  0.47830  Biso   1.000  H
  H50      1.0000 0.59640  0.43480  0.02170  Biso   1.000  H
  H51      1.0000 0.90360  0.93480  0.47830  Biso   1.000  H
  H52      1.0000 0.09640  0.93480  0.02170  Biso   1.000  H
  H53      1.0000 0.59640  0.56520  0.52170  Biso   1.000  H
  H54      1.0000 0.40360  0.56520  0.97830  Biso   1.000  H
  H55      1.0000 0.09640  0.06520  0.52170  Biso   1.000  H
  H56      1.0000 0.90360  0.06520  0.97830  Biso   1.000  H
  C73      1.0000 0.49650  0.42280  0.51630  Biso   1.000  C
  C74      1.0000 0.50350  0.42280  0.98370  Biso   1.000  C
  C75      1.0000 0.99650  0.92280  0.51630  Biso   1.000  C
  C76      1.0000 0.00350  0.92280  0.98370  Biso   1.000  C
  C77      1.0000 0.50350  0.57720  0.48370  Biso   1.000  C
  C78      1.0000 0.49650  0.57720  0.01630  Biso   1.000  C
  C79      1.0000 0.00350  0.07720  0.48370  Biso   1.000  C
  C80      1.0000 0.99650  0.07720  0.01630  Biso   1.000  C
  H57      1.0000 0.49410  0.37020  0.52640  Biso   1.000  H
  H58      1.0000 0.50590  0.37020  0.97360  Biso   1.000  H
  H59      1.0000 0.99410  0.87020  0.52640  Biso   1.000  H
  H60      1.0000 0.00590  0.87020  0.97360  Biso   1.000  H
  H61      1.0000 0.50590  0.62980  0.47360  Biso   1.000  H
  H62      1.0000 0.49410  0.62980  0.02640  Biso   1.000  H
  H63      1.0000 0.00590  0.12980  0.47360  Biso   1.000  H
  H64      1.0000 0.99410  0.12980  0.02640  Biso   1.000  H
  C81      1.0000 0.41110  0.92820  0.34260  Biso   1.000  C
  C82      1.0000 0.58890  0.92820  0.15740  Biso   1.000  C
  C83      1.0000 0.91110  0.42820  0.34260  Biso   1.000  C
  C84      1.0000 0.08890  0.42820  0.15740  Biso   1.000  C
  C85      1.0000 0.58890  0.07180  0.65740  Biso   1.000  C
  C86      1.0000 0.41110  0.07180  0.84260  Biso   1.000  C
  C87      1.0000 0.08890  0.57180  0.65740  Biso   1.000  C
  C88      1.0000 0.91110  0.57180  0.84260  Biso   1.000  C
  C89      1.0000 0.46650  0.88900  0.33050  Biso   1.000  C
  C90      1.0000 0.53350  0.88900  0.16950  Biso   1.000  C
  C91      1.0000 0.96650  0.38900  0.33050  Biso   1.000  C
  C92      1.0000 0.03350  0.38900  0.16950  Biso   1.000  C
  C93      1.0000 0.53350  0.11100  0.66950  Biso   1.000  C
  C94      1.0000 0.46650  0.11100  0.83050  Biso   1.000  C
  C95      1.0000 0.03350  0.61100  0.66950  Biso   1.000  C
  C96      1.0000 0.96650  0.61100  0.83050  Biso   1.000  C
  C97      1.0000 0.52710  0.91770  0.35790  Biso   1.000  C
  C98      1.0000 0.47290  0.91770  0.14210  Biso   1.000  C
  C99      1.0000 0.02710  0.41770  0.35790  Biso   1.000  C
  C100     1.0000 0.97290  0.41770  0.14210  Biso   1.000  C
  C101     1.0000 0.47290  0.08230  0.64210  Biso   1.000  C
  C102     1.0000 0.52710  0.08230  0.85790  Biso   1.000  C
  C103     1.0000 0.97290  0.58230  0.64210  Biso   1.000  C
  C104     1.0000 0.02710  0.58230  0.85790  Biso   1.000  C
  H65      1.0000 0.56500  0.89250  0.34970  Biso   1.000  H
  H66      1.0000 0.43500  0.89250  0.15030  Biso   1.000  H
  H67      1.0000 0.06500  0.39250  0.34970  Biso   1.000  H
  H68      1.0000 0.93500  0.39250  0.15030  Biso   1.000  H
  H69      1.0000 0.43500  0.10750  0.65030  Biso   1.000  H
  H70      1.0000 0.56500  0.10750  0.84970  Biso   1.000  H
  H71      1.0000 0.93500  0.60750  0.65030  Biso   1.000  H
  H72      1.0000 0.06500  0.60750  0.84970  Biso   1.000  H
  C105     1.0000 0.52780  0.98280  0.39640  Biso   1.000  C
  C106     1.0000 0.47220  0.98280  0.10360  Biso   1.000  C
  C107     1.0000 0.02780  0.48280  0.39640  Biso   1.000  C
  C108     1.0000 0.97220  0.48280  0.10360  Biso   1.000  C
  C109     1.0000 0.47220  0.01720  0.60360  Biso   1.000  C
  C110     1.0000 0.52780  0.01720  0.89640  Biso   1.000  C
  C111     1.0000 0.97220  0.51720  0.60360  Biso   1.000  C
  C112     1.0000 0.02780  0.51720  0.89640  Biso   1.000  C
  H73      1.0000 0.56730  0.00210  0.41630  Biso   1.000  H
  H74      1.0000 0.43270  0.00210  0.08370  Biso   1.000  H
  H75      1.0000 0.06730  0.50210  0.41630  Biso   1.000  H
  H76      1.0000 0.93270  0.50210  0.08370  Biso   1.000  H
  H77      1.0000 0.43270  0.99790  0.58370  Biso   1.000  H
  H78      1.0000 0.56730  0.99790  0.91630  Biso   1.000  H
  H79      1.0000 0.93270  0.49790  0.58370  Biso   1.000  H
  H80      1.0000 0.06730  0.49790  0.91630  Biso   1.000  H
  C113     1.0000 0.47170  0.02260  0.40790  Biso   1.000  C
  C114     1.0000 0.52830  0.02260  0.09210  Biso   1.000  C
  C115     1.0000 0.97170  0.52260  0.40790  Biso   1.000  C
  C116     1.0000 0.02830  0.52260  0.09210  Biso   1.000  C
  C117     1.0000 0.52830  0.97740  0.59210  Biso   1.000  C
  C118     1.0000 0.47170  0.97740  0.90790  Biso   1.000  C
  C119     1.0000 0.02830  0.47740  0.59210  Biso   1.000  C
  C120     1.0000 0.97170  0.47740  0.90790  Biso   1.000  C
  H81      1.0000 0.47480  0.06800  0.43450  Biso   1.000  H
  H82      1.0000 0.52520  0.06800  0.06550  Biso   1.000  H
  H83      1.0000 0.97480  0.56800  0.43450  Biso   1.000  H
  H84      1.0000 0.02520  0.56800  0.06550  Biso   1.000  H
  H85      1.0000 0.52520  0.93200  0.56550  Biso   1.000  H
  H86      1.0000 0.47480  0.93200  0.93450  Biso   1.000  H
  H87      1.0000 0.02520  0.43200  0.56550  Biso   1.000  H
  H88      1.0000 0.97480  0.43200  0.93450  Biso   1.000  H
  C121     1.0000 0.41150  0.99620  0.38060  Biso   1.000  C
  C122     1.0000 0.58850  0.99620  0.11940  Biso   1.000  C
  C123     1.0000 0.91150  0.49620  0.38060  Biso   1.000  C
  C124     1.0000 0.08850  0.49620  0.11940  Biso   1.000  C
  C125     1.0000 0.58850  0.00380  0.61940  Biso   1.000  C
  C126     1.0000 0.41150  0.00380  0.88060  Biso   1.000  C
  C127     1.0000 0.08850  0.50380  0.61940  Biso   1.000  C
  C128     1.0000 0.91150  0.50380  0.88060  Biso   1.000  C
  H89      1.0000 0.37380  0.02270  0.38750  Biso   1.000  H
  H90      1.0000 0.62620  0.02270  0.11250  Biso   1.000  H
  H91      1.0000 0.87380  0.52270  0.38750  Biso   1.000  H
  H92      1.0000 0.12620  0.52270  0.11250  Biso   1.000  H
  H93      1.0000 0.62620  0.97730  0.61250  Biso   1.000  H
  H94      1.0000 0.37380  0.97730  0.88750  Biso   1.000  H
  H95      1.0000 0.12620  0.47730  0.61250  Biso   1.000  H
  H96      1.0000 0.87380  0.47730  0.88750  Biso   1.000  H
  C129     1.0000 0.29260  0.90240  0.30020  Biso   1.000  C
  C130     1.0000 0.70740  0.90240  0.19980  Biso   1.000  C
  C131     1.0000 0.79260  0.40240  0.30020  Biso   1.000  C
  C132     1.0000 0.20740  0.40240  0.19980  Biso   1.000  C
  C133     1.0000 0.70740  0.09760  0.69980  Biso   1.000  C
  C134     1.0000 0.29260  0.09760  0.80020  Biso   1.000  C
  C135     1.0000 0.20740  0.59760  0.69980  Biso   1.000  C
  C136     1.0000 0.79260  0.59760  0.80020  Biso   1.000  C
  H97      1.0000 0.27720  0.90920  0.34630  Biso   1.000  H
  H98      1.0000 0.72280  0.90920  0.15370  Biso   1.000  H
  H99      1.0000 0.77720  0.40920  0.34630  Biso   1.000  H
  H100     1.0000 0.22280  0.40920  0.15370  Biso   1.000  H
  H101     1.0000 0.72280  0.09080  0.65370  Biso   1.000  H
  H102     1.0000 0.27720  0.09080  0.84630  Biso   1.000  H
  H103     1.0000 0.22280  0.59080  0.65370  Biso   1.000  H
  H104     1.0000 0.77720  0.59080  0.84630  Biso   1.000  H
  H105     1.0000 0.26910  0.85960  0.27660  Biso   1.000  H
  H106     1.0000 0.73090  0.85960  0.22340  Biso   1.000  H
  H107     1.0000 0.76910  0.35960  0.27660  Biso   1.000  H
  H108     1.0000 0.23090  0.35960  0.22340  Biso   1.000  H
  H109     1.0000 0.73090  0.14040  0.72340  Biso   1.000  H
  H110     1.0000 0.26910  0.14040  0.77660  Biso   1.000  H
  H111     1.0000 0.23090  0.64040  0.72340  Biso   1.000  H
  H112     1.0000 0.76910  0.64040  0.77660  Biso   1.000  H
  C137     1.0000 0.28100  0.97460  0.25750  Biso   1.000  C
  C138     1.0000 0.71900  0.97460  0.24250  Biso   1.000  C
  C139     1.0000 0.78100  0.47460  0.25750  Biso   1.000  C
  C140     1.0000 0.21900  0.47460  0.24250  Biso   1.000  C
  C141     1.0000 0.71900  0.02540  0.74250  Biso   1.000  C
  C142     1.0000 0.28100  0.02540  0.75750  Biso   1.000  C
  C143     1.0000 0.21900  0.52540  0.74250  Biso   1.000  C
  C144     1.0000 0.78100  0.52540  0.75750  Biso   1.000  C
  C145     1.0000 0.25530  0.03990  0.28780  Biso   1.000  C
  C146     1.0000 0.74470  0.03990  0.21220  Biso   1.000  C
  C147     1.0000 0.75530  0.53990  0.28780  Biso   1.000  C
  C148     1.0000 0.24470  0.53990  0.21220  Biso   1.000  C
  C149     1.0000 0.74470  0.96010  0.71220  Biso   1.000  C
  C150     1.0000 0.25530  0.96010  0.78780  Biso   1.000  C
  C151     1.0000 0.24470  0.46010  0.71220  Biso   1.000  C
  C152     1.0000 0.75530  0.46010  0.78780  Biso   1.000  C
  H113     1.0000 0.24420  0.03740  0.33390  Biso   1.000  H
  H114     1.0000 0.75580  0.03740  0.16610  Biso   1.000  H
  H115     1.0000 0.74420  0.53740  0.33390  Biso   1.000  H
  H116     1.0000 0.25580  0.53740  0.16610  Biso   1.000  H
  H117     1.0000 0.75580  0.96260  0.66610  Biso   1.000  H
  H118     1.0000 0.24420  0.96260  0.83390  Biso   1.000  H
  H119     1.0000 0.25580  0.46260  0.66610  Biso   1.000  H
  H120     1.0000 0.74420  0.46260  0.83390  Biso   1.000  H
  C153     1.0000 0.24620  0.10870  0.24960  Biso   1.000  C
  C154     1.0000 0.75380  0.10870  0.25040  Biso   1.000  C
  C155     1.0000 0.74620  0.60870  0.24960  Biso   1.000  C
  C156     1.0000 0.25380  0.60870  0.25040  Biso   1.000  C
  C157     1.0000 0.75380  0.89130  0.75040  Biso   1.000  C
  C158     1.0000 0.24620  0.89130  0.74960  Biso   1.000  C
  C159     1.0000 0.25380  0.39130  0.75040  Biso   1.000  C
  C160     1.0000 0.74620  0.39130  0.74960  Biso   1.000  C
  H121     1.0000 0.22970  0.15220  0.27030  Biso   1.000  H
  H122     1.0000 0.77030  0.15220  0.22970  Biso   1.000  H
  H123     1.0000 0.72970  0.65220  0.27030  Biso   1.000  H
  H124     1.0000 0.27030  0.65220  0.22970  Biso   1.000  H
  H125     1.0000 0.77030  0.84780  0.72970  Biso   1.000  H
  H126     1.0000 0.22970  0.84780  0.77030  Biso   1.000  H
  H127     1.0000 0.27030  0.34780  0.72970  Biso   1.000  H
  H128     1.0000 0.72970  0.34780  0.77030  Biso   1.000  H
  C161     1.0000 0.26160  0.11170  0.18210  Biso   1.000  C
  C162     1.0000 0.73840  0.11170  0.31790  Biso   1.000  C
  C163     1.0000 0.76160  0.61170  0.18210  Biso   1.000  C
  C164     1.0000 0.23840  0.61170  0.31790  Biso   1.000  C
  C165     1.0000 0.73840  0.88830  0.81790  Biso   1.000  C
  C166     1.0000 0.26160  0.88830  0.68210  Biso   1.000  C
  C167     1.0000 0.23840  0.38830  0.81790  Biso   1.000  C
  C168     1.0000 0.76160  0.38830  0.68210  Biso   1.000  C
  C169     1.0000 0.28600  0.04760  0.15190  Biso   1.000  C
  C170     1.0000 0.71400  0.04760  0.34810  Biso   1.000  C
  C171     1.0000 0.78600  0.54760  0.15190  Biso   1.000  C
  C172     1.0000 0.21400  0.54760  0.34810  Biso   1.000  C
  C173     1.0000 0.71400  0.95240  0.84810  Biso   1.000  C
  C174     1.0000 0.28600  0.95240  0.65190  Biso   1.000  C
  C175     1.0000 0.21400  0.45240  0.84810  Biso   1.000  C
  C176     1.0000 0.78600  0.45240  0.65190  Biso   1.000  C
  H129     1.0000 0.29620  0.04980  0.10550  Biso   1.000  H
  H130     1.0000 0.70380  0.04980  0.39450  Biso   1.000  H
  H131     1.0000 0.79620  0.54980  0.10550  Biso   1.000  H
  H132     1.0000 0.20380  0.54980  0.39450  Biso   1.000  H
  H133     1.0000 0.70380  0.95020  0.89450  Biso   1.000  H
  H134     1.0000 0.29620  0.95020  0.60550  Biso   1.000  H
  H135     1.0000 0.20380  0.45020  0.89450  Biso   1.000  H
  H136     1.0000 0.79620  0.45020  0.60550  Biso   1.000  H
  C177     1.0000 0.29530  0.98040  0.18930  Biso   1.000  C
  C178     1.0000 0.70470  0.98040  0.31070  Biso   1.000  C
  C179     1.0000 0.79530  0.48040  0.18930  Biso   1.000  C
  C180     1.0000 0.20470  0.48040  0.31070  Biso   1.000  C
  C181     1.0000 0.70470  0.01960  0.81070  Biso   1.000  C
  C182     1.0000 0.29530  0.01960  0.68930  Biso   1.000  C
  C183     1.0000 0.20470  0.51960  0.81070  Biso   1.000  C
  C184     1.0000 0.79530  0.51960  0.68930  Biso   1.000  C
  H137     1.0000 0.31180  0.93740  0.16780  Biso   1.000  H
  H138     1.0000 0.68820  0.93740  0.33220  Biso   1.000  H
  H139     1.0000 0.81180  0.43740  0.16780  Biso   1.000  H
  H140     1.0000 0.18820  0.43740  0.33220  Biso   1.000  H
  H141     1.0000 0.68820  0.06260  0.83220  Biso   1.000  H
  H142     1.0000 0.31180  0.06260  0.66780  Biso   1.000  H
  H143     1.0000 0.18820  0.56260  0.83220  Biso   1.000  H
  H144     1.0000 0.81180  0.56260  0.66780  Biso   1.000  H
  C185     1.0000 0.25600  0.18860  0.14100  Biso   1.000  C
  C186     1.0000 0.74400  0.18860  0.35900  Biso   1.000  C
  C187     1.0000 0.75600  0.68860  0.14100  Biso   1.000  C
  C188     1.0000 0.24400  0.68860  0.35900  Biso   1.000  C
  C189     1.0000 0.74400  0.81140  0.85900  Biso   1.000  C
  C190     1.0000 0.25600  0.81140  0.64100  Biso   1.000  C
  C191     1.0000 0.24400  0.31140  0.85900  Biso   1.000  C
  C192     1.0000 0.75600  0.31140  0.64100  Biso   1.000  C
  H145     1.0000 0.21200  0.19450  0.11950  Biso   1.000  H
  H146     1.0000 0.78800  0.19450  0.38050  Biso   1.000  H
  H147     1.0000 0.71200  0.69450  0.11950  Biso   1.000  H
  H148     1.0000 0.28800  0.69450  0.38050  Biso   1.000  H
  H149     1.0000 0.78800  0.80550  0.88050  Biso   1.000  H
  H150     1.0000 0.21200  0.80550  0.61950  Biso   1.000  H
  H151     1.0000 0.28800  0.30550  0.88050  Biso   1.000  H
  H152     1.0000 0.71200  0.30550  0.61950  Biso   1.000  H
  H153     1.0000 0.26500  0.23100  0.17400  Biso   1.000  H
  H154     1.0000 0.73500  0.23100  0.32600  Biso   1.000  H
  H155     1.0000 0.76500  0.73100  0.17400  Biso   1.000  H
  H156     1.0000 0.23500  0.73100  0.32600  Biso   1.000  H
  H157     1.0000 0.73500  0.76900  0.82600  Biso   1.000  H
  H158     1.0000 0.26500  0.76900  0.67400  Biso   1.000  H
  H159     1.0000 0.23500  0.26900  0.82600  Biso   1.000  H
  H160     1.0000 0.76500  0.26900  0.67400  Biso   1.000  H
  C193     1.0000 0.36180  0.20930  0.08110  Biso   1.000  C
  C194     1.0000 0.63820  0.20930  0.41890  Biso   1.000  C
  C195     1.0000 0.86180  0.70930  0.08110  Biso   1.000  C
  C196     1.0000 0.13820  0.70930  0.41890  Biso   1.000  C
  C197     1.0000 0.63820  0.79070  0.91890  Biso   1.000  C
  C198     1.0000 0.36180  0.79070  0.58110  Biso   1.000  C
  C199     1.0000 0.13820  0.29070  0.91890  Biso   1.000  C
  C200     1.0000 0.86180  0.29070  0.58110  Biso   1.000  C
  C201     1.0000 0.38380  0.20130  0.01950  Biso   1.000  C
  C202     1.0000 0.61620  0.20130  0.48050  Biso   1.000  C
  C203     1.0000 0.88380  0.70130  0.01950  Biso   1.000  C
  C204     1.0000 0.11620  0.70130  0.48050  Biso   1.000  C
  C205     1.0000 0.61620  0.79870  0.98050  Biso   1.000  C
  C206     1.0000 0.38380  0.79870  0.51950  Biso   1.000  C
  C207     1.0000 0.11620  0.29870  0.98050  Biso   1.000  C
  C208     1.0000 0.88380  0.29870  0.51950  Biso   1.000  C
  C209     1.0000 0.44470  0.21090  0.00830  Biso   1.000  C
  C210     1.0000 0.55530  0.21090  0.49170  Biso   1.000  C
  C211     1.0000 0.94470  0.71090  0.00830  Biso   1.000  C
  C212     1.0000 0.05530  0.71090  0.49170  Biso   1.000  C
  C213     1.0000 0.55530  0.78910  0.99170  Biso   1.000  C
  C214     1.0000 0.44470  0.78910  0.50830  Biso   1.000  C
  C215     1.0000 0.05530  0.28910  0.99170  Biso   1.000  C
  C216     1.0000 0.94470  0.28910  0.50830  Biso   1.000  C
  H161     1.0000 0.45860  0.20050  0.96440  Biso   1.000  H
  H162     1.0000 0.54140  0.20050  0.53560  Biso   1.000  H
  H163     1.0000 0.95860  0.70050  0.96440  Biso   1.000  H
  H164     1.0000 0.04140  0.70050  0.53560  Biso   1.000  H
  H165     1.0000 0.54140  0.79950  0.03560  Biso   1.000  H
  H166     1.0000 0.45860  0.79950  0.46440  Biso   1.000  H
  H167     1.0000 0.04140  0.29950  0.03560  Biso   1.000  H
  H168     1.0000 0.95860  0.29950  0.46440  Biso   1.000  H
  C217     1.0000 0.48740  0.23730  0.06420  Biso   1.000  C
  C218     1.0000 0.51260  0.23730  0.43580  Biso   1.000  C
  C219     1.0000 0.98740  0.73730  0.06420  Biso   1.000  C
  C220     1.0000 0.01260  0.73730  0.43580  Biso   1.000  C
  C221     1.0000 0.51260  0.76270  0.93580  Biso   1.000  C
  C222     1.0000 0.48740  0.76270  0.56420  Biso   1.000  C
  C223     1.0000 0.01260  0.26270  0.93580  Biso   1.000  C
  C224     1.0000 0.98740  0.26270  0.56420  Biso   1.000  C
  H169     1.0000 0.52960  0.24960  0.05690  Biso   1.000  H
  H170     1.0000 0.47040  0.24960  0.44310  Biso   1.000  H
  H171     1.0000 0.02960  0.74960  0.05690  Biso   1.000  H
  H172     1.0000 0.97040  0.74960  0.44310  Biso   1.000  H
  H173     1.0000 0.47040  0.75040  0.94310  Biso   1.000  H
  H174     1.0000 0.52960  0.75040  0.55690  Biso   1.000  H
  H175     1.0000 0.97040  0.25040  0.94310  Biso   1.000  H
  H176     1.0000 0.02960  0.25040  0.55690  Biso   1.000  H
  C225     1.0000 0.46740  0.24490  0.12950  Biso   1.000  C
  C226     1.0000 0.53260  0.24490  0.37050  Biso   1.000  C
  C227     1.0000 0.96740  0.74490  0.12950  Biso   1.000  C
  C228     1.0000 0.03260  0.74490  0.37050  Biso   1.000  C
  C229     1.0000 0.53260  0.75510  0.87050  Biso   1.000  C
  C230     1.0000 0.46740  0.75510  0.62950  Biso   1.000  C
  C231     1.0000 0.03260  0.25510  0.87050  Biso   1.000  C
  C232     1.0000 0.96740  0.25510  0.62950  Biso   1.000  C
  H177     1.0000 0.49680  0.25890  0.16750  Biso   1.000  H
  H178     1.0000 0.50320  0.25890  0.33250  Biso   1.000  H
  H179     1.0000 0.99680  0.75890  0.16750  Biso   1.000  H
  H180     1.0000 0.00320  0.75890  0.33250  Biso   1.000  H
  H181     1.0000 0.50320  0.74110  0.83250  Biso   1.000  H
  H182     1.0000 0.49680  0.74110  0.66750  Biso   1.000  H
  H183     1.0000 0.00320  0.24110  0.83250  Biso   1.000  H
  H184     1.0000 0.99680  0.24110  0.66750  Biso   1.000  H
  C233     1.0000 0.39880  0.23090  0.14060  Biso   1.000  C
  C234     1.0000 0.60120  0.23090  0.35940  Biso   1.000  C
  C235     1.0000 0.89880  0.73090  0.14060  Biso   1.000  C
  C236     1.0000 0.10120  0.73090  0.35940  Biso   1.000  C
  C237     1.0000 0.60120  0.76910  0.85940  Biso   1.000  C
  C238     1.0000 0.39880  0.76910  0.64060  Biso   1.000  C
  C239     1.0000 0.10120  0.26910  0.85940  Biso   1.000  C
  C240     1.0000 0.89880  0.26910  0.64060  Biso   1.000  C
  H185     1.0000 0.38280  0.23650  0.18430  Biso   1.000  H
  H186     1.0000 0.61720  0.23650  0.31570  Biso   1.000  H
  H187     1.0000 0.88280  0.73650  0.18430  Biso   1.000  H
  H188     1.0000 0.11720  0.73650  0.31570  Biso   1.000  H
  H189     1.0000 0.61720  0.76350  0.81570  Biso   1.000  H
  H190     1.0000 0.38280  0.76350  0.68430  Biso   1.000  H
  H191     1.0000 0.11720  0.26350  0.81570  Biso   1.000  H
  H192     1.0000 0.88280  0.26350  0.68430  Biso   1.000  H
