data_image0
_cell_length_a       10.452
_cell_length_b       16.841
_cell_length_c       10.454
_cell_angle_alpha    90
_cell_angle_beta     108.69
_cell_angle_gamma    90

_symmetry_space_group_name_H-M    "P 1"
_symmetry_int_tables_number       1

loop_
  _symmetry_equiv_pos_as_xyz
  'x, y, z'

loop_
  _atom_site_label
  _atom_site_occupancy
  _atom_site_fract_x
  _atom_site_fract_y
  _atom_site_fract_z
  _atom_site_thermal_displace_type
  _atom_site_B_iso_or_equiv
  _atom_site_type_symbol
  Cu1      1.0000 0.79048  0.49731  0.17851  Biso   1.000  Cu
  Cu2      1.0000 0.20952  0.99731  0.32149  Biso   1.000  Cu
  Cu3      1.0000 0.20952  0.50269  0.82149  Biso   1.000  Cu
  Cu4      1.0000 0.79048  0.00269  0.67851  Biso   1.000  Cu
  S1       1.0000 0.50300  0.22915  0.27098  Biso   1.000  S
  S2       1.0000 0.49700  0.72915  0.22902  Biso   1.000  S
  S3       1.0000 0.49700  0.77085  0.72902  Biso   1.000  S
  S4       1.0000 0.50300  0.27085  0.77098  Biso   1.000  S
  O1       1.0000 0.65820  0.41340  0.15100  Biso   1.000  O
  O2       1.0000 0.34180  0.91340  0.34900  Biso   1.000  O
  O3       1.0000 0.34180  0.58660  0.84900  Biso   1.000  O
  O4       1.0000 0.65820  0.08660  0.65100  Biso   1.000  O
  O5       1.0000 0.71940  0.35130  0.35000  Biso   1.000  O
  O6       1.0000 0.28060  0.85130  0.15000  Biso   1.000  O
  O7       1.0000 0.28060  0.64870  0.65000  Biso   1.000  O
  O8       1.0000 0.71940  0.14870  0.85000  Biso   1.000  O
  O9       1.0000 0.32680  0.09270  0.27130  Biso   1.000  O
  O10      1.0000 0.67320  0.59270  0.22870  Biso   1.000  O
  O11      1.0000 0.67320  0.90730  0.72870  Biso   1.000  O
  O12      1.0000 0.32680  0.40730  0.77130  Biso   1.000  O
  O13      1.0000 0.19460  0.10460  0.05650  Biso   1.000  O
  O14      1.0000 0.80540  0.60460  0.44350  Biso   1.000  O
  O15      1.0000 0.80540  0.89540  0.94350  Biso   1.000  O
  O16      1.0000 0.19460  0.39540  0.55650  Biso   1.000  O
  O17      1.0000 0.88350  0.47050  0.36930  Biso   1.000  O
  O18      1.0000 0.11650  0.97050  0.13070  Biso   1.000  O
  O19      1.0000 0.11650  0.52950  0.63070  Biso   1.000  O
  O20      1.0000 0.88350  0.02950  0.86930  Biso   1.000  O
  N1       1.0000 0.73660  0.51320  0.97720  Biso   1.000  N
  N2       1.0000 0.26340  0.01320  0.52280  Biso   1.000  N
  N3       1.0000 0.26340  0.48680  0.02280  Biso   1.000  N
  N4       1.0000 0.73660  0.98680  0.47720  Biso   1.000  N
  N5       1.0000 0.94250  0.56970  0.17440  Biso   1.000  N
  N6       1.0000 0.05750  0.06970  0.32560  Biso   1.000  N
  N7       1.0000 0.05750  0.43030  0.82560  Biso   1.000  N
  N8       1.0000 0.94250  0.93030  0.67440  Biso   1.000  N
  C1       1.0000 0.52670  0.30770  0.17760  Biso   1.000  C
  C2       1.0000 0.47330  0.80770  0.32240  Biso   1.000  C
  C3       1.0000 0.47330  0.69230  0.82240  Biso   1.000  C
  C4       1.0000 0.52670  0.19230  0.67760  Biso   1.000  C
  C5       1.0000 0.42870  0.31180  0.05560  Biso   1.000  C
  C6       1.0000 0.57130  0.81180  0.44440  Biso   1.000  C
  C7       1.0000 0.57130  0.68820  0.94440  Biso   1.000  C
  C8       1.0000 0.42870  0.18820  0.55560  Biso   1.000  C
  C9       1.0000 0.33430  0.25000  0.03650  Biso   1.000  C
  C10      1.0000 0.66570  0.75000  0.46350  Biso   1.000  C
  C11      1.0000 0.66570  0.75000  0.96350  Biso   1.000  C
  C12      1.0000 0.33430  0.25000  0.53650  Biso   1.000  C
  C13      1.0000 0.36180  0.19990  0.14420  Biso   1.000  C
  C14      1.0000 0.63820  0.69990  0.35580  Biso   1.000  C
  C15      1.0000 0.63820  0.80010  0.85580  Biso   1.000  C
  C16      1.0000 0.36180  0.30010  0.64420  Biso   1.000  C
  C17      1.0000 0.64460  0.36130  0.23250  Biso   1.000  C
  C18      1.0000 0.35540  0.86130  0.26750  Biso   1.000  C
  C19      1.0000 0.35540  0.63870  0.76750  Biso   1.000  C
  C20      1.0000 0.64460  0.13870  0.73250  Biso   1.000  C
  C21      1.0000 0.28790  0.12700  0.15830  Biso   1.000  C
  C22      1.0000 0.71210  0.62700  0.34170  Biso   1.000  C
  C23      1.0000 0.71210  0.87300  0.84170  Biso   1.000  C
  C24      1.0000 0.28790  0.37300  0.65830  Biso   1.000  C
  C25      1.0000 0.62940  0.48610  0.88150  Biso   1.000  C
  C26      1.0000 0.37060  0.98610  0.61850  Biso   1.000  C
  C27      1.0000 0.37060  0.51390  0.11850  Biso   1.000  C
  C28      1.0000 0.62940  0.01390  0.38150  Biso   1.000  C
  C29      1.0000 0.60620  0.50360  0.74600  Biso   1.000  C
  C30      1.0000 0.39380  0.00360  0.75400  Biso   1.000  C
  C31      1.0000 0.39380  0.49640  0.25400  Biso   1.000  C
  C32      1.0000 0.60620  0.99640  0.24600  Biso   1.000  C
  C33      1.0000 0.69360  0.54930  0.70760  Biso   1.000  C
  C34      1.0000 0.30640  0.04930  0.79240  Biso   1.000  C
  C35      1.0000 0.30640  0.45070  0.29240  Biso   1.000  C
  C36      1.0000 0.69360  0.95070  0.20760  Biso   1.000  C
  C37      1.0000 0.90770  0.62790  0.77850  Biso   1.000  C
  C38      1.0000 0.09230  0.12790  0.72150  Biso   1.000  C
  C39      1.0000 0.09230  0.37210  0.22150  Biso   1.000  C
  C40      1.0000 0.90770  0.87210  0.27850  Biso   1.000  C
  C41      1.0000 0.01310  0.65700  0.88020  Biso   1.000  C
  C42      1.0000 0.98690  0.15700  0.61980  Biso   1.000  C
  C43      1.0000 0.98690  0.34300  0.11980  Biso   1.000  C
  C44      1.0000 0.01310  0.84300  0.38020  Biso   1.000  C
  C45      1.0000 0.13280  0.67020  0.12800  Biso   1.000  C
  C46      1.0000 0.86720  0.17020  0.37200  Biso   1.000  C
  C47      1.0000 0.86720  0.32980  0.87200  Biso   1.000  C
  C48      1.0000 0.13280  0.82980  0.62800  Biso   1.000  C
  C49      1.0000 0.14010  0.64840  0.25590  Biso   1.000  C
  C50      1.0000 0.85990  0.14840  0.24410  Biso   1.000  C
  C51      1.0000 0.85990  0.35160  0.74410  Biso   1.000  C
  C52      1.0000 0.14010  0.85160  0.75590  Biso   1.000  C
  C53      1.0000 0.04340  0.59800  0.27530  Biso   1.000  C
  C54      1.0000 0.95660  0.09800  0.22470  Biso   1.000  C
  C55      1.0000 0.95660  0.40200  0.72470  Biso   1.000  C
  C56      1.0000 0.04340  0.90200  0.77530  Biso   1.000  C
  C57      1.0000 0.93570  0.59060  0.04750  Biso   1.000  C
  C58      1.0000 0.06430  0.09060  0.45250  Biso   1.000  C
  C59      1.0000 0.06430  0.40940  0.95250  Biso   1.000  C
  C60      1.0000 0.93570  0.90940  0.54750  Biso   1.000  C
  C61      1.0000 0.82350  0.56020  0.94060  Biso   1.000  C
  C62      1.0000 0.17650  0.06020  0.55940  Biso   1.000  C
  C63      1.0000 0.17650  0.43980  0.05940  Biso   1.000  C
  C64      1.0000 0.82350  0.93980  0.44060  Biso   1.000  C
  C65      1.0000 0.80830  0.57900  0.80620  Biso   1.000  C
  C66      1.0000 0.19170  0.07900  0.69380  Biso   1.000  C
  C67      1.0000 0.19170  0.42100  0.19380  Biso   1.000  C
  C68      1.0000 0.80830  0.92100  0.30620  Biso   1.000  C
  C69      1.0000 0.02900  0.64080  0.01830  Biso   1.000  C
  C70      1.0000 0.97100  0.14080  0.48170  Biso   1.000  C
  C71      1.0000 0.97100  0.35920  0.98170  Biso   1.000  C
  C72      1.0000 0.02900  0.85920  0.51830  Biso   1.000  C
  H1       1.0000 0.42440  0.35190  0.99050  Biso   1.000  H
  H2       1.0000 0.57560  0.85190  0.50950  Biso   1.000  H
  H3       1.0000 0.57560  0.64810  0.00950  Biso   1.000  H
  H4       1.0000 0.42440  0.14810  0.49050  Biso   1.000  H
  H5       1.0000 0.25920  0.24380  0.95690  Biso   1.000  H
  H6       1.0000 0.74080  0.74380  0.54310  Biso   1.000  H
  H7       1.0000 0.74080  0.75620  0.04310  Biso   1.000  H
  H8       1.0000 0.25920  0.25620  0.45690  Biso   1.000  H
  H9       1.0000 0.56640  0.45380  0.90600  Biso   1.000  H
  H10      1.0000 0.43360  0.95380  0.59400  Biso   1.000  H
  H11      1.0000 0.43360  0.54620  0.09400  Biso   1.000  H
  H12      1.0000 0.56640  0.04620  0.40600  Biso   1.000  H
  H13      1.0000 0.52810  0.48320  0.67970  Biso   1.000  H
  H14      1.0000 0.47190  0.98320  0.82030  Biso   1.000  H
  H15      1.0000 0.47190  0.51680  0.32030  Biso   1.000  H
  H16      1.0000 0.52810  0.01680  0.17970  Biso   1.000  H
  H17      1.0000 0.67750  0.56120  0.61490  Biso   1.000  H
  H18      1.0000 0.32250  0.06120  0.88510  Biso   1.000  H
  H19      1.0000 0.32250  0.43880  0.38510  Biso   1.000  H
  H20      1.0000 0.67750  0.93880  0.11490  Biso   1.000  H
  H21      1.0000 0.89980  0.64030  0.68760  Biso   1.000  H
  H22      1.0000 0.10020  0.14030  0.81240  Biso   1.000  H
  H23      1.0000 0.10020  0.35970  0.31240  Biso   1.000  H
  H24      1.0000 0.89980  0.85970  0.18760  Biso   1.000  H
  H25      1.0000 0.07840  0.68900  0.85900  Biso   1.000  H
  H26      1.0000 0.92160  0.18900  0.64100  Biso   1.000  H
  H27      1.0000 0.92160  0.31100  0.14100  Biso   1.000  H
  H28      1.0000 0.07840  0.81100  0.35900  Biso   1.000  H
  H29      1.0000 0.19830  0.70520  0.11390  Biso   1.000  H
  H30      1.0000 0.80170  0.20520  0.38610  Biso   1.000  H
  H31      1.0000 0.80170  0.29480  0.88610  Biso   1.000  H
  H32      1.0000 0.19830  0.79480  0.61390  Biso   1.000  H
  H33      1.0000 0.21120  0.66770  0.33120  Biso   1.000  H
  H34      1.0000 0.78880  0.16770  0.16880  Biso   1.000  H
  H35      1.0000 0.78880  0.33230  0.66880  Biso   1.000  H
  H36      1.0000 0.21120  0.83230  0.83120  Biso   1.000  H
  H37      1.0000 0.04980  0.58330  0.36490  Biso   1.000  H
  H38      1.0000 0.95020  0.08330  0.13510  Biso   1.000  H
  H39      1.0000 0.95020  0.41670  0.63510  Biso   1.000  H
  H40      1.0000 0.04980  0.91670  0.86490  Biso   1.000  H
  H41      1.0000 0.83890  0.42240  0.38100  Biso   1.000  H
  H42      1.0000 0.16110  0.92240  0.11900  Biso   1.000  H
  H43      1.0000 0.16110  0.57760  0.61900  Biso   1.000  H
  H44      1.0000 0.83890  0.07760  0.88100  Biso   1.000  H
  H45      1.0000 0.83850  0.51510  0.42280  Biso   1.000  H
  H46      1.0000 0.16150  0.01510  0.07720  Biso   1.000  H
  H47      1.0000 0.16150  0.48490  0.57720  Biso   1.000  H
  H48      1.0000 0.83850  0.98490  0.92280  Biso   1.000  H
