data_image0
_cell_length_a       11.62
_cell_length_b       7.414
_cell_length_c       15.913
_cell_angle_alpha    90
_cell_angle_beta     103.91
_cell_angle_gamma    90

_symmetry_space_group_name_H-M    "P 1"
_symmetry_int_tables_number       1

loop_
  _symmetry_equiv_pos_as_xyz
  'x, y, z'

loop_
  _atom_site_label
  _atom_site_occupancy
  _atom_site_fract_x
  _atom_site_fract_y
  _atom_site_fract_z
  _atom_site_thermal_displace_type
  _atom_site_B_iso_or_equiv
  _atom_site_type_symbol
  Cu1      1.0000 0.85865  0.33214  0.57783  Biso   1.000  Cu
  Cu2      1.0000 0.64135  0.33214  0.92217  Biso   1.000  Cu
  Cu3      1.0000 0.14135  0.66786  0.42217  Biso   1.000  Cu
  Cu4      1.0000 0.35865  0.66786  0.07783  Biso   1.000  Cu
  Cl1      1.0000 0.25000  0.46090  0.75000  Biso   1.000  Cl
  Cl2      1.0000 0.75000  0.53910  0.25000  Biso   1.000  Cl
  O1       1.0000 0.99350  0.27370  0.52770  Biso   1.000  O
  O2       1.0000 0.50650  0.27370  0.97230  Biso   1.000  O
  O3       1.0000 0.00650  0.72630  0.47230  Biso   1.000  O
  O4       1.0000 0.49350  0.72630  0.02770  Biso   1.000  O
  O5       1.0000 0.02200  0.29800  0.55150  Biso   1.000  O
  O6       1.0000 0.47800  0.29800  0.94850  Biso   1.000  O
  O7       1.0000 0.97800  0.70200  0.44850  Biso   1.000  O
  O8       1.0000 0.52200  0.70200  0.05150  Biso   1.000  O
  O9       1.0000 0.12680  0.42490  0.47040  Biso   1.000  O
  O10      1.0000 0.37320  0.42490  0.02960  Biso   1.000  O
  O11      1.0000 0.87320  0.57510  0.52960  Biso   1.000  O
  O12      1.0000 0.62680  0.57510  0.97040  Biso   1.000  O
  O13      1.0000 0.33600  0.52900  0.81380  Biso   1.000  O
  O14      1.0000 0.16400  0.52900  0.68620  Biso   1.000  O
  O15      1.0000 0.66400  0.47100  0.18620  Biso   1.000  O
  O16      1.0000 0.83600  0.47100  0.31380  Biso   1.000  O
  O17      1.0000 0.30100  0.47400  0.68700  Biso   1.000  O
  O18      1.0000 0.19900  0.47400  0.81300  Biso   1.000  O
  O19      1.0000 0.69900  0.52600  0.31300  Biso   1.000  O
  O20      1.0000 0.80100  0.52600  0.18700  Biso   1.000  O
  O21      1.0000 0.19900  0.27600  0.75100  Biso   1.000  O
  O22      1.0000 0.30100  0.27600  0.74900  Biso   1.000  O
  O23      1.0000 0.80100  0.72400  0.24900  Biso   1.000  O
  O24      1.0000 0.69900  0.72400  0.25100  Biso   1.000  O
  O25      1.0000 0.74080  0.23100  0.45160  Biso   1.000  O
  O26      1.0000 0.75920  0.23100  0.04840  Biso   1.000  O
  O27      1.0000 0.25920  0.76900  0.54840  Biso   1.000  O
  O28      1.0000 0.24080  0.76900  0.95160  Biso   1.000  O
  O29      1.0000 0.72000  0.89200  0.42290  Biso   1.000  O
  O30      1.0000 0.78000  0.89200  0.07710  Biso   1.000  O
  O31      1.0000 0.28000  0.10800  0.57710  Biso   1.000  O
  O32      1.0000 0.22000  0.10800  0.92290  Biso   1.000  O
  N1       1.0000 0.67580  0.32000  0.67870  Biso   1.000  N
  N2       1.0000 0.82420  0.32000  0.82130  Biso   1.000  N
  N3       1.0000 0.32420  0.68000  0.32130  Biso   1.000  N
  N4       1.0000 0.17580  0.68000  0.17870  Biso   1.000  N
  N5       1.0000 0.72460  0.41170  0.62350  Biso   1.000  N
  N6       1.0000 0.77540  0.41170  0.87650  Biso   1.000  N
  N7       1.0000 0.27540  0.58830  0.37650  Biso   1.000  N
  N8       1.0000 0.22460  0.58830  0.12350  Biso   1.000  N
  N9       1.0000 0.66450  0.06980  0.78240  Biso   1.000  N
  N10      1.0000 0.83550  0.06980  0.71760  Biso   1.000  N
  N11      1.0000 0.33550  0.93020  0.21760  Biso   1.000  N
  N12      1.0000 0.16450  0.93020  0.28240  Biso   1.000  N
  N13      1.0000 0.61510  0.10850  0.85230  Biso   1.000  N
  N14      1.0000 0.88490  0.10850  0.64770  Biso   1.000  N
  N15      1.0000 0.38490  0.89150  0.14770  Biso   1.000  N
  N16      1.0000 0.11510  0.89150  0.35230  Biso   1.000  N
  C1       1.0000 0.03480  0.41260  0.50040  Biso   1.000  C
  C2       1.0000 0.46520  0.41260  0.99960  Biso   1.000  C
  C3       1.0000 0.96520  0.58740  0.49960  Biso   1.000  C
  C4       1.0000 0.53480  0.58740  0.00040  Biso   1.000  C
  C5       1.0000 0.56960  0.37800  0.67700  Biso   1.000  C
  C6       1.0000 0.93040  0.37800  0.82300  Biso   1.000  C
  C7       1.0000 0.43040  0.62200  0.32300  Biso   1.000  C
  C8       1.0000 0.06960  0.62200  0.17700  Biso   1.000  C
  H1       1.0000 0.51850  0.33250  0.70870  Biso   1.000  H
  H2       1.0000 0.98150  0.33250  0.79130  Biso   1.000  H
  H3       1.0000 0.48150  0.66750  0.29130  Biso   1.000  H
  H4       1.0000 0.01850  0.66750  0.20870  Biso   1.000  H
  C9       1.0000 0.54660  0.52430  0.61710  Biso   1.000  C
  C10      1.0000 0.95340  0.52430  0.88290  Biso   1.000  C
  C11      1.0000 0.45340  0.47570  0.38290  Biso   1.000  C
  C12      1.0000 0.04660  0.47570  0.11710  Biso   1.000  C
  H5       1.0000 0.47890  0.59560  0.60270  Biso   1.000  H
  H6       1.0000 0.02110  0.59560  0.89730  Biso   1.000  H
  H7       1.0000 0.52110  0.40440  0.39730  Biso   1.000  H
  H8       1.0000 0.97890  0.40440  0.10270  Biso   1.000  H
  C13      1.0000 0.64260  0.53660  0.58640  Biso   1.000  C
  C14      1.0000 0.85740  0.53660  0.91360  Biso   1.000  C
  C15      1.0000 0.35740  0.46340  0.41360  Biso   1.000  C
  C16      1.0000 0.14260  0.46340  0.08640  Biso   1.000  C
  H9       1.0000 0.65260  0.61970  0.54500  Biso   1.000  H
  H10      1.0000 0.84740  0.61970  0.95500  Biso   1.000  H
  H11      1.0000 0.34740  0.38030  0.45500  Biso   1.000  H
  H12      1.0000 0.15260  0.38030  0.04500  Biso   1.000  H
  C17      1.0000 0.61130  0.92510  0.74540  Biso   1.000  C
  C18      1.0000 0.88870  0.92510  0.75460  Biso   1.000  C
  C19      1.0000 0.38870  0.07490  0.25460  Biso   1.000  C
  C20      1.0000 0.11130  0.07490  0.24540  Biso   1.000  C
  H13      1.0000 0.62660  0.87280  0.69610  Biso   1.000  H
  H14      1.0000 0.87340  0.87280  0.80390  Biso   1.000  H
  H15      1.0000 0.37340  0.12720  0.30390  Biso   1.000  H
  H16      1.0000 0.12660  0.12720  0.19610  Biso   1.000  H
  C21      1.0000 0.53110  0.86000  0.78730  Biso   1.000  C
  C22      1.0000 0.96890  0.86000  0.71270  Biso   1.000  C
  C23      1.0000 0.46890  0.14000  0.21270  Biso   1.000  C
  C24      1.0000 0.03110  0.14000  0.28730  Biso   1.000  C
  H17      1.0000 0.48260  0.75870  0.77460  Biso   1.000  H
  H18      1.0000 0.01740  0.75870  0.72540  Biso   1.000  H
  H19      1.0000 0.51740  0.24130  0.22540  Biso   1.000  H
  H20      1.0000 0.98260  0.24130  0.27460  Biso   1.000  H
  C25      1.0000 0.54080  0.98350  0.85360  Biso   1.000  C
  C26      1.0000 0.95920  0.98350  0.64640  Biso   1.000  C
  C27      1.0000 0.45920  0.01650  0.14640  Biso   1.000  C
  C28      1.0000 0.04080  0.01650  0.35360  Biso   1.000  C
  H21      1.0000 0.49710  0.97590  0.89540  Biso   1.000  H
  H22      1.0000 0.00290  0.97590  0.60460  Biso   1.000  H
  H23      1.0000 0.50290  0.02410  0.10460  Biso   1.000  H
  H24      1.0000 0.99710  0.02410  0.39540  Biso   1.000  H
  B1       1.0000 0.75000  0.19100  0.75000  Biso   1.000  B
  B2       1.0000 0.25000  0.80900  0.25000  Biso   1.000  B
