data_image0
_cell_length_a       15.8848
_cell_length_b       7.5365
_cell_length_c       19.926
_cell_angle_alpha    90
_cell_angle_beta     108.434
_cell_angle_gamma    90

_symmetry_space_group_name_H-M    "P 1"
_symmetry_int_tables_number       1

loop_
  _symmetry_equiv_pos_as_xyz
  'x, y, z'

loop_
  _atom_site_label
  _atom_site_occupancy
  _atom_site_fract_x
  _atom_site_fract_y
  _atom_site_fract_z
  _atom_site_thermal_displace_type
  _atom_site_B_iso_or_equiv
  _atom_site_type_symbol
  Cu1      1.0000 0.67951  0.55550  0.54375  Biso   1.000  Cu
  Cu2      1.0000 0.32049  0.05550  0.95625  Biso   1.000  Cu
  Cu3      1.0000 0.32049  0.44450  0.45625  Biso   1.000  Cu
  Cu4      1.0000 0.67951  0.94450  0.04375  Biso   1.000  Cu
  Cu5      1.0000 0.80502  0.83174  0.39154  Biso   1.000  Cu
  Cu6      1.0000 0.19498  0.33174  0.10846  Biso   1.000  Cu
  Cu7      1.0000 0.19498  0.16826  0.60846  Biso   1.000  Cu
  Cu8      1.0000 0.80502  0.66826  0.89154  Biso   1.000  Cu
  O1       1.0000 0.82047  0.03590  0.45737  Biso   1.000  O
  O2       1.0000 0.17953  0.53590  0.04263  Biso   1.000  O
  O3       1.0000 0.17953  0.96410  0.54263  Biso   1.000  O
  O4       1.0000 0.82047  0.46410  0.95737  Biso   1.000  O
  O5       1.0000 0.64878  0.25450  0.58331  Biso   1.000  O
  O6       1.0000 0.35122  0.75450  0.91669  Biso   1.000  O
  O7       1.0000 0.35122  0.74550  0.41669  Biso   1.000  O
  O8       1.0000 0.64878  0.24550  0.08331  Biso   1.000  O
  O9       1.0000 0.71570  0.05470  0.54299  Biso   1.000  O
  O10      1.0000 0.28430  0.55470  0.95701  Biso   1.000  O
  O11      1.0000 0.28430  0.94530  0.45701  Biso   1.000  O
  O12      1.0000 0.71570  0.44530  0.04299  Biso   1.000  O
  O13      1.0000 0.72052  0.32690  0.51269  Biso   1.000  O
  O14      1.0000 0.27948  0.82690  0.98731  Biso   1.000  O
  O15      1.0000 0.27948  0.67310  0.48731  Biso   1.000  O
  O16      1.0000 0.72052  0.17310  0.01269  Biso   1.000  O
  O17      1.0000 0.70655  0.70090  0.44518  Biso   1.000  O
  O18      1.0000 0.29345  0.20090  0.05482  Biso   1.000  O
  O19      1.0000 0.29345  0.29910  0.55482  Biso   1.000  O
  O20      1.0000 0.70655  0.79910  0.94518  Biso   1.000  O
  O21      1.0000 0.58805  0.56750  0.44711  Biso   1.000  O
  O22      1.0000 0.41195  0.06750  0.05289  Biso   1.000  O
  O23      1.0000 0.41195  0.43250  0.55289  Biso   1.000  O
  O24      1.0000 0.58805  0.93250  0.94711  Biso   1.000  O
  O25      1.0000 0.59708  0.66650  0.34823  Biso   1.000  O
  O26      1.0000 0.40292  0.16650  0.15177  Biso   1.000  O
  O27      1.0000 0.40292  0.33350  0.65177  Biso   1.000  O
  O28      1.0000 0.59708  0.83350  0.84823  Biso   1.000  O
  O29      1.0000 0.97350  0.87520  0.41891  Biso   1.000  O
  O30      1.0000 0.02650  0.37520  0.08109  Biso   1.000  O
  O31      1.0000 0.02650  0.12480  0.58109  Biso   1.000  O
  O32      1.0000 0.97350  0.62480  0.91891  Biso   1.000  O
  O33      1.0000 0.89873  0.71010  0.46824  Biso   1.000  O
  O34      1.0000 0.10127  0.21010  0.03176  Biso   1.000  O
  O35      1.0000 0.10127  0.28990  0.53176  Biso   1.000  O
  O36      1.0000 0.89873  0.78990  0.96824  Biso   1.000  O
  O37      1.0000 0.04200  0.73050  0.51200  Biso   1.000  O
  O38      1.0000 0.95800  0.23050  0.98800  Biso   1.000  O
  O39      1.0000 0.95800  0.26950  0.48800  Biso   1.000  O
  O40      1.0000 0.04200  0.76950  0.01200  Biso   1.000  O
  N1       1.0000 0.69420  0.20890  0.54689  Biso   1.000  N
  N2       1.0000 0.30580  0.70890  0.95311  Biso   1.000  N
  N3       1.0000 0.30580  0.79110  0.45311  Biso   1.000  N
  N4       1.0000 0.69420  0.29110  0.04689  Biso   1.000  N
  N5       1.0000 0.63040  0.64700  0.41133  Biso   1.000  N
  N6       1.0000 0.36960  0.14700  0.08867  Biso   1.000  N
  N7       1.0000 0.36960  0.35300  0.58867  Biso   1.000  N
  N8       1.0000 0.63040  0.85300  0.91133  Biso   1.000  N
  N9       1.0000 0.97400  0.77310  0.46642  Biso   1.000  N
  N10      1.0000 0.02600  0.27310  0.03358  Biso   1.000  N
  N11      1.0000 0.02600  0.22690  0.53358  Biso   1.000  N
  N12      1.0000 0.97400  0.72690  0.96642  Biso   1.000  N
  N13      1.0000 0.79634  0.64450  0.68717  Biso   1.000  N
  N14      1.0000 0.20366  0.14450  0.81283  Biso   1.000  N
  N15      1.0000 0.20366  0.35550  0.31283  Biso   1.000  N
  N16      1.0000 0.79634  0.85550  0.18717  Biso   1.000  N
  N17      1.0000 0.78725  0.56680  0.62380  Biso   1.000  N
  N18      1.0000 0.21275  0.06680  0.87620  Biso   1.000  N
  N19      1.0000 0.21275  0.43320  0.37620  Biso   1.000  N
  N20      1.0000 0.78725  0.93320  0.12380  Biso   1.000  N
  N21      1.0000 0.64220  0.79060  0.64992  Biso   1.000  N
  N22      1.0000 0.35780  0.29060  0.85008  Biso   1.000  N
  N23      1.0000 0.35780  0.20940  0.35008  Biso   1.000  N
  N24      1.0000 0.64220  0.70940  0.14992  Biso   1.000  N
  N25      1.0000 0.61462  0.72350  0.58193  Biso   1.000  N
  N26      1.0000 0.38538  0.22350  0.91807  Biso   1.000  N
  N27      1.0000 0.38538  0.27650  0.41807  Biso   1.000  N
  N28      1.0000 0.61462  0.77650  0.08193  Biso   1.000  N
  N29      1.0000 0.68179  0.57990  0.74930  Biso   1.000  N
  N30      1.0000 0.31821  0.07990  0.75070  Biso   1.000  N
  N31      1.0000 0.31821  0.42010  0.25070  Biso   1.000  N
  N32      1.0000 0.68179  0.92010  0.24930  Biso   1.000  N
  N33      1.0000 0.72060  0.52790  0.81767  Biso   1.000  N
  N34      1.0000 0.27940  0.02790  0.68233  Biso   1.000  N
  N35      1.0000 0.27940  0.47210  0.18233  Biso   1.000  N
  N36      1.0000 0.72060  0.97210  0.31767  Biso   1.000  N
  N37      1.0000 0.75885  0.88060  0.75865  Biso   1.000  N
  N38      1.0000 0.24115  0.38060  0.74135  Biso   1.000  N
  N39      1.0000 0.24115  0.11940  0.24135  Biso   1.000  N
  N40      1.0000 0.75885  0.61940  0.25865  Biso   1.000  N
  N41      1.0000 0.79967  0.87360  0.82959  Biso   1.000  N
  N42      1.0000 0.20033  0.37360  0.67041  Biso   1.000  N
  N43      1.0000 0.20033  0.12640  0.17041  Biso   1.000  N
  N44      1.0000 0.79967  0.62640  0.32959  Biso   1.000  N
  C1       1.0000 0.88180  0.63380  0.72690  Biso   1.000  C
  C2       1.0000 0.11820  0.13380  0.77310  Biso   1.000  C
  C3       1.0000 0.11820  0.36620  0.27310  Biso   1.000  C
  C4       1.0000 0.88180  0.86620  0.22690  Biso   1.000  C
  H1       1.0000 0.90530  0.67670  0.77280  Biso   1.000  H
  H2       1.0000 0.09470  0.17670  0.72720  Biso   1.000  H
  H3       1.0000 0.09470  0.32330  0.22720  Biso   1.000  H
  H4       1.0000 0.90530  0.82330  0.27280  Biso   1.000  H
  C5       1.0000 0.92900  0.55000  0.68955  Biso   1.000  C
  C6       1.0000 0.07100  0.05000  0.81045  Biso   1.000  C
  C7       1.0000 0.07100  0.45000  0.31045  Biso   1.000  C
  C8       1.0000 0.92900  0.95000  0.18955  Biso   1.000  C
  H5       1.0000 0.98930  0.52420  0.70420  Biso   1.000  H
  H6       1.0000 0.01070  0.02420  0.79580  Biso   1.000  H
  H7       1.0000 0.01070  0.47580  0.29580  Biso   1.000  H
  H8       1.0000 0.98930  0.97580  0.20420  Biso   1.000  H
  C9       1.0000 0.86690  0.51250  0.62547  Biso   1.000  C
  C10      1.0000 0.13310  0.01250  0.87453  Biso   1.000  C
  C11      1.0000 0.13310  0.48750  0.37453  Biso   1.000  C
  C12      1.0000 0.86690  0.98750  0.12547  Biso   1.000  C
  H9       1.0000 0.87930  0.45620  0.58810  Biso   1.000  H
  H10      1.0000 0.12070  0.95620  0.91190  Biso   1.000  H
  H11      1.0000 0.12070  0.54380  0.41190  Biso   1.000  H
  H12      1.0000 0.87930  0.04380  0.08810  Biso   1.000  H
  C13      1.0000 0.57720  0.89770  0.65695  Biso   1.000  C
  C14      1.0000 0.42280  0.39770  0.84305  Biso   1.000  C
  C15      1.0000 0.42280  0.10230  0.34305  Biso   1.000  C
  C16      1.0000 0.57720  0.60230  0.15695  Biso   1.000  C
  H13      1.0000 0.57840  0.95740  0.69810  Biso   1.000  H
  H14      1.0000 0.42160  0.45740  0.80190  Biso   1.000  H
  H15      1.0000 0.42160  0.04260  0.30190  Biso   1.000  H
  H16      1.0000 0.57840  0.54260  0.19810  Biso   1.000  H
  C17      1.0000 0.51030  0.90440  0.59523  Biso   1.000  C
  C18      1.0000 0.48970  0.40440  0.90477  Biso   1.000  C
  C19      1.0000 0.48970  0.09560  0.40477  Biso   1.000  C
  C20      1.0000 0.51030  0.59560  0.09523  Biso   1.000  C
  H17      1.0000 0.45800  0.96930  0.58530  Biso   1.000  H
  H18      1.0000 0.54200  0.46930  0.91470  Biso   1.000  H
  H19      1.0000 0.54200  0.03070  0.41470  Biso   1.000  H
  H20      1.0000 0.45800  0.53070  0.08530  Biso   1.000  H
  C21      1.0000 0.53600  0.79540  0.55021  Biso   1.000  C
  C22      1.0000 0.46400  0.29540  0.94979  Biso   1.000  C
  C23      1.0000 0.46400  0.20460  0.44979  Biso   1.000  C
  C24      1.0000 0.53600  0.70460  0.05021  Biso   1.000  C
  H21      1.0000 0.50250  0.77450  0.50340  Biso   1.000  H
  H22      1.0000 0.49750  0.27450  0.99660  Biso   1.000  H
  H23      1.0000 0.49750  0.22550  0.49660  Biso   1.000  H
  H24      1.0000 0.50250  0.72550  0.00340  Biso   1.000  H
  C25      1.0000 0.61060  0.47770  0.71955  Biso   1.000  C
  C26      1.0000 0.38940  0.97770  0.78045  Biso   1.000  C
  C27      1.0000 0.38940  0.52230  0.28045  Biso   1.000  C
  C28      1.0000 0.61060  0.02230  0.21955  Biso   1.000  C
  H25      1.0000 0.57290  0.48750  0.67330  Biso   1.000  H
  H26      1.0000 0.42710  0.98750  0.82670  Biso   1.000  H
  H27      1.0000 0.42710  0.51250  0.32670  Biso   1.000  H
  H28      1.0000 0.57290  0.01250  0.17330  Biso   1.000  H
  C29      1.0000 0.60240  0.35740  0.76797  Biso   1.000  C
  C30      1.0000 0.39760  0.85740  0.73203  Biso   1.000  C
  C31      1.0000 0.39760  0.64260  0.23203  Biso   1.000  C
  C32      1.0000 0.60240  0.14260  0.26797  Biso   1.000  C
  H29      1.0000 0.55930  0.27010  0.76190  Biso   1.000  H
  H30      1.0000 0.44070  0.77010  0.73810  Biso   1.000  H
  H31      1.0000 0.44070  0.72990  0.23810  Biso   1.000  H
  H32      1.0000 0.55930  0.22990  0.26190  Biso   1.000  H
  C33      1.0000 0.67230  0.39320  0.82805  Biso   1.000  C
  C34      1.0000 0.32770  0.89320  0.67195  Biso   1.000  C
  C35      1.0000 0.32770  0.60680  0.17195  Biso   1.000  C
  C36      1.0000 0.67230  0.10680  0.32805  Biso   1.000  C
  H33      1.0000 0.68410  0.33110  0.87040  Biso   1.000  H
  H34      1.0000 0.31590  0.83110  0.62960  Biso   1.000  H
  H35      1.0000 0.31590  0.66890  0.12960  Biso   1.000  H
  H36      1.0000 0.68410  0.16890  0.37040  Biso   1.000  H
  C37      1.0000 0.77590  0.03970  0.73564  Biso   1.000  C
  C38      1.0000 0.22410  0.53970  0.76436  Biso   1.000  C
  C39      1.0000 0.22410  0.96030  0.26436  Biso   1.000  C
  C40      1.0000 0.77590  0.46030  0.23564  Biso   1.000  C
  H37      1.0000 0.75620  0.07720  0.68880  Biso   1.000  H
  H38      1.0000 0.24380  0.57720  0.81120  Biso   1.000  H
  H39      1.0000 0.24380  0.92280  0.31120  Biso   1.000  H
  H40      1.0000 0.75620  0.42280  0.18880  Biso   1.000  H
  C41      1.0000 0.82620  0.13770  0.79080  Biso   1.000  C
  C42      1.0000 0.17380  0.63770  0.70920  Biso   1.000  C
  C43      1.0000 0.17380  0.86230  0.20920  Biso   1.000  C
  C44      1.0000 0.82620  0.36230  0.29080  Biso   1.000  C
  H41      1.0000 0.84710  0.25270  0.78990  Biso   1.000  H
  H42      1.0000 0.15290  0.75270  0.71010  Biso   1.000  H
  H43      1.0000 0.15290  0.74730  0.21010  Biso   1.000  H
  H44      1.0000 0.84710  0.24730  0.28990  Biso   1.000  H
  C45      1.0000 0.83929  0.02770  0.84837  Biso   1.000  C
  C46      1.0000 0.16071  0.52770  0.65163  Biso   1.000  C
  C47      1.0000 0.16071  0.97230  0.15163  Biso   1.000  C
  C48      1.0000 0.83929  0.47230  0.34837  Biso   1.000  C
  H45      1.0000 0.87180  0.05820  0.89450  Biso   1.000  H
  H46      1.0000 0.12820  0.55820  0.60550  Biso   1.000  H
  H47      1.0000 0.12820  0.94180  0.10550  Biso   1.000  H
  H48      1.0000 0.87180  0.44180  0.39450  Biso   1.000  H
  B1       1.0000 0.71991  0.72140  0.71126  Biso   1.000  B
  B2       1.0000 0.28009  0.22140  0.78874  Biso   1.000  B
  B3       1.0000 0.28009  0.27860  0.28874  Biso   1.000  B
  B4       1.0000 0.71991  0.77860  0.21126  Biso   1.000  B
