data_image0
_cell_length_a       14.384
_cell_length_b       7.339
_cell_length_c       21.55
_cell_angle_alpha    90
_cell_angle_beta     99.62
_cell_angle_gamma    90

_symmetry_space_group_name_H-M    "P 1"
_symmetry_int_tables_number       1

loop_
  _symmetry_equiv_pos_as_xyz
  'x, y, z'

loop_
  _atom_site_label
  _atom_site_occupancy
  _atom_site_fract_x
  _atom_site_fract_y
  _atom_site_fract_z
  _atom_site_thermal_displace_type
  _atom_site_B_iso_or_equiv
  _atom_site_type_symbol
  Cu1      1.0000 0.02733  0.68170  0.38255  Biso   1.000  Cu
  Cu2      1.0000 0.02733  0.31830  0.88255  Biso   1.000  Cu
  Cu3      1.0000 0.52733  0.18170  0.38255  Biso   1.000  Cu
  Cu4      1.0000 0.52733  0.81830  0.88255  Biso   1.000  Cu
  Cu5      1.0000 0.95019  0.31850  0.17283  Biso   1.000  Cu
  Cu6      1.0000 0.95019  0.68150  0.67283  Biso   1.000  Cu
  Cu7      1.0000 0.45019  0.81850  0.17283  Biso   1.000  Cu
  Cu8      1.0000 0.45019  0.18150  0.67283  Biso   1.000  Cu
  O1       1.0000 0.05350  0.43820  0.34990  Biso   1.000  O
  O2       1.0000 0.05350  0.56180  0.84990  Biso   1.000  O
  O3       1.0000 0.55350  0.93820  0.34990  Biso   1.000  O
  O4       1.0000 0.55350  0.06180  0.84990  Biso   1.000  O
  O5       1.0000 0.95260  0.71410  0.29740  Biso   1.000  O
  O6       1.0000 0.95260  0.28590  0.79740  Biso   1.000  O
  O7       1.0000 0.45260  0.21410  0.29740  Biso   1.000  O
  O8       1.0000 0.45260  0.78590  0.79740  Biso   1.000  O
  O9       1.0000 0.02480  0.28440  0.25970  Biso   1.000  O
  O10      1.0000 0.02480  0.71560  0.75970  Biso   1.000  O
  O11      1.0000 0.52480  0.78440  0.25970  Biso   1.000  O
  O12      1.0000 0.52480  0.21560  0.75970  Biso   1.000  O
  O13      1.0000 0.92360  0.56540  0.20620  Biso   1.000  O
  O14      1.0000 0.92360  0.43460  0.70620  Biso   1.000  O
  O15      1.0000 0.42360  0.06540  0.20620  Biso   1.000  O
  O16      1.0000 0.42360  0.93460  0.70620  Biso   1.000  O
  O17      1.0000 0.82840  0.17630  0.19780  Biso   1.000  O
  O18      1.0000 0.82840  0.82370  0.69780  Biso   1.000  O
  O19      1.0000 0.32840  0.67630  0.19780  Biso   1.000  O
  O20      1.0000 0.32840  0.32370  0.69780  Biso   1.000  O
  O21      1.0000 0.72360  0.11010  0.25800  Biso   1.000  O
  O22      1.0000 0.72360  0.88990  0.75800  Biso   1.000  O
  O23      1.0000 0.22360  0.61010  0.25800  Biso   1.000  O
  O24      1.0000 0.22360  0.38990  0.75800  Biso   1.000  O
  O25      1.0000 0.81180  0.35040  0.27560  Biso   1.000  O
  O26      1.0000 0.81180  0.64960  0.77560  Biso   1.000  O
  O27      1.0000 0.31180  0.85040  0.27560  Biso   1.000  O
  O28      1.0000 0.31180  0.14960  0.77560  Biso   1.000  O
  O29      1.0000 0.16120  0.81870  0.35600  Biso   1.000  O
  O30      1.0000 0.16120  0.18130  0.85600  Biso   1.000  O
  O31      1.0000 0.66120  0.31870  0.35600  Biso   1.000  O
  O32      1.0000 0.66120  0.68130  0.85600  Biso   1.000  O
  O33      1.0000 0.75750  0.80700  0.20910  Biso   1.000  O
  O34      1.0000 0.75750  0.19300  0.70910  Biso   1.000  O
  O35      1.0000 0.25750  0.30700  0.20910  Biso   1.000  O
  O36      1.0000 0.25750  0.69300  0.70910  Biso   1.000  O
  O37      1.0000 0.22920  0.21900  0.33830  Biso   1.000  O
  O38      1.0000 0.22920  0.78100  0.83830  Biso   1.000  O
  O39      1.0000 0.72920  0.71900  0.33830  Biso   1.000  O
  O40      1.0000 0.72920  0.28100  0.83830  Biso   1.000  O
  N1       1.0000 0.78890  0.21210  0.24220  Biso   1.000  N
  N2       1.0000 0.78890  0.78790  0.74220  Biso   1.000  N
  N3       1.0000 0.28890  0.71210  0.24220  Biso   1.000  N
  N4       1.0000 0.28890  0.28790  0.74220  Biso   1.000  N
  N5       1.0000 0.07970  0.69700  0.52300  Biso   1.000  N
  N6       1.0000 0.07970  0.30300  0.02300  Biso   1.000  N
  N7       1.0000 0.57970  0.19700  0.52300  Biso   1.000  N
  N8       1.0000 0.57970  0.80300  0.02300  Biso   1.000  N
  N9       1.0000 0.08740  0.61000  0.46730  Biso   1.000  N
  N10      1.0000 0.08740  0.39000  0.96730  Biso   1.000  N
  N11      1.0000 0.58740  0.11000  0.46730  Biso   1.000  N
  N12      1.0000 0.58740  0.89000  0.96730  Biso   1.000  N
  N13      1.0000 0.96340  0.94850  0.47020  Biso   1.000  N
  N14      1.0000 0.96340  0.05150  0.97020  Biso   1.000  N
  N15      1.0000 0.46340  0.44850  0.47020  Biso   1.000  N
  N16      1.0000 0.46340  0.55150  0.97020  Biso   1.000  N
  N17      1.0000 0.97030  0.90730  0.40930  Biso   1.000  N
  N18      1.0000 0.97030  0.09270  0.90930  Biso   1.000  N
  N19      1.0000 0.47030  0.40730  0.40930  Biso   1.000  N
  N20      1.0000 0.47030  0.59270  0.90930  Biso   1.000  N
  N21      1.0000 0.01970  0.94280  0.58420  Biso   1.000  N
  N22      1.0000 0.01970  0.05720  0.08420  Biso   1.000  N
  N23      1.0000 0.51970  0.44280  0.58420  Biso   1.000  N
  N24      1.0000 0.51970  0.55720  0.08420  Biso   1.000  N
  N25      1.0000 0.00330  0.90050  0.64320  Biso   1.000  N
  N26      1.0000 0.00330  0.09950  0.14320  Biso   1.000  N
  N27      1.0000 0.50330  0.40050  0.64320  Biso   1.000  N
  N28      1.0000 0.50330  0.59950  0.14320  Biso   1.000  N
  N29      1.0000 0.90700  0.70220  0.53520  Biso   1.000  N
  N30      1.0000 0.90700  0.29780  0.03520  Biso   1.000  N
  N31      1.0000 0.40700  0.20220  0.53520  Biso   1.000  N
  N32      1.0000 0.40700  0.79780  0.03520  Biso   1.000  N
  N33      1.0000 0.89560  0.60680  0.58680  Biso   1.000  N
  N34      1.0000 0.89560  0.39320  0.08680  Biso   1.000  N
  N35      1.0000 0.39560  0.10680  0.58680  Biso   1.000  N
  N36      1.0000 0.39560  0.89320  0.08680  Biso   1.000  N
  C1       1.0000 0.01880  0.41560  0.29180  Biso   1.000  C
  C2       1.0000 0.01880  0.58440  0.79180  Biso   1.000  C
  C3       1.0000 0.51880  0.91560  0.29180  Biso   1.000  C
  C4       1.0000 0.51880  0.08440  0.79180  Biso   1.000  C
  C5       1.0000 0.96040  0.57400  0.26110  Biso   1.000  C
  C6       1.0000 0.96040  0.42600  0.76110  Biso   1.000  C
  C7       1.0000 0.46040  0.07400  0.26110  Biso   1.000  C
  C8       1.0000 0.46040  0.92600  0.76110  Biso   1.000  C
  C9       1.0000 0.14550  0.63240  0.56780  Biso   1.000  C
  C10      1.0000 0.14550  0.36760  0.06780  Biso   1.000  C
  C11      1.0000 0.64550  0.13240  0.56780  Biso   1.000  C
  C12      1.0000 0.64550  0.86760  0.06780  Biso   1.000  C
  H1       1.0000 0.15450  0.67140  0.60940  Biso   1.000  H
  H2       1.0000 0.15450  0.32860  0.10940  Biso   1.000  H
  H3       1.0000 0.65450  0.17140  0.60940  Biso   1.000  H
  H4       1.0000 0.65450  0.82860  0.10940  Biso   1.000  H
  C13      1.0000 0.19550  0.51000  0.54700  Biso   1.000  C
  C14      1.0000 0.19550  0.49000  0.04700  Biso   1.000  C
  C15      1.0000 0.69550  0.01000  0.54700  Biso   1.000  C
  C16      1.0000 0.69550  0.99000  0.04700  Biso   1.000  C
  H5       1.0000 0.24560  0.44490  0.56950  Biso   1.000  H
  H6       1.0000 0.24560  0.55510  0.06950  Biso   1.000  H
  H7       1.0000 0.74560  0.94490  0.56950  Biso   1.000  H
  H8       1.0000 0.74560  0.05510  0.06950  Biso   1.000  H
  C17      1.0000 0.15900  0.49400  0.48420  Biso   1.000  C
  C18      1.0000 0.15900  0.50600  0.98420  Biso   1.000  C
  C19      1.0000 0.65900  0.99400  0.48420  Biso   1.000  C
  C20      1.0000 0.65900  0.00600  0.98420  Biso   1.000  C
  H9       1.0000 0.18110  0.41290  0.45690  Biso   1.000  H
  H10      1.0000 0.18110  0.58710  0.95690  Biso   1.000  H
  H11      1.0000 0.68110  0.91290  0.45690  Biso   1.000  H
  H12      1.0000 0.68110  0.08710  0.95690  Biso   1.000  H
  C21      1.0000 0.91080  0.10300  0.47060  Biso   1.000  C
  C22      1.0000 0.91080  0.89700  0.97060  Biso   1.000  C
  C23      1.0000 0.41080  0.60300  0.47060  Biso   1.000  C
  C24      1.0000 0.41080  0.39700  0.97060  Biso   1.000  C
  H13      1.0000 0.89440  0.15970  0.50590  Biso   1.000  H
  H14      1.0000 0.89440  0.84030  0.00590  Biso   1.000  H
  H15      1.0000 0.39440  0.65970  0.50590  Biso   1.000  H
  H16      1.0000 0.39440  0.34030  0.00590  Biso   1.000  H
  C25      1.0000 0.88630  0.16000  0.40880  Biso   1.000  C
  C26      1.0000 0.88630  0.84000  0.90880  Biso   1.000  C
  C27      1.0000 0.38630  0.66000  0.40880  Biso   1.000  C
  C28      1.0000 0.38630  0.34000  0.90880  Biso   1.000  C
  H17      1.0000 0.84630  0.25490  0.39360  Biso   1.000  H
  H18      1.0000 0.84630  0.74510  0.89360  Biso   1.000  H
  H19      1.0000 0.34630  0.75490  0.39360  Biso   1.000  H
  H20      1.0000 0.34630  0.24510  0.89360  Biso   1.000  H
  C29      1.0000 0.93490  0.04200  0.37420  Biso   1.000  C
  C30      1.0000 0.93490  0.95800  0.87420  Biso   1.000  C
  C31      1.0000 0.43490  0.54200  0.37420  Biso   1.000  C
  C32      1.0000 0.43490  0.45800  0.87420  Biso   1.000  C
  H21      1.0000 0.94090  0.05870  0.33220  Biso   1.000  H
  H22      1.0000 0.94090  0.94130  0.83220  Biso   1.000  H
  H23      1.0000 0.44090  0.55870  0.33220  Biso   1.000  H
  H24      1.0000 0.44090  0.44130  0.83220  Biso   1.000  H
  C33      1.0000 0.06800  0.10000  0.58690  Biso   1.000  C
  C34      1.0000 0.06800  0.90000  0.08690  Biso   1.000  C
  C35      1.0000 0.56800  0.60000  0.58690  Biso   1.000  C
  C36      1.0000 0.56800  0.40000  0.08690  Biso   1.000  C
  H25      1.0000 0.08810  0.15530  0.55260  Biso   1.000  H
  H26      1.0000 0.08810  0.84470  0.05260  Biso   1.000  H
  H27      1.0000 0.58810  0.65530  0.55260  Biso   1.000  H
  H28      1.0000 0.58810  0.34470  0.05260  Biso   1.000  H
  C37      1.0000 0.08360  0.16780  0.64680  Biso   1.000  C
  C38      1.0000 0.08360  0.83220  0.14680  Biso   1.000  C
  C39      1.0000 0.58360  0.66780  0.64680  Biso   1.000  C
  C40      1.0000 0.58360  0.33220  0.14680  Biso   1.000  C
  H29      1.0000 0.11010  0.27900  0.66090  Biso   1.000  H
  H30      1.0000 0.11010  0.72100  0.16090  Biso   1.000  H
  H31      1.0000 0.61010  0.77900  0.66090  Biso   1.000  H
  H32      1.0000 0.61010  0.22100  0.16090  Biso   1.000  H
  C41      1.0000 0.05070  0.03300  0.68100  Biso   1.000  C
  C42      1.0000 0.05070  0.96700  0.18100  Biso   1.000  C
  C43      1.0000 0.55070  0.53300  0.68100  Biso   1.000  C
  C44      1.0000 0.55070  0.46700  0.18100  Biso   1.000  C
  H33      1.0000 0.05940  0.03080  0.72470  Biso   1.000  H
  H34      1.0000 0.05940  0.96920  0.22470  Biso   1.000  H
  H35      1.0000 0.55940  0.53080  0.72470  Biso   1.000  H
  H36      1.0000 0.55940  0.46920  0.22470  Biso   1.000  H
  C45      1.0000 0.84460  0.64600  0.48620  Biso   1.000  C
  C46      1.0000 0.84460  0.35400  0.98620  Biso   1.000  C
  C47      1.0000 0.34460  0.14600  0.48620  Biso   1.000  C
  C48      1.0000 0.34460  0.85400  0.98620  Biso   1.000  C
  H37      1.0000 0.83970  0.68680  0.44490  Biso   1.000  H
  H38      1.0000 0.83970  0.31320  0.94490  Biso   1.000  H
  H39      1.0000 0.33970  0.18680  0.44490  Biso   1.000  H
  H40      1.0000 0.33970  0.81320  0.94490  Biso   1.000  H
  C49      1.0000 0.78430  0.50700  0.50980  Biso   1.000  C
  C50      1.0000 0.78430  0.49300  0.00980  Biso   1.000  C
  C51      1.0000 0.28430  0.00700  0.50980  Biso   1.000  C
  C52      1.0000 0.28430  0.99300  0.00980  Biso   1.000  C
  H41      1.0000 0.73350  0.44300  0.48770  Biso   1.000  H
  H42      1.0000 0.73350  0.55700  0.98770  Biso   1.000  H
  H43      1.0000 0.23350  0.94300  0.48770  Biso   1.000  H
  H44      1.0000 0.23350  0.05700  0.98770  Biso   1.000  H
  C53      1.0000 0.82290  0.49600  0.57320  Biso   1.000  C
  C54      1.0000 0.82290  0.50400  0.07320  Biso   1.000  C
  C55      1.0000 0.32290  0.99600  0.57320  Biso   1.000  C
  C56      1.0000 0.32290  0.00400  0.07320  Biso   1.000  C
  H45      1.0000 0.80060  0.42040  0.60210  Biso   1.000  H
  H46      1.0000 0.80060  0.57960  0.10210  Biso   1.000  H
  H47      1.0000 0.30060  0.92040  0.60210  Biso   1.000  H
  H48      1.0000 0.30060  0.07960  0.10210  Biso   1.000  H
  B1       1.0000 0.99260  0.82240  0.53210  Biso   1.000  B
  B2       1.0000 0.99260  0.17760  0.03210  Biso   1.000  B
  B3       1.0000 0.49260  0.32240  0.53210  Biso   1.000  B
  B4       1.0000 0.49260  0.67760  0.03210  Biso   1.000  B
