data_image0
_cell_length_a       11.607
_cell_length_b       16.953
_cell_length_c       12.986
_cell_angle_alpha    90
_cell_angle_beta     110.83
_cell_angle_gamma    90

_symmetry_space_group_name_H-M    "P 1"
_symmetry_int_tables_number       1

loop_
  _symmetry_equiv_pos_as_xyz
  'x, y, z'

loop_
  _atom_site_label
  _atom_site_occupancy
  _atom_site_fract_x
  _atom_site_fract_y
  _atom_site_fract_z
  _atom_site_thermal_displace_type
  _atom_site_B_iso_or_equiv
  _atom_site_type_symbol
  Cu1      1.0000 0.50640  0.24960  0.22820  Biso   1.000  Cu
  Cu2      1.0000 0.49360  0.74960  0.27180  Biso   1.000  Cu
  Cu3      1.0000 0.49360  0.75040  0.77180  Biso   1.000  Cu
  Cu4      1.0000 0.50640  0.25040  0.72820  Biso   1.000  Cu
  Cu5      1.0000 0.02910  0.00660  0.41050  Biso   1.000  Cu
  Cu6      1.0000 0.97090  0.50660  0.08950  Biso   1.000  Cu
  Cu7      1.0000 0.97090  0.99340  0.58950  Biso   1.000  Cu
  Cu8      1.0000 0.02910  0.49340  0.91050  Biso   1.000  Cu
  O1       1.0000 0.42990  0.18400  0.31020  Biso   1.000  O
  O2       1.0000 0.57010  0.68400  0.18980  Biso   1.000  O
  O3       1.0000 0.57010  0.81600  0.68980  Biso   1.000  O
  O4       1.0000 0.42990  0.31600  0.81020  Biso   1.000  O
  O5       1.0000 0.31950  0.07610  0.30640  Biso   1.000  O
  O6       1.0000 0.68050  0.57610  0.19360  Biso   1.000  O
  O7       1.0000 0.68050  0.92390  0.69360  Biso   1.000  O
  O8       1.0000 0.31950  0.42390  0.80640  Biso   1.000  O
  O9       1.0000 0.56450  0.32130  0.35700  Biso   1.000  O
  O10      1.0000 0.43550  0.82130  0.14300  Biso   1.000  O
  O11      1.0000 0.43550  0.67870  0.64300  Biso   1.000  O
  O12      1.0000 0.56450  0.17870  0.85700  Biso   1.000  O
  O13      1.0000 0.70970  0.40840  0.44170  Biso   1.000  O
  O14      1.0000 0.29030  0.90840  0.05830  Biso   1.000  O
  O15      1.0000 0.29030  0.59160  0.55830  Biso   1.000  O
  O16      1.0000 0.70970  0.09160  0.94170  Biso   1.000  O
  O17      1.0000 0.89600  0.08420  0.37080  Biso   1.000  O
  O18      1.0000 0.10400  0.58420  0.12920  Biso   1.000  O
  O19      1.0000 0.10400  0.91580  0.62920  Biso   1.000  O
  O20      1.0000 0.89600  0.41580  0.87080  Biso   1.000  O
  O21      1.0000 0.84960  0.07620  0.52290  Biso   1.000  O
  O22      1.0000 0.15040  0.57620  0.97710  Biso   1.000  O
  O23      1.0000 0.15040  0.92380  0.47710  Biso   1.000  O
  O24      1.0000 0.84960  0.42380  0.02290  Biso   1.000  O
  O25      1.0000 0.09590  0.42630  0.15970  Biso   1.000  O
  O26      1.0000 0.90410  0.92630  0.34030  Biso   1.000  O
  O27      1.0000 0.90410  0.57370  0.84030  Biso   1.000  O
  O28      1.0000 0.09590  0.07370  0.65970  Biso   1.000  O
  O29      1.0000 0.14410  0.41670  0.00820  Biso   1.000  O
  O30      1.0000 0.85590  0.91670  0.49180  Biso   1.000  O
  O31      1.0000 0.85590  0.58330  0.99180  Biso   1.000  O
  O32      1.0000 0.14410  0.08330  0.50820  Biso   1.000  O
  O33      1.0000 0.08210  0.03100  0.26990  Biso   1.000  O
  O34      1.0000 0.91790  0.53100  0.23010  Biso   1.000  O
  O35      1.0000 0.91790  0.96900  0.73010  Biso   1.000  O
  O36      1.0000 0.08210  0.46900  0.76990  Biso   1.000  O
  N1       1.0000 0.42460  0.16590  0.10220  Biso   1.000  N
  N2       1.0000 0.57540  0.66590  0.39780  Biso   1.000  N
  N3       1.0000 0.57540  0.83410  0.89780  Biso   1.000  N
  N4       1.0000 0.42460  0.33410  0.60220  Biso   1.000  N
  N5       1.0000 0.67690  0.16790  0.26260  Biso   1.000  N
  N6       1.0000 0.32310  0.66790  0.23740  Biso   1.000  N
  N7       1.0000 0.32310  0.83210  0.73740  Biso   1.000  N
  N8       1.0000 0.67690  0.33210  0.76260  Biso   1.000  N
  N9       1.0000 0.61570  0.32270  0.16740  Biso   1.000  N
  N10      1.0000 0.38430  0.82270  0.33260  Biso   1.000  N
  N11      1.0000 0.38430  0.67730  0.83260  Biso   1.000  N
  N12      1.0000 0.61570  0.17730  0.66740  Biso   1.000  N
  N13      1.0000 0.35030  0.32520  0.11110  Biso   1.000  N
  N14      1.0000 0.64970  0.82520  0.38890  Biso   1.000  N
  N15      1.0000 0.64970  0.67480  0.88890  Biso   1.000  N
  N16      1.0000 0.35030  0.17480  0.61110  Biso   1.000  N
  C1       1.0000 0.52180  0.10970  0.09290  Biso   1.000  C
  C2       1.0000 0.47820  0.60970  0.40710  Biso   1.000  C
  C3       1.0000 0.47820  0.89030  0.90710  Biso   1.000  C
  C4       1.0000 0.52180  0.39030  0.59290  Biso   1.000  C
  H1       1.0000 0.47880  0.05440  0.05890  Biso   1.000  H
  H2       1.0000 0.52120  0.55440  0.44110  Biso   1.000  H
  H3       1.0000 0.52120  0.94560  0.94110  Biso   1.000  H
  H4       1.0000 0.47880  0.44560  0.55890  Biso   1.000  H
  H5       1.0000 0.56440  0.13520  0.03900  Biso   1.000  H
  H6       1.0000 0.43560  0.63520  0.46100  Biso   1.000  H
  H7       1.0000 0.43560  0.86480  0.96100  Biso   1.000  H
  H8       1.0000 0.56440  0.36480  0.53900  Biso   1.000  H
  C5       1.0000 0.61990  0.09480  0.20500  Biso   1.000  C
  C6       1.0000 0.38010  0.59480  0.29500  Biso   1.000  C
  C7       1.0000 0.38010  0.90520  0.79500  Biso   1.000  C
  C8       1.0000 0.61990  0.40520  0.70500  Biso   1.000  C
  H9       1.0000 0.69130  0.05860  0.19400  Biso   1.000  H
  H10      1.0000 0.30870  0.55860  0.30600  Biso   1.000  H
  H11      1.0000 0.30870  0.94140  0.80600  Biso   1.000  H
  H12      1.0000 0.69130  0.44140  0.69400  Biso   1.000  H
  H13      1.0000 0.57820  0.06370  0.25540  Biso   1.000  H
  H14      1.0000 0.42180  0.56370  0.24460  Biso   1.000  H
  H15      1.0000 0.42180  0.93630  0.74460  Biso   1.000  H
  H16      1.0000 0.57820  0.43630  0.75540  Biso   1.000  H
  C9       1.0000 0.76160  0.20820  0.21740  Biso   1.000  C
  C10      1.0000 0.23840  0.70820  0.28260  Biso   1.000  C
  C11      1.0000 0.23840  0.79180  0.78260  Biso   1.000  C
  C12      1.0000 0.76160  0.29180  0.71740  Biso   1.000  C
  H17      1.0000 0.83370  0.23620  0.28440  Biso   1.000  H
  H18      1.0000 0.16630  0.73620  0.21560  Biso   1.000  H
  H19      1.0000 0.16630  0.76380  0.71560  Biso   1.000  H
  H20      1.0000 0.83370  0.26380  0.78440  Biso   1.000  H
  H21      1.0000 0.80150  0.16460  0.17940  Biso   1.000  H
  H22      1.0000 0.19850  0.66460  0.32060  Biso   1.000  H
  H23      1.0000 0.19850  0.83540  0.82060  Biso   1.000  H
  H24      1.0000 0.80150  0.33540  0.67940  Biso   1.000  H
  C13      1.0000 0.69890  0.27030  0.13250  Biso   1.000  C
  C14      1.0000 0.30110  0.77030  0.36750  Biso   1.000  C
  C15      1.0000 0.30110  0.72970  0.86750  Biso   1.000  C
  C16      1.0000 0.69890  0.22970  0.63250  Biso   1.000  C
  H25      1.0000 0.64490  0.24110  0.05670  Biso   1.000  H
  H26      1.0000 0.35510  0.74110  0.44330  Biso   1.000  H
  H27      1.0000 0.35510  0.75890  0.94330  Biso   1.000  H
  H28      1.0000 0.64490  0.25890  0.55670  Biso   1.000  H
  H29      1.0000 0.76870  0.30630  0.11860  Biso   1.000  H
  H30      1.0000 0.23130  0.80630  0.38140  Biso   1.000  H
  H31      1.0000 0.23130  0.69370  0.88140  Biso   1.000  H
  H32      1.0000 0.76870  0.19370  0.61860  Biso   1.000  H
  C17      1.0000 0.53620  0.37000  0.07460  Biso   1.000  C
  C18      1.0000 0.46380  0.87000  0.42540  Biso   1.000  C
  C19      1.0000 0.46380  0.63000  0.92540  Biso   1.000  C
  C20      1.0000 0.53620  0.13000  0.57460  Biso   1.000  C
  H33      1.0000 0.58580  0.42220  0.06690  Biso   1.000  H
  H34      1.0000 0.41420  0.92220  0.43310  Biso   1.000  H
  H35      1.0000 0.41420  0.57780  0.93310  Biso   1.000  H
  H36      1.0000 0.58580  0.07780  0.56690  Biso   1.000  H
  H37      1.0000 0.51250  0.33560  0.00000  Biso   1.000  H
  H38      1.0000 0.48750  0.83560  0.50000  Biso   1.000  H
  H39      1.0000 0.48750  0.66440  0.00000  Biso   1.000  H
  H40      1.0000 0.51250  0.16440  0.50000  Biso   1.000  H
  C21      1.0000 0.41780  0.39480  0.09170  Biso   1.000  C
  C22      1.0000 0.58220  0.89480  0.40830  Biso   1.000  C
  C23      1.0000 0.58220  0.60520  0.90830  Biso   1.000  C
  C24      1.0000 0.41780  0.10520  0.59170  Biso   1.000  C
  H41      1.0000 0.35930  0.42560  0.01910  Biso   1.000  H
  H42      1.0000 0.64070  0.92560  0.48090  Biso   1.000  H
  H43      1.0000 0.64070  0.57440  0.98090  Biso   1.000  H
  H44      1.0000 0.35930  0.07440  0.51910  Biso   1.000  H
  H45      1.0000 0.44070  0.43370  0.16200  Biso   1.000  H
  H46      1.0000 0.55930  0.93370  0.33800  Biso   1.000  H
  H47      1.0000 0.55930  0.56630  0.83800  Biso   1.000  H
  H48      1.0000 0.44070  0.06630  0.66200  Biso   1.000  H
  C25      1.0000 0.28700  0.27700  0.00970  Biso   1.000  C
  C26      1.0000 0.71300  0.77700  0.49030  Biso   1.000  C
  C27      1.0000 0.71300  0.72300  0.99030  Biso   1.000  C
  C28      1.0000 0.28700  0.22300  0.50970  Biso   1.000  C
  H49      1.0000 0.20110  0.25540  0.01360  Biso   1.000  H
  H50      1.0000 0.79890  0.75540  0.48640  Biso   1.000  H
  H51      1.0000 0.79890  0.74460  0.98640  Biso   1.000  H
  H52      1.0000 0.20110  0.24460  0.51360  Biso   1.000  H
  H53      1.0000 0.26830  0.31480  0.93860  Biso   1.000  H
  H54      1.0000 0.73170  0.81480  0.56140  Biso   1.000  H
  H55      1.0000 0.73170  0.68520  0.06140  Biso   1.000  H
  H56      1.0000 0.26830  0.18520  0.43860  Biso   1.000  H
  C29      1.0000 0.36200  0.20650  0.99610  Biso   1.000  C
  C30      1.0000 0.63800  0.70650  0.50390  Biso   1.000  C
  C31      1.0000 0.63800  0.79350  0.00390  Biso   1.000  C
  C32      1.0000 0.36200  0.29350  0.49610  Biso   1.000  C
  H57      1.0000 0.43070  0.22690  0.96400  Biso   1.000  H
  H58      1.0000 0.56930  0.72690  0.53600  Biso   1.000  H
  H59      1.0000 0.56930  0.77310  0.03600  Biso   1.000  H
  H60      1.0000 0.43070  0.27310  0.46400  Biso   1.000  H
  H61      1.0000 0.30100  0.16540  0.93870  Biso   1.000  H
  H62      1.0000 0.69900  0.66540  0.56130  Biso   1.000  H
  H63      1.0000 0.69900  0.83460  0.06130  Biso   1.000  H
  H64      1.0000 0.30100  0.33460  0.43870  Biso   1.000  H
  C33      1.0000 0.33190  0.12140  0.13700  Biso   1.000  C
  C34      1.0000 0.66810  0.62140  0.36300  Biso   1.000  C
  C35      1.0000 0.66810  0.87860  0.86300  Biso   1.000  C
  C36      1.0000 0.33190  0.37860  0.63700  Biso   1.000  C
  H65      1.0000 0.24150  0.14640  0.09600  Biso   1.000  H
  H66      1.0000 0.75850  0.64640  0.40400  Biso   1.000  H
  H67      1.0000 0.75850  0.85360  0.90400  Biso   1.000  H
  H68      1.0000 0.24150  0.35360  0.59600  Biso   1.000  H
  H69      1.0000 0.33160  0.06020  0.11380  Biso   1.000  H
  H70      1.0000 0.66840  0.56020  0.38620  Biso   1.000  H
  H71      1.0000 0.66840  0.93980  0.88620  Biso   1.000  H
  H72      1.0000 0.33160  0.43980  0.61380  Biso   1.000  H
  C37      1.0000 0.36470  0.12680  0.26240  Biso   1.000  C
  C38      1.0000 0.63530  0.62680  0.23760  Biso   1.000  C
  C39      1.0000 0.63530  0.87320  0.73760  Biso   1.000  C
  C40      1.0000 0.36470  0.37320  0.76240  Biso   1.000  C
  C41      1.0000 0.68780  0.37460  0.26060  Biso   1.000  C
  C42      1.0000 0.31220  0.87460  0.23940  Biso   1.000  C
  C43      1.0000 0.31220  0.62540  0.73940  Biso   1.000  C
  C44      1.0000 0.68780  0.12540  0.76060  Biso   1.000  C
  H73      1.0000 0.78420  0.35970  0.28360  Biso   1.000  H
  H74      1.0000 0.21580  0.85970  0.21640  Biso   1.000  H
  H75      1.0000 0.21580  0.64030  0.71640  Biso   1.000  H
  H76      1.0000 0.78420  0.14030  0.78360  Biso   1.000  H
  H77      1.0000 0.67360  0.43500  0.23230  Biso   1.000  H
  H78      1.0000 0.32640  0.93500  0.26770  Biso   1.000  H
  H79      1.0000 0.32640  0.56500  0.76770  Biso   1.000  H
  H80      1.0000 0.67360  0.06500  0.73230  Biso   1.000  H
  C45      1.0000 0.65260  0.36780  0.36180  Biso   1.000  C
  C46      1.0000 0.34740  0.86780  0.13820  Biso   1.000  C
  C47      1.0000 0.34740  0.63220  0.63820  Biso   1.000  C
  C48      1.0000 0.65260  0.13220  0.86180  Biso   1.000  C
  C49      1.0000 0.72600  0.15760  0.38210  Biso   1.000  C
  C50      1.0000 0.27400  0.65760  0.11790  Biso   1.000  C
  C51      1.0000 0.27400  0.84240  0.61790  Biso   1.000  C
  C52      1.0000 0.72600  0.34240  0.88210  Biso   1.000  C
  H81      1.0000 0.75630  0.21470  0.41870  Biso   1.000  H
  H82      1.0000 0.24370  0.71470  0.08130  Biso   1.000  H
  H83      1.0000 0.24370  0.78530  0.58130  Biso   1.000  H
  H84      1.0000 0.75630  0.28530  0.91870  Biso   1.000  H
  H85      1.0000 0.65170  0.13670  0.40670  Biso   1.000  H
  H86      1.0000 0.34830  0.63670  0.09330  Biso   1.000  H
  H87      1.0000 0.34830  0.86330  0.59330  Biso   1.000  H
  H88      1.0000 0.65170  0.36330  0.90670  Biso   1.000  H
  C53      1.0000 0.83270  0.10100  0.42800  Biso   1.000  C
  C54      1.0000 0.16730  0.60100  0.07200  Biso   1.000  C
  C55      1.0000 0.16730  0.89900  0.57200  Biso   1.000  C
  C56      1.0000 0.83270  0.39900  0.92800  Biso   1.000  C
  C57      1.0000 0.26640  0.34760  0.16860  Biso   1.000  C
  C58      1.0000 0.73360  0.84760  0.33140  Biso   1.000  C
  C59      1.0000 0.73360  0.65240  0.83140  Biso   1.000  C
  C60      1.0000 0.26640  0.15240  0.66860  Biso   1.000  C
  H89      1.0000 0.23190  0.29020  0.17920  Biso   1.000  H
  H90      1.0000 0.76810  0.79020  0.32080  Biso   1.000  H
  H91      1.0000 0.76810  0.70980  0.82080  Biso   1.000  H
  H92      1.0000 0.23190  0.20980  0.67920  Biso   1.000  H
  H93      1.0000 0.33240  0.36740  0.24620  Biso   1.000  H
  H94      1.0000 0.66760  0.86740  0.25380  Biso   1.000  H
  H95      1.0000 0.66760  0.63260  0.75380  Biso   1.000  H
  H96      1.0000 0.33240  0.13260  0.74620  Biso   1.000  H
  C61      1.0000 0.16030  0.40090  0.10650  Biso   1.000  C
  C62      1.0000 0.83970  0.90090  0.39350  Biso   1.000  C
  C63      1.0000 0.83970  0.59910  0.89350  Biso   1.000  C
  C64      1.0000 0.16030  0.09910  0.60650  Biso   1.000  C
  O37      1.0000 0.03160  0.33200  0.32230  Biso   1.000  O
  O38      1.0000 0.96840  0.83200  0.17770  Biso   1.000  O
  O39      1.0000 0.96840  0.66800  0.67770  Biso   1.000  O
  O40      1.0000 0.03160  0.16800  0.82230  Biso   1.000  O
  O41      1.0000 0.96200  0.30810  0.50650  Biso   1.000  O
  O42      1.0000 0.03800  0.80810  0.99350  Biso   1.000  O
  O43      1.0000 0.03800  0.69190  0.49350  Biso   1.000  O
  O44      1.0000 0.96200  0.19190  0.00650  Biso   1.000  O
  O45      1.0000 0.07220  0.20650  0.21760  Biso   1.000  O
  O46      1.0000 0.92780  0.70650  0.28240  Biso   1.000  O
  O47      1.0000 0.92780  0.79350  0.78240  Biso   1.000  O
  O48      1.0000 0.07220  0.29350  0.71760  Biso   1.000  O
  O49      1.0000 0.91860  0.49450  0.56030  Biso   1.000  O
  O50      1.0000 0.08140  0.99450  0.93970  Biso   1.000  O
  O51      1.0000 0.08140  0.50550  0.43970  Biso   1.000  O
  O52      1.0000 0.91860  0.00550  0.06030  Biso   1.000  O
