data_image0
_cell_length_a       8.9726
_cell_length_b       7.23533
_cell_length_c       15.0443
_cell_angle_alpha    90
_cell_angle_beta     90
_cell_angle_gamma    90

_symmetry_space_group_name_H-M    "P 1"
_symmetry_int_tables_number       1

loop_
  _symmetry_equiv_pos_as_xyz
  'x, y, z'

loop_
  _atom_site_label
  _atom_site_occupancy
  _atom_site_fract_x
  _atom_site_fract_y
  _atom_site_fract_z
  _atom_site_thermal_displace_type
  _atom_site_B_iso_or_equiv
  _atom_site_type_symbol
  Cu1      1.0000 0.00000  0.00000  0.00000  Biso   1.000  Cu
  Cu2      1.0000 0.50000  0.50000  0.00000  Biso   1.000  Cu
  Cu3      1.0000 0.00000  0.00000  0.50000  Biso   1.000  Cu
  Cu4      1.0000 0.50000  0.50000  0.50000  Biso   1.000  Cu
  C1       1.0000 0.11810  0.99090  0.80796  Biso   1.000  C
  C2       1.0000 0.61810  0.50910  0.19204  Biso   1.000  C
  C3       1.0000 0.88190  0.99090  0.69204  Biso   1.000  C
  C4       1.0000 0.38190  0.50910  0.30796  Biso   1.000  C
  C5       1.0000 0.88190  0.00910  0.19204  Biso   1.000  C
  C6       1.0000 0.38190  0.49090  0.80796  Biso   1.000  C
  C7       1.0000 0.11810  0.00910  0.30796  Biso   1.000  C
  C8       1.0000 0.61810  0.49090  0.69204  Biso   1.000  C
  C9       1.0000 0.13829  0.99370  0.71577  Biso   1.000  C
  C10      1.0000 0.63829  0.50630  0.28423  Biso   1.000  C
  C11      1.0000 0.86171  0.99370  0.78423  Biso   1.000  C
  C12      1.0000 0.36171  0.50630  0.21577  Biso   1.000  C
  C13      1.0000 0.86171  0.00630  0.28423  Biso   1.000  C
  C14      1.0000 0.36171  0.49370  0.71577  Biso   1.000  C
  C15      1.0000 0.13829  0.00630  0.21577  Biso   1.000  C
  C16      1.0000 0.63829  0.49370  0.78423  Biso   1.000  C
  C17      1.0000 0.23480  0.98110  0.88102  Biso   1.000  C
  C18      1.0000 0.73480  0.51890  0.11898  Biso   1.000  C
  C19      1.0000 0.76520  0.98110  0.61898  Biso   1.000  C
  C20      1.0000 0.26520  0.51890  0.38102  Biso   1.000  C
  C21      1.0000 0.76520  0.01890  0.11898  Biso   1.000  C
  C22      1.0000 0.26520  0.48110  0.88102  Biso   1.000  C
  C23      1.0000 0.23480  0.01890  0.38102  Biso   1.000  C
  C24      1.0000 0.73480  0.48110  0.61898  Biso   1.000  C
  C25      1.0000 0.29351  0.99530  0.67497  Biso   1.000  C
  C26      1.0000 0.79351  0.50470  0.32503  Biso   1.000  C
  C27      1.0000 0.70649  0.99530  0.82503  Biso   1.000  C
  C28      1.0000 0.20649  0.50470  0.17497  Biso   1.000  C
  C29      1.0000 0.70649  0.00470  0.32503  Biso   1.000  C
  C30      1.0000 0.20649  0.49530  0.67497  Biso   1.000  C
  C31      1.0000 0.29351  0.00470  0.17497  Biso   1.000  C
  C32      1.0000 0.79351  0.49530  0.82503  Biso   1.000  C
  N1       1.0000 0.97990  0.99060  0.84088  Biso   1.000  N
  N2       1.0000 0.47990  0.50940  0.15912  Biso   1.000  N
  N3       1.0000 0.02010  0.99060  0.65912  Biso   1.000  N
  N4       1.0000 0.52010  0.50940  0.34088  Biso   1.000  N
  N5       1.0000 0.02010  0.00940  0.15912  Biso   1.000  N
  N6       1.0000 0.52010  0.49060  0.84088  Biso   1.000  N
  N7       1.0000 0.97990  0.00940  0.34088  Biso   1.000  N
  N8       1.0000 0.47990  0.49060  0.65912  Biso   1.000  N
  O1       1.0000 0.20480  0.01340  0.95986  Biso   1.000  O
  O2       1.0000 0.70480  0.48660  0.04014  Biso   1.000  O
  O3       1.0000 0.79520  0.01340  0.54014  Biso   1.000  O
  O4       1.0000 0.29520  0.48660  0.45986  Biso   1.000  O
  O5       1.0000 0.79520  0.98660  0.04014  Biso   1.000  O
  O6       1.0000 0.29520  0.51340  0.95986  Biso   1.000  O
  O7       1.0000 0.20480  0.98660  0.45986  Biso   1.000  O
  O8       1.0000 0.70480  0.51340  0.54014  Biso   1.000  O
  O9       1.0000 0.36130  0.92890  0.85614  Biso   1.000  O
  O10      1.0000 0.86130  0.57110  0.14386  Biso   1.000  O
  O11      1.0000 0.63870  0.92890  0.64386  Biso   1.000  O
  O12      1.0000 0.13870  0.57110  0.35614  Biso   1.000  O
  O13      1.0000 0.63870  0.07110  0.14386  Biso   1.000  O
  O14      1.0000 0.13870  0.42890  0.85614  Biso   1.000  O
  O15      1.0000 0.36130  0.07110  0.35614  Biso   1.000  O
  O16      1.0000 0.86130  0.42890  0.64386  Biso   1.000  O
  O17      1.0000 0.01350  0.71350  0.00400  Biso   1.000  O
  O18      1.0000 0.51350  0.78650  0.99600  Biso   1.000  O
  O19      1.0000 0.98650  0.71350  0.49600  Biso   1.000  O
  O20      1.0000 0.48650  0.78650  0.50400  Biso   1.000  O
  O21      1.0000 0.98650  0.28650  0.99600  Biso   1.000  O
  O22      1.0000 0.48650  0.21350  0.00400  Biso   1.000  O
  O23      1.0000 0.01350  0.28650  0.50400  Biso   1.000  O
  O24      1.0000 0.51350  0.21350  0.49600  Biso   1.000  O
  H1       1.0000 0.33230  0.86880  0.67190  Biso   1.000  H
  H2       1.0000 0.83230  0.63120  0.32810  Biso   1.000  H
  H3       1.0000 0.66770  0.86880  0.82810  Biso   1.000  H
  H4       1.0000 0.16770  0.63120  0.17190  Biso   1.000  H
  H5       1.0000 0.66770  0.13120  0.32810  Biso   1.000  H
  H6       1.0000 0.16770  0.36880  0.67190  Biso   1.000  H
  H7       1.0000 0.33230  0.13120  0.17190  Biso   1.000  H
  H8       1.0000 0.83230  0.36880  0.82810  Biso   1.000  H
  H9       1.0000 0.36020  0.07100  0.71160  Biso   1.000  H
  H10      1.0000 0.86020  0.42900  0.28840  Biso   1.000  H
  H11      1.0000 0.63980  0.07100  0.78840  Biso   1.000  H
  H12      1.0000 0.13980  0.42900  0.21160  Biso   1.000  H
  H13      1.0000 0.63980  0.92900  0.28840  Biso   1.000  H
  H14      1.0000 0.13980  0.57100  0.71160  Biso   1.000  H
  H15      1.0000 0.36020  0.92900  0.21160  Biso   1.000  H
  H16      1.0000 0.86020  0.57100  0.78840  Biso   1.000  H
  H17      1.0000 0.28880  0.04700  0.61480  Biso   1.000  H
  H18      1.0000 0.78880  0.45300  0.38520  Biso   1.000  H
  H19      1.0000 0.71120  0.04700  0.88520  Biso   1.000  H
  H20      1.0000 0.21120  0.45300  0.11480  Biso   1.000  H
  H21      1.0000 0.71120  0.95300  0.38520  Biso   1.000  H
  H22      1.0000 0.21120  0.54700  0.61480  Biso   1.000  H
  H23      1.0000 0.28880  0.95300  0.11480  Biso   1.000  H
  H24      1.0000 0.78880  0.54700  0.88520  Biso   1.000  H
