data_image0
_cell_length_a       6.9133
_cell_length_b       7.9927
_cell_length_c       8.2084
_cell_angle_alpha    90
_cell_angle_beta     110.066
_cell_angle_gamma    90

_symmetry_space_group_name_H-M    "P 1"
_symmetry_int_tables_number       1

loop_
  _symmetry_equiv_pos_as_xyz
  'x, y, z'

loop_
  _atom_site_label
  _atom_site_occupancy
  _atom_site_fract_x
  _atom_site_fract_y
  _atom_site_fract_z
  _atom_site_thermal_displace_type
  _atom_site_B_iso_or_equiv
  _atom_site_type_symbol
  Cu1      1.0000 0.50000  0.00000  0.50000  Biso   1.000  Cu
  Cu2      1.0000 0.50000  0.50000  0.00000  Biso   1.000  Cu
  O1       1.0000 0.49000  0.17490  0.33690  Biso   1.000  O
  O2       1.0000 0.51000  0.67490  0.16310  Biso   1.000  O
  O3       1.0000 0.51000  0.82510  0.66310  Biso   1.000  O
  O4       1.0000 0.49000  0.32510  0.83690  Biso   1.000  O
  O5       1.0000 0.71080  0.32640  0.25170  Biso   1.000  O
  O6       1.0000 0.28920  0.82640  0.24830  Biso   1.000  O
  O7       1.0000 0.28920  0.67360  0.74830  Biso   1.000  O
  O8       1.0000 0.71080  0.17360  0.75170  Biso   1.000  O
  N1       1.0000 0.80440  0.95860  0.48330  Biso   1.000  N
  N2       1.0000 0.19560  0.45860  0.01670  Biso   1.000  N
  N3       1.0000 0.19560  0.04140  0.51670  Biso   1.000  N
  N4       1.0000 0.80440  0.54140  0.98330  Biso   1.000  N
  C1       1.0000 0.84300  0.10510  0.42190  Biso   1.000  C
  C2       1.0000 0.15700  0.60510  0.07810  Biso   1.000  C
  C3       1.0000 0.15700  0.89490  0.57810  Biso   1.000  C
  C4       1.0000 0.84300  0.39490  0.92190  Biso   1.000  C
  C5       1.0000 0.04520  0.15263  0.45040  Biso   1.000  C
  C6       1.0000 0.95480  0.65263  0.04960  Biso   1.000  C
  C7       1.0000 0.95480  0.84737  0.54960  Biso   1.000  C
  C8       1.0000 0.04520  0.34737  0.95040  Biso   1.000  C
  C9       1.0000 0.65790  0.21000  0.32740  Biso   1.000  C
  C10      1.0000 0.34210  0.71000  0.17260  Biso   1.000  C
  C11      1.0000 0.34210  0.79000  0.67260  Biso   1.000  C
  C12      1.0000 0.65790  0.29000  0.82740  Biso   1.000  C
  C13      1.0000 0.12200  0.31720  0.40200  Biso   1.000  C
  C14      1.0000 0.87800  0.81720  0.09800  Biso   1.000  C
  C15      1.0000 0.87800  0.68280  0.59800  Biso   1.000  C
  C16      1.0000 0.12200  0.18280  0.90200  Biso   1.000  C
  H1       1.0000 0.02900  0.40820  0.40700  Biso   1.000  H
  H2       1.0000 0.97100  0.90820  0.09300  Biso   1.000  H
  H3       1.0000 0.97100  0.59180  0.59300  Biso   1.000  H
  H4       1.0000 0.02900  0.09180  0.90700  Biso   1.000  H
  H5       1.0000 0.12600  0.30980  0.28410  Biso   1.000  H
  H6       1.0000 0.87400  0.80980  0.21590  Biso   1.000  H
  H7       1.0000 0.87400  0.69020  0.71590  Biso   1.000  H
  H8       1.0000 0.12600  0.19020  0.78410  Biso   1.000  H
  H9       1.0000 0.26060  0.34110  0.48300  Biso   1.000  H
  H10      1.0000 0.73940  0.84110  0.01700  Biso   1.000  H
  H11      1.0000 0.73940  0.65890  0.51700  Biso   1.000  H
  H12      1.0000 0.26060  0.15890  0.98300  Biso   1.000  H
