data_image0
_cell_length_a       12.918
_cell_length_b       10.348
_cell_length_c       20.404
_cell_angle_alpha    90
_cell_angle_beta     108.09
_cell_angle_gamma    90

_symmetry_space_group_name_H-M    "P 1"
_symmetry_int_tables_number       1

loop_
  _symmetry_equiv_pos_as_xyz
  'x, y, z'

loop_
  _atom_site_label
  _atom_site_occupancy
  _atom_site_fract_x
  _atom_site_fract_y
  _atom_site_fract_z
  _atom_site_thermal_displace_type
  _atom_site_B_iso_or_equiv
  _atom_site_type_symbol
  Cu1      1.0000 0.10006  0.98497  0.41944  Biso   1.000  Cu
  Cu2      1.0000 0.89994  0.98497  0.08056  Biso   1.000  Cu
  Cu3      1.0000 0.60006  0.48497  0.41944  Biso   1.000  Cu
  Cu4      1.0000 0.39994  0.48497  0.08056  Biso   1.000  Cu
  Cu5      1.0000 0.89994  0.01503  0.58056  Biso   1.000  Cu
  Cu6      1.0000 0.10006  0.01503  0.91944  Biso   1.000  Cu
  Cu7      1.0000 0.39994  0.51503  0.58056  Biso   1.000  Cu
  Cu8      1.0000 0.60006  0.51503  0.91944  Biso   1.000  Cu
  O1       1.0000 0.16687  0.14397  0.40630  Biso   1.000  O
  O2       1.0000 0.83313  0.14397  0.09370  Biso   1.000  O
  O3       1.0000 0.66687  0.64397  0.40630  Biso   1.000  O
  O4       1.0000 0.33313  0.64397  0.09370  Biso   1.000  O
  O5       1.0000 0.83313  0.85603  0.59370  Biso   1.000  O
  O6       1.0000 0.16687  0.85603  0.90630  Biso   1.000  O
  O7       1.0000 0.33313  0.35603  0.59370  Biso   1.000  O
  O8       1.0000 0.66687  0.35603  0.90630  Biso   1.000  O
  O9       1.0000 0.22820  0.91199  0.48432  Biso   1.000  O
  O10      1.0000 0.77180  0.91199  0.01568  Biso   1.000  O
  O11      1.0000 0.72820  0.41199  0.48432  Biso   1.000  O
  O12      1.0000 0.27180  0.41199  0.01568  Biso   1.000  O
  O13      1.0000 0.77180  0.08801  0.51568  Biso   1.000  O
  O14      1.0000 0.22820  0.08801  0.98432  Biso   1.000  O
  O15      1.0000 0.27180  0.58801  0.51568  Biso   1.000  O
  O16      1.0000 0.72820  0.58801  0.98432  Biso   1.000  O
  O17      1.0000 0.30344  0.27761  0.41482  Biso   1.000  O
  O18      1.0000 0.69656  0.27761  0.08518  Biso   1.000  O
  O19      1.0000 0.80344  0.77761  0.41482  Biso   1.000  O
  O20      1.0000 0.19656  0.77761  0.08518  Biso   1.000  O
  O21      1.0000 0.69656  0.72239  0.58518  Biso   1.000  O
  O22      1.0000 0.30344  0.72239  0.91482  Biso   1.000  O
  O23      1.0000 0.19656  0.22239  0.58518  Biso   1.000  O
  O24      1.0000 0.80344  0.22239  0.91482  Biso   1.000  O
  O25      1.0000 0.40596  0.89204  0.52900  Biso   1.000  O
  O26      1.0000 0.59404  0.89204  0.97100  Biso   1.000  O
  O27      1.0000 0.90596  0.39204  0.52900  Biso   1.000  O
  O28      1.0000 0.09404  0.39204  0.97100  Biso   1.000  O
  O29      1.0000 0.59404  0.10796  0.47100  Biso   1.000  O
  O30      1.0000 0.40596  0.10796  0.02900  Biso   1.000  O
  O31      1.0000 0.09404  0.60796  0.47100  Biso   1.000  O
  O32      1.0000 0.90596  0.60796  0.02900  Biso   1.000  O
  C1       1.0000 0.26689  0.17570  0.43127  Biso   1.000  C
  C2       1.0000 0.73311  0.17570  0.06873  Biso   1.000  C
  C3       1.0000 0.76689  0.67570  0.43127  Biso   1.000  C
  C4       1.0000 0.23311  0.67570  0.06873  Biso   1.000  C
  C5       1.0000 0.73311  0.82430  0.56873  Biso   1.000  C
  C6       1.0000 0.26689  0.82430  0.93127  Biso   1.000  C
  C7       1.0000 0.23311  0.32430  0.56873  Biso   1.000  C
  C8       1.0000 0.76689  0.32430  0.93127  Biso   1.000  C
  C9       1.0000 0.34480  0.09620  0.48763  Biso   1.000  C
  C10      1.0000 0.65520  0.09620  0.01237  Biso   1.000  C
  C11      1.0000 0.84480  0.59620  0.48763  Biso   1.000  C
  C12      1.0000 0.15520  0.59620  0.01237  Biso   1.000  C
  C13      1.0000 0.65520  0.90380  0.51237  Biso   1.000  C
  C14      1.0000 0.34480  0.90380  0.98763  Biso   1.000  C
  C15      1.0000 0.15520  0.40380  0.51237  Biso   1.000  C
  C16      1.0000 0.84480  0.40380  0.98763  Biso   1.000  C
  C17      1.0000 0.32355  0.95560  0.49874  Biso   1.000  C
  C18      1.0000 0.67645  0.95560  0.00126  Biso   1.000  C
  C19      1.0000 0.82355  0.45560  0.49874  Biso   1.000  C
  C20      1.0000 0.17645  0.45560  0.00126  Biso   1.000  C
  C21      1.0000 0.67645  0.04440  0.50126  Biso   1.000  C
  C22      1.0000 0.32355  0.04440  0.99874  Biso   1.000  C
  C23      1.0000 0.17645  0.54440  0.50126  Biso   1.000  C
  C24      1.0000 0.82355  0.54440  0.99874  Biso   1.000  C
  O33      1.0000 0.15767  0.90436  0.32737  Biso   1.000  O
  O34      1.0000 0.84233  0.90436  0.17263  Biso   1.000  O
  O35      1.0000 0.65767  0.40436  0.32737  Biso   1.000  O
  O36      1.0000 0.34233  0.40436  0.17263  Biso   1.000  O
  O37      1.0000 0.84233  0.09564  0.67263  Biso   1.000  O
  O38      1.0000 0.15767  0.09564  0.82737  Biso   1.000  O
  O39      1.0000 0.34233  0.59564  0.67263  Biso   1.000  O
  O40      1.0000 0.65767  0.59564  0.82737  Biso   1.000  O
  N1       1.0000 0.15163  0.78622  0.30234  Biso   1.000  N
  N2       1.0000 0.84837  0.78622  0.19766  Biso   1.000  N
  N3       1.0000 0.65163  0.28622  0.30234  Biso   1.000  N
  N4       1.0000 0.34837  0.28622  0.19766  Biso   1.000  N
  N5       1.0000 0.84837  0.21378  0.69766  Biso   1.000  N
  N6       1.0000 0.15163  0.21378  0.80234  Biso   1.000  N
  N7       1.0000 0.34837  0.71378  0.69766  Biso   1.000  N
  N8       1.0000 0.65163  0.71378  0.80234  Biso   1.000  N
  C25      1.0000 0.18690  0.68390  0.34493  Biso   1.000  C
  C26      1.0000 0.81310  0.68390  0.15507  Biso   1.000  C
  C27      1.0000 0.68690  0.18390  0.34493  Biso   1.000  C
  C28      1.0000 0.31310  0.18390  0.15507  Biso   1.000  C
  C29      1.0000 0.81310  0.31610  0.65507  Biso   1.000  C
  C30      1.0000 0.18690  0.31610  0.84493  Biso   1.000  C
  C31      1.0000 0.31310  0.81610  0.65507  Biso   1.000  C
  C32      1.0000 0.68690  0.81610  0.84493  Biso   1.000  C
  C33      1.0000 0.11030  0.76750  0.23360  Biso   1.000  C
  C34      1.0000 0.88970  0.76750  0.26640  Biso   1.000  C
  C35      1.0000 0.61030  0.26750  0.23360  Biso   1.000  C
  C36      1.0000 0.38970  0.26750  0.26640  Biso   1.000  C
  C37      1.0000 0.88970  0.23250  0.76640  Biso   1.000  C
  C38      1.0000 0.11030  0.23250  0.73360  Biso   1.000  C
  C39      1.0000 0.38970  0.73250  0.76640  Biso   1.000  C
  C40      1.0000 0.61030  0.73250  0.73360  Biso   1.000  C
  C41      1.0000 0.17843  0.56000  0.31864  Biso   1.000  C
  C42      1.0000 0.82157  0.56000  0.18136  Biso   1.000  C
  C43      1.0000 0.67843  0.06000  0.31864  Biso   1.000  C
  C44      1.0000 0.32157  0.06000  0.18136  Biso   1.000  C
  C45      1.0000 0.82157  0.44000  0.68136  Biso   1.000  C
  C46      1.0000 0.17843  0.44000  0.81864  Biso   1.000  C
  C47      1.0000 0.32157  0.94000  0.68136  Biso   1.000  C
  C48      1.0000 0.67843  0.94000  0.81864  Biso   1.000  C
  C49      1.0000 0.09921  0.64560  0.20602  Biso   1.000  C
  C50      1.0000 0.90079  0.64560  0.29398  Biso   1.000  C
  C51      1.0000 0.59921  0.14560  0.20602  Biso   1.000  C
  C52      1.0000 0.40079  0.14560  0.29398  Biso   1.000  C
  C53      1.0000 0.90079  0.35440  0.79398  Biso   1.000  C
  C54      1.0000 0.09921  0.35440  0.70602  Biso   1.000  C
  C55      1.0000 0.40079  0.85440  0.79398  Biso   1.000  C
  C56      1.0000 0.59921  0.85440  0.70602  Biso   1.000  C
  C57      1.0000 0.13195  0.53660  0.24804  Biso   1.000  C
  C58      1.0000 0.86805  0.53660  0.25196  Biso   1.000  C
  C59      1.0000 0.63195  0.03660  0.24804  Biso   1.000  C
  C60      1.0000 0.36805  0.03660  0.25196  Biso   1.000  C
  C61      1.0000 0.86805  0.46340  0.75196  Biso   1.000  C
  C62      1.0000 0.13195  0.46340  0.74804  Biso   1.000  C
  C63      1.0000 0.36805  0.96340  0.75196  Biso   1.000  C
  C64      1.0000 0.63195  0.96340  0.74804  Biso   1.000  C
  C65      1.0000 0.11360  0.40450  0.21871  Biso   1.000  C
  C66      1.0000 0.88640  0.40450  0.28129  Biso   1.000  C
  C67      1.0000 0.61360  0.90450  0.21871  Biso   1.000  C
  C68      1.0000 0.38640  0.90450  0.28129  Biso   1.000  C
  C69      1.0000 0.88640  0.59550  0.78129  Biso   1.000  C
  C70      1.0000 0.11360  0.59550  0.71871  Biso   1.000  C
  C71      1.0000 0.38640  0.09550  0.78129  Biso   1.000  C
  C72      1.0000 0.61360  0.09550  0.71871  Biso   1.000  C
  C73      1.0000 0.07080  0.38300  0.14779  Biso   1.000  C
  C74      1.0000 0.92920  0.38300  0.35221  Biso   1.000  C
  C75      1.0000 0.57080  0.88300  0.14779  Biso   1.000  C
  C76      1.0000 0.42920  0.88300  0.35221  Biso   1.000  C
  C77      1.0000 0.92920  0.61700  0.85221  Biso   1.000  C
  C78      1.0000 0.07080  0.61700  0.64779  Biso   1.000  C
  C79      1.0000 0.42920  0.11700  0.85221  Biso   1.000  C
  C80      1.0000 0.57080  0.11700  0.64779  Biso   1.000  C
  C81      1.0000 0.13468  0.29540  0.26069  Biso   1.000  C
  C82      1.0000 0.86532  0.29540  0.23931  Biso   1.000  C
  C83      1.0000 0.63468  0.79540  0.26069  Biso   1.000  C
  C84      1.0000 0.36532  0.79540  0.23931  Biso   1.000  C
  C85      1.0000 0.86532  0.70460  0.73931  Biso   1.000  C
  C86      1.0000 0.13468  0.70460  0.76069  Biso   1.000  C
  C87      1.0000 0.36532  0.20460  0.73931  Biso   1.000  C
  C88      1.0000 0.63468  0.20460  0.76069  Biso   1.000  C
  C89      1.0000 0.10986  0.17280  0.23313  Biso   1.000  C
  C90      1.0000 0.89014  0.17280  0.26687  Biso   1.000  C
  C91      1.0000 0.60986  0.67280  0.23313  Biso   1.000  C
  C92      1.0000 0.39014  0.67280  0.26687  Biso   1.000  C
  C93      1.0000 0.89014  0.82720  0.76687  Biso   1.000  C
  C94      1.0000 0.10986  0.82720  0.73313  Biso   1.000  C
  C95      1.0000 0.39014  0.32720  0.76687  Biso   1.000  C
  C96      1.0000 0.60986  0.32720  0.73313  Biso   1.000  C
  C97      1.0000 0.04900  0.25990  0.12185  Biso   1.000  C
  C98      1.0000 0.95100  0.25990  0.37815  Biso   1.000  C
  C99      1.0000 0.54900  0.75990  0.12185  Biso   1.000  C
  C100     1.0000 0.45100  0.75990  0.37815  Biso   1.000  C
  C101     1.0000 0.95100  0.74010  0.87815  Biso   1.000  C
  C102     1.0000 0.04900  0.74010  0.62185  Biso   1.000  C
  C103     1.0000 0.45100  0.24010  0.87815  Biso   1.000  C
  C104     1.0000 0.54900  0.24010  0.62185  Biso   1.000  C
  N9       1.0000 0.06651  0.15780  0.16476  Biso   1.000  N
  N10      1.0000 0.93349  0.15780  0.33524  Biso   1.000  N
  N11      1.0000 0.56651  0.65780  0.16476  Biso   1.000  N
  N12      1.0000 0.43349  0.65780  0.33524  Biso   1.000  N
  N13      1.0000 0.93349  0.84220  0.83524  Biso   1.000  N
  N14      1.0000 0.06651  0.84220  0.66476  Biso   1.000  N
  N15      1.0000 0.43349  0.34220  0.83524  Biso   1.000  N
  N16      1.0000 0.56651  0.34220  0.66476  Biso   1.000  N
  O41      1.0000 0.04530  0.03826  0.13851  Biso   1.000  O
  O42      1.0000 0.95470  0.03826  0.36149  Biso   1.000  O
  O43      1.0000 0.54530  0.53826  0.13851  Biso   1.000  O
  O44      1.0000 0.45470  0.53826  0.36149  Biso   1.000  O
  O45      1.0000 0.95470  0.96174  0.86149  Biso   1.000  O
  O46      1.0000 0.04530  0.96174  0.63851  Biso   1.000  O
  O47      1.0000 0.45470  0.46174  0.86149  Biso   1.000  O
  O48      1.0000 0.54530  0.46174  0.63851  Biso   1.000  O
  O49      1.0000 0.02111  0.84140  0.44354  Biso   1.000  O
  O50      1.0000 0.97889  0.84140  0.05646  Biso   1.000  O
  O51      1.0000 0.52111  0.34140  0.44354  Biso   1.000  O
  O52      1.0000 0.47889  0.34140  0.05646  Biso   1.000  O
  O53      1.0000 0.97889  0.15860  0.55646  Biso   1.000  O
  O54      1.0000 0.02111  0.15860  0.94354  Biso   1.000  O
  O55      1.0000 0.47889  0.65860  0.55646  Biso   1.000  O
  O56      1.0000 0.52111  0.65860  0.94354  Biso   1.000  O
  H1       1.0000 0.41800  0.10100  0.48240  Biso   1.000  H
  H2       1.0000 0.58200  0.10100  0.01760  Biso   1.000  H
  H3       1.0000 0.91800  0.60100  0.48240  Biso   1.000  H
  H4       1.0000 0.08200  0.60100  0.01760  Biso   1.000  H
  H5       1.0000 0.58200  0.89900  0.51760  Biso   1.000  H
  H6       1.0000 0.41800  0.89900  0.98240  Biso   1.000  H
  H7       1.0000 0.08200  0.39900  0.51760  Biso   1.000  H
  H8       1.0000 0.91800  0.39900  0.98240  Biso   1.000  H
  H9       1.0000 0.34900  0.14300  0.53710  Biso   1.000  H
  H10      1.0000 0.65100  0.14300  0.96290  Biso   1.000  H
  H11      1.0000 0.84900  0.64300  0.53710  Biso   1.000  H
  H12      1.0000 0.15100  0.64300  0.96290  Biso   1.000  H
  H13      1.0000 0.65100  0.85700  0.46290  Biso   1.000  H
  H14      1.0000 0.34900  0.85700  0.03710  Biso   1.000  H
  H15      1.0000 0.15100  0.35700  0.46290  Biso   1.000  H
  H16      1.0000 0.84900  0.35700  0.03710  Biso   1.000  H
  H17      1.0000 0.21200  0.69900  0.38950  Biso   1.000  H
  H18      1.0000 0.78800  0.69900  0.11050  Biso   1.000  H
  H19      1.0000 0.71200  0.19900  0.38950  Biso   1.000  H
  H20      1.0000 0.28800  0.19900  0.11050  Biso   1.000  H
  H21      1.0000 0.78800  0.30100  0.61050  Biso   1.000  H
  H22      1.0000 0.21200  0.30100  0.88950  Biso   1.000  H
  H23      1.0000 0.28800  0.80100  0.61050  Biso   1.000  H
  H24      1.0000 0.71200  0.80100  0.88950  Biso   1.000  H
  H25      1.0000 0.09000  0.83900  0.21020  Biso   1.000  H
  H26      1.0000 0.91000  0.83900  0.28980  Biso   1.000  H
  H27      1.0000 0.59000  0.33900  0.21020  Biso   1.000  H
  H28      1.0000 0.41000  0.33900  0.28980  Biso   1.000  H
  H29      1.0000 0.91000  0.16100  0.78980  Biso   1.000  H
  H30      1.0000 0.09000  0.16100  0.71020  Biso   1.000  H
  H31      1.0000 0.41000  0.66100  0.78980  Biso   1.000  H
  H32      1.0000 0.59000  0.66100  0.71020  Biso   1.000  H
  H33      1.0000 0.20300  0.49100  0.34810  Biso   1.000  H
  H34      1.0000 0.79700  0.49100  0.15190  Biso   1.000  H
  H35      1.0000 0.70300  0.99100  0.34810  Biso   1.000  H
  H36      1.0000 0.29700  0.99100  0.15190  Biso   1.000  H
  H37      1.0000 0.79700  0.50900  0.65190  Biso   1.000  H
  H38      1.0000 0.20300  0.50900  0.84810  Biso   1.000  H
  H39      1.0000 0.29700  0.00900  0.65190  Biso   1.000  H
  H40      1.0000 0.70300  0.00900  0.84810  Biso   1.000  H
  H41      1.0000 0.07100  0.64000  0.16100  Biso   1.000  H
  H42      1.0000 0.92900  0.64000  0.33900  Biso   1.000  H
  H43      1.0000 0.57100  0.14000  0.16100  Biso   1.000  H
  H44      1.0000 0.42900  0.14000  0.33900  Biso   1.000  H
  H45      1.0000 0.92900  0.36000  0.83900  Biso   1.000  H
  H46      1.0000 0.07100  0.36000  0.66100  Biso   1.000  H
  H47      1.0000 0.42900  0.86000  0.83900  Biso   1.000  H
  H48      1.0000 0.57100  0.86000  0.66100  Biso   1.000  H
  H49      1.0000 0.05200  0.45000  0.11620  Biso   1.000  H
  H50      1.0000 0.94800  0.45000  0.38380  Biso   1.000  H
  H51      1.0000 0.55200  0.95000  0.11620  Biso   1.000  H
  H52      1.0000 0.44800  0.95000  0.38380  Biso   1.000  H
  H53      1.0000 0.94800  0.55000  0.88380  Biso   1.000  H
  H54      1.0000 0.05200  0.55000  0.61620  Biso   1.000  H
  H55      1.0000 0.44800  0.05000  0.88380  Biso   1.000  H
  H56      1.0000 0.55200  0.05000  0.61620  Biso   1.000  H
  H57      1.0000 0.16600  0.30100  0.31020  Biso   1.000  H
  H58      1.0000 0.83400  0.30100  0.18980  Biso   1.000  H
  H59      1.0000 0.66600  0.80100  0.31020  Biso   1.000  H
  H60      1.0000 0.33400  0.80100  0.18980  Biso   1.000  H
  H61      1.0000 0.83400  0.69900  0.68980  Biso   1.000  H
  H62      1.0000 0.16600  0.69900  0.81020  Biso   1.000  H
  H63      1.0000 0.33400  0.19900  0.68980  Biso   1.000  H
  H64      1.0000 0.66600  0.19900  0.81020  Biso   1.000  H
  H65      1.0000 0.11890  0.10100  0.25710  Biso   1.000  H
  H66      1.0000 0.88110  0.10100  0.24290  Biso   1.000  H
  H67      1.0000 0.61890  0.60100  0.25710  Biso   1.000  H
  H68      1.0000 0.38110  0.60100  0.24290  Biso   1.000  H
  H69      1.0000 0.88110  0.89900  0.74290  Biso   1.000  H
  H70      1.0000 0.11890  0.89900  0.75710  Biso   1.000  H
  H71      1.0000 0.38110  0.39900  0.74290  Biso   1.000  H
  H72      1.0000 0.61890  0.39900  0.75710  Biso   1.000  H
  H73      1.0000 0.02200  0.23900  0.07430  Biso   1.000  H
  H74      1.0000 0.97800  0.23900  0.42570  Biso   1.000  H
  H75      1.0000 0.52200  0.73900  0.07430  Biso   1.000  H
  H76      1.0000 0.47800  0.73900  0.42570  Biso   1.000  H
  H77      1.0000 0.97800  0.76100  0.92570  Biso   1.000  H
  H78      1.0000 0.02200  0.76100  0.57430  Biso   1.000  H
  H79      1.0000 0.47800  0.26100  0.92570  Biso   1.000  H
  H80      1.0000 0.52200  0.26100  0.57430  Biso   1.000  H
  H81      1.0000 0.95800  0.83200  0.42990  Biso   1.000  H
  H82      1.0000 0.04200  0.83200  0.07010  Biso   1.000  H
  H83      1.0000 0.45800  0.33200  0.42990  Biso   1.000  H
  H84      1.0000 0.54200  0.33200  0.07010  Biso   1.000  H
  H85      1.0000 0.04200  0.16800  0.57010  Biso   1.000  H
  H86      1.0000 0.95800  0.16800  0.92990  Biso   1.000  H
  H87      1.0000 0.54200  0.66800  0.57010  Biso   1.000  H
  H88      1.0000 0.45800  0.66800  0.92990  Biso   1.000  H
  H89      1.0000 0.04700  0.77900  0.45300  Biso   1.000  H
  H90      1.0000 0.95300  0.77900  0.04700  Biso   1.000  H
  H91      1.0000 0.54700  0.27900  0.45300  Biso   1.000  H
  H92      1.0000 0.45300  0.27900  0.04700  Biso   1.000  H
  H93      1.0000 0.95300  0.22100  0.54700  Biso   1.000  H
  H94      1.0000 0.04700  0.22100  0.95300  Biso   1.000  H
  H95      1.0000 0.45300  0.72100  0.54700  Biso   1.000  H
  H96      1.0000 0.54700  0.72100  0.95300  Biso   1.000  H
