data_image0
_cell_length_a       23.41
_cell_length_b       10.538
_cell_length_c       8.372
_cell_angle_alpha    90
_cell_angle_beta     91.3
_cell_angle_gamma    90

_symmetry_space_group_name_H-M    "P 1"
_symmetry_int_tables_number       1

loop_
  _symmetry_equiv_pos_as_xyz
  'x, y, z'

loop_
  _atom_site_label
  _atom_site_occupancy
  _atom_site_fract_x
  _atom_site_fract_y
  _atom_site_fract_z
  _atom_site_thermal_displace_type
  _atom_site_B_iso_or_equiv
  _atom_site_type_symbol
  Cu1      1.0000 0.07890  0.25470  0.28030  Biso   1.000  Cu
  Cu2      1.0000 0.42110  0.75470  0.21970  Biso   1.000  Cu
  Cu3      1.0000 0.92110  0.74530  0.71970  Biso   1.000  Cu
  Cu4      1.0000 0.57890  0.24530  0.78030  Biso   1.000  Cu
  N1       1.0000 0.05270  0.18390  0.06750  Biso   1.000  N
  N2       1.0000 0.44730  0.68390  0.43250  Biso   1.000  N
  N3       1.0000 0.94730  0.81610  0.93250  Biso   1.000  N
  N4       1.0000 0.55270  0.31610  0.56750  Biso   1.000  N
  N5       1.0000 0.99680  0.27170  0.30180  Biso   1.000  N
  N6       1.0000 0.50320  0.77170  0.19820  Biso   1.000  N
  N7       1.0000 0.00320  0.72830  0.69820  Biso   1.000  N
  N8       1.0000 0.49680  0.22830  0.80180  Biso   1.000  N
  N9       1.0000 0.07540  0.32470  0.50620  Biso   1.000  N
  N10      1.0000 0.42460  0.82470  0.99380  Biso   1.000  N
  N11      1.0000 0.92460  0.67530  0.49380  Biso   1.000  N
  N12      1.0000 0.57540  0.17530  0.00620  Biso   1.000  N
  N13      1.0000 0.25250  0.52800  0.17180  Biso   1.000  N
  N14      1.0000 0.24750  0.02800  0.32820  Biso   1.000  N
  N15      1.0000 0.74750  0.47200  0.82820  Biso   1.000  N
  N16      1.0000 0.75250  0.97200  0.67180  Biso   1.000  N
  O1       1.0000 0.10260  0.43890  0.18510  Biso   1.000  O
  O2       1.0000 0.39740  0.93890  0.31490  Biso   1.000  O
  O3       1.0000 0.89740  0.56110  0.81490  Biso   1.000  O
  O4       1.0000 0.60260  0.06110  0.68510  Biso   1.000  O
  O5       1.0000 0.14750  0.62380  0.19770  Biso   1.000  O
  O6       1.0000 0.35250  0.12380  0.30230  Biso   1.000  O
  O7       1.0000 0.85250  0.37620  0.80230  Biso   1.000  O
  O8       1.0000 0.64750  0.87620  0.69770  Biso   1.000  O
  O9       1.0000 0.34790  0.66350  0.20490  Biso   1.000  O
  O10      1.0000 0.15210  0.16350  0.29510  Biso   1.000  O
  O11      1.0000 0.65210  0.33650  0.79510  Biso   1.000  O
  O12      1.0000 0.84790  0.83650  0.70490  Biso   1.000  O
  O13      1.0000 0.40300  0.52340  0.07960  Biso   1.000  O
  O14      1.0000 0.09700  0.02340  0.42040  Biso   1.000  O
  O15      1.0000 0.59700  0.47660  0.92040  Biso   1.000  O
  O16      1.0000 0.90300  0.97660  0.57960  Biso   1.000  O
  C1       1.0000 0.08640  0.13930  0.95140  Biso   1.000  C
  C2       1.0000 0.41360  0.63930  0.54860  Biso   1.000  C
  C3       1.0000 0.91360  0.86070  0.04860  Biso   1.000  C
  C4       1.0000 0.58640  0.36070  0.45140  Biso   1.000  C
  C5       1.0000 0.06450  0.09350  0.80580  Biso   1.000  C
  C6       1.0000 0.43550  0.59350  0.69420  Biso   1.000  C
  C7       1.0000 0.93550  0.90650  0.19420  Biso   1.000  C
  C8       1.0000 0.56450  0.40650  0.30580  Biso   1.000  C
  C9       1.0000 0.00590  0.09540  0.77960  Biso   1.000  C
  C10      1.0000 0.49410  0.59540  0.72040  Biso   1.000  C
  C11      1.0000 0.99410  0.90460  0.22040  Biso   1.000  C
  C12      1.0000 0.50590  0.40460  0.27960  Biso   1.000  C
  C13      1.0000 0.97010  0.14320  0.89840  Biso   1.000  C
  C14      1.0000 0.52990  0.64320  0.60160  Biso   1.000  C
  C15      1.0000 0.02990  0.85680  0.10160  Biso   1.000  C
  C16      1.0000 0.47010  0.35680  0.39840  Biso   1.000  C
  C17      1.0000 0.99470  0.18710  0.04130  Biso   1.000  C
  C18      1.0000 0.50530  0.68710  0.45870  Biso   1.000  C
  C19      1.0000 0.00530  0.81290  0.95870  Biso   1.000  C
  C20      1.0000 0.49470  0.31290  0.54130  Biso   1.000  C
  C21      1.0000 0.96230  0.23410  0.17950  Biso   1.000  C
  C22      1.0000 0.53770  0.73410  0.32050  Biso   1.000  C
  C23      1.0000 0.03770  0.76590  0.82050  Biso   1.000  C
  C24      1.0000 0.46230  0.26590  0.67950  Biso   1.000  C
  C25      1.0000 0.90290  0.23430  0.19390  Biso   1.000  C
  C26      1.0000 0.59710  0.73430  0.30610  Biso   1.000  C
  C27      1.0000 0.09710  0.76570  0.80610  Biso   1.000  C
  C28      1.0000 0.40290  0.26570  0.69390  Biso   1.000  C
  C29      1.0000 0.88150  0.27420  0.34120  Biso   1.000  C
  C30      1.0000 0.61850  0.77420  0.15880  Biso   1.000  C
  C31      1.0000 0.11850  0.72580  0.65880  Biso   1.000  C
  C32      1.0000 0.38150  0.22580  0.84120  Biso   1.000  C
  C33      1.0000 0.91740  0.31140  0.46890  Biso   1.000  C
  C34      1.0000 0.58260  0.81140  0.03110  Biso   1.000  C
  C35      1.0000 0.08260  0.68860  0.53110  Biso   1.000  C
  C36      1.0000 0.41740  0.18860  0.96890  Biso   1.000  C
  C37      1.0000 0.97650  0.31080  0.44210  Biso   1.000  C
  C38      1.0000 0.52350  0.81080  0.05790  Biso   1.000  C
  C39      1.0000 0.02350  0.68920  0.55790  Biso   1.000  C
  C40      1.0000 0.47650  0.18920  0.94210  Biso   1.000  C
  C41      1.0000 0.02150  0.34790  0.55870  Biso   1.000  C
  C42      1.0000 0.47850  0.84790  0.94130  Biso   1.000  C
  C43      1.0000 0.97850  0.65210  0.44130  Biso   1.000  C
  C44      1.0000 0.52150  0.15210  0.05870  Biso   1.000  C
  C45      1.0000 0.01110  0.40320  0.70640  Biso   1.000  C
  C46      1.0000 0.48890  0.90320  0.79360  Biso   1.000  C
  C47      1.0000 0.98890  0.59680  0.29360  Biso   1.000  C
  C48      1.0000 0.51110  0.09680  0.20640  Biso   1.000  C
  C49      1.0000 0.05850  0.43390  0.80510  Biso   1.000  C
  C50      1.0000 0.44150  0.93390  0.69490  Biso   1.000  C
  C51      1.0000 0.94150  0.56610  0.19490  Biso   1.000  C
  C52      1.0000 0.55850  0.06610  0.30510  Biso   1.000  C
  C53      1.0000 0.11300  0.40980  0.75330  Biso   1.000  C
  C54      1.0000 0.38700  0.90980  0.74670  Biso   1.000  C
  C55      1.0000 0.88700  0.59020  0.24670  Biso   1.000  C
  C56      1.0000 0.61300  0.09020  0.25330  Biso   1.000  C
  C57      1.0000 0.12010  0.35450  0.60410  Biso   1.000  C
  C58      1.0000 0.37990  0.85450  0.89590  Biso   1.000  C
  C59      1.0000 0.87990  0.64550  0.39590  Biso   1.000  C
  C60      1.0000 0.62010  0.14550  0.10410  Biso   1.000  C
  C61      1.0000 0.14640  0.50760  0.18490  Biso   1.000  C
  C62      1.0000 0.35360  0.00760  0.31510  Biso   1.000  C
  C63      1.0000 0.85360  0.49240  0.81510  Biso   1.000  C
  C64      1.0000 0.64640  0.99240  0.68490  Biso   1.000  C
  C65      1.0000 0.20310  0.43570  0.16750  Biso   1.000  C
  C66      1.0000 0.29690  0.93570  0.33250  Biso   1.000  C
  C67      1.0000 0.79690  0.56430  0.83250  Biso   1.000  C
  C68      1.0000 0.70310  0.06430  0.66750  Biso   1.000  C
  C69      1.0000 0.30870  0.46620  0.11990  Biso   1.000  C
  C70      1.0000 0.19130  0.96620  0.38010  Biso   1.000  C
  C71      1.0000 0.69130  0.53380  0.88010  Biso   1.000  C
  C72      1.0000 0.80870  0.03380  0.61990  Biso   1.000  C
  C73      1.0000 0.35690  0.55790  0.13550  Biso   1.000  C
  C74      1.0000 0.14310  0.05790  0.36450  Biso   1.000  C
  C75      1.0000 0.64310  0.44210  0.86450  Biso   1.000  C
  C76      1.0000 0.85690  0.94210  0.63550  Biso   1.000  C
  H1       1.0000 0.12900  0.13600  0.97200  Biso   1.000  H
  H2       1.0000 0.37100  0.63600  0.52800  Biso   1.000  H
  H3       1.0000 0.87100  0.86400  0.02800  Biso   1.000  H
  H4       1.0000 0.62900  0.36400  0.47200  Biso   1.000  H
  H5       1.0000 0.09100  0.06100  0.72000  Biso   1.000  H
  H6       1.0000 0.40900  0.56100  0.78000  Biso   1.000  H
  H7       1.0000 0.90900  0.93900  0.28000  Biso   1.000  H
  H8       1.0000 0.59100  0.43900  0.22000  Biso   1.000  H
  H9       1.0000 0.98800  0.06200  0.67700  Biso   1.000  H
  H10      1.0000 0.51200  0.56200  0.82300  Biso   1.000  H
  H11      1.0000 0.01200  0.93800  0.32300  Biso   1.000  H
  H12      1.0000 0.48800  0.43800  0.17700  Biso   1.000  H
  H13      1.0000 0.92700  0.14600  0.88000  Biso   1.000  H
  H14      1.0000 0.57300  0.64600  0.62000  Biso   1.000  H
  H15      1.0000 0.07300  0.85400  0.12000  Biso   1.000  H
  H16      1.0000 0.42700  0.35400  0.38000  Biso   1.000  H
  H17      1.0000 0.87700  0.20600  0.10200  Biso   1.000  H
  H18      1.0000 0.62300  0.70600  0.39800  Biso   1.000  H
  H19      1.0000 0.12300  0.79400  0.89800  Biso   1.000  H
  H20      1.0000 0.37700  0.29400  0.60200  Biso   1.000  H
  H21      1.0000 0.83900  0.27700  0.35500  Biso   1.000  H
  H22      1.0000 0.66100  0.77700  0.14500  Biso   1.000  H
  H23      1.0000 0.16100  0.72300  0.64500  Biso   1.000  H
  H24      1.0000 0.33900  0.22300  0.85500  Biso   1.000  H
  H25      1.0000 0.90200  0.33800  0.57500  Biso   1.000  H
  H26      1.0000 0.59800  0.83800  0.92500  Biso   1.000  H
  H27      1.0000 0.09800  0.66200  0.42500  Biso   1.000  H
  H28      1.0000 0.40200  0.16200  0.07500  Biso   1.000  H
  H29      1.0000 0.97100  0.42100  0.74100  Biso   1.000  H
  H30      1.0000 0.52900  0.92100  0.75900  Biso   1.000  H
  H31      1.0000 0.02900  0.57900  0.25900  Biso   1.000  H
  H32      1.0000 0.47100  0.07900  0.24100  Biso   1.000  H
  H33      1.0000 0.05300  0.47400  0.91300  Biso   1.000  H
  H34      1.0000 0.44700  0.97400  0.58700  Biso   1.000  H
  H35      1.0000 0.94700  0.52600  0.08700  Biso   1.000  H
  H36      1.0000 0.55300  0.02600  0.41300  Biso   1.000  H
  H37      1.0000 0.14700  0.43200  0.82400  Biso   1.000  H
  H38      1.0000 0.35300  0.93200  0.67600  Biso   1.000  H
  H39      1.0000 0.85300  0.56800  0.17600  Biso   1.000  H
  H40      1.0000 0.64700  0.06800  0.32400  Biso   1.000  H
  H41      1.0000 0.16000  0.33600  0.56700  Biso   1.000  H
  H42      1.0000 0.34000  0.83600  0.93300  Biso   1.000  H
  H43      1.0000 0.84000  0.66400  0.43300  Biso   1.000  H
  H44      1.0000 0.66000  0.16400  0.06700  Biso   1.000  H
  H45      1.0000 0.20800  0.37200  0.25800  Biso   1.000  H
  H46      1.0000 0.29200  0.87200  0.24200  Biso   1.000  H
  H47      1.0000 0.79200  0.62800  0.74200  Biso   1.000  H
  H48      1.0000 0.70800  0.12800  0.75800  Biso   1.000  H
  H49      1.0000 0.20200  0.38700  0.06400  Biso   1.000  H
  H50      1.0000 0.29800  0.88700  0.43600  Biso   1.000  H
  H51      1.0000 0.79800  0.61300  0.93600  Biso   1.000  H
  H52      1.0000 0.70200  0.11300  0.56400  Biso   1.000  H
  H53      1.0000 0.30200  0.43700  0.00600  Biso   1.000  H
  H54      1.0000 0.19800  0.93700  0.49400  Biso   1.000  H
  H55      1.0000 0.69800  0.56300  0.99400  Biso   1.000  H
  H56      1.0000 0.80200  0.06300  0.50600  Biso   1.000  H
  H57      1.0000 0.31500  0.38900  0.18900  Biso   1.000  H
  H58      1.0000 0.18500  0.88900  0.31100  Biso   1.000  H
  H59      1.0000 0.68500  0.61100  0.81100  Biso   1.000  H
  H60      1.0000 0.81500  0.11100  0.68900  Biso   1.000  H
  H61      1.0000 0.25800  0.56000  0.28300  Biso   1.000  H
  H62      1.0000 0.24200  0.06000  0.21700  Biso   1.000  H
  H63      1.0000 0.74200  0.44000  0.71700  Biso   1.000  H
  H64      1.0000 0.75800  0.94000  0.78300  Biso   1.000  H
  C77      1.0000 0.22920  0.02260  0.90340  Biso   1.000  C
  C78      1.0000 0.27080  0.52260  0.59660  Biso   1.000  C
  C79      1.0000 0.77080  0.97740  0.09660  Biso   1.000  C
  C80      1.0000 0.72920  0.47740  0.40340  Biso   1.000  C
  C81      1.0000 0.23340  0.97950  0.77020  Biso   1.000  C
  C82      1.0000 0.26660  0.47950  0.72980  Biso   1.000  C
  C83      1.0000 0.76660  0.02050  0.22980  Biso   1.000  C
  C84      1.0000 0.73340  0.52050  0.27020  Biso   1.000  C
  C85      1.0000 0.24050  0.12260  0.94140  Biso   1.000  C
  C86      1.0000 0.25950  0.62260  0.55860  Biso   1.000  C
  C87      1.0000 0.75950  0.87740  0.05860  Biso   1.000  C
  C88      1.0000 0.74050  0.37740  0.44140  Biso   1.000  C
  O17      1.0000 0.21190  0.94550  0.00310  Biso   1.000  O
  O18      1.0000 0.28810  0.44550  0.49690  Biso   1.000  O
  O19      1.0000 0.78810  0.05450  0.99690  Biso   1.000  O
  O20      1.0000 0.71190  0.55450  0.50310  Biso   1.000  O
  O21      1.0000 0.25760  0.19660  0.57920  Biso   1.000  O
  O22      1.0000 0.24240  0.69660  0.92080  Biso   1.000  O
  O23      1.0000 0.74240  0.80340  0.42080  Biso   1.000  O
  O24      1.0000 0.75760  0.30340  0.07920  Biso   1.000  O
