data_image0
_cell_length_a       10.472
_cell_length_b       10.561
_cell_length_c       11.059
_cell_angle_alpha    96.271
_cell_angle_beta     114.843
_cell_angle_gamma    115.244

_symmetry_space_group_name_H-M    "P 1"
_symmetry_int_tables_number       1

loop_
  _symmetry_equiv_pos_as_xyz
  'x, y, z'

loop_
  _atom_site_label
  _atom_site_occupancy
  _atom_site_fract_x
  _atom_site_fract_y
  _atom_site_fract_z
  _atom_site_thermal_displace_type
  _atom_site_B_iso_or_equiv
  _atom_site_type_symbol
  Cu1      1.0000 0.78533  0.10567  0.61259  Biso   1.000  Cu
  Cu2      1.0000 0.21467  0.89433  0.38741  Biso   1.000  Cu
  Mg1      1.0000 0.00000  0.00000  0.50000  Biso   1.000  Mg
  Mg2      1.0000 0.00000  0.00000  0.00000  Biso   1.000  Mg
  O1       1.0000 0.99340  0.15283  0.62340  Biso   1.000  O
  O2       1.0000 0.00660  0.84717  0.37660  Biso   1.000  O
  O3       1.0000 0.61350  0.06030  0.38090  Biso   1.000  O
  O4       1.0000 0.38650  0.93970  0.61910  Biso   1.000  O
  H1       1.0000 0.50260  0.99690  0.33580  Biso   1.000  H
  H2       1.0000 0.49740  0.00310  0.66420  Biso   1.000  H
  O5       1.0000 0.68880  0.12730  0.72480  Biso   1.000  O
  O6       1.0000 0.31120  0.87270  0.27520  Biso   1.000  O
  O7       1.0000 0.69270  0.89660  0.59090  Biso   1.000  O
  O8       1.0000 0.30730  0.10340  0.40910  Biso   1.000  O
  O9       1.0000 0.86060  0.84000  0.55390  Biso   1.000  O
  O10      1.0000 0.13940  0.16000  0.44610  Biso   1.000  O
  O11      1.0000 0.78240  0.95940  0.31980  Biso   1.000  O
  O12      1.0000 0.21760  0.04060  0.68020  Biso   1.000  O
  H3       1.0000 0.72470  0.88200  0.23450  Biso   1.000  H
  H4       1.0000 0.27530  0.11800  0.76550  Biso   1.000  H
  H5       1.0000 0.72130  0.99630  0.33510  Biso   1.000  H
  H6       1.0000 0.27870  0.00370  0.66490  Biso   1.000  H
  O13      1.0000 0.84960  0.79810  0.83450  Biso   1.000  O
  O14      1.0000 0.15040  0.20190  0.16550  Biso   1.000  O
  O15      1.0000 0.65890  0.65450  0.88140  Biso   1.000  O
  O16      1.0000 0.34110  0.34550  0.11860  Biso   1.000  O
  O17      1.0000 0.19620  0.96790  0.06740  Biso   1.000  O
  O18      1.0000 0.80380  0.03210  0.93260  Biso   1.000  O
  H7       1.0000 0.21620  0.92590  0.12950  Biso   1.000  H
  H8       1.0000 0.78380  0.07410  0.87050  Biso   1.000  H
  H9       1.0000 0.23980  0.95720  0.01880  Biso   1.000  H
  H10      1.0000 0.76020  0.04280  0.98120  Biso   1.000  H
  O19      1.0000 0.91680  0.89210  0.11940  Biso   1.000  O
  O20      1.0000 0.08320  0.10790  0.88060  Biso   1.000  O
  H11      1.0000 0.95370  0.90330  0.21120  Biso   1.000  H
  H12      1.0000 0.04630  0.09670  0.78880  Biso   1.000  H
  H13      1.0000 0.82210  0.81200  0.06020  Biso   1.000  H
  H14      1.0000 0.17790  0.18800  0.93980  Biso   1.000  H
  O21      1.0000 0.93370  0.24230  0.24070  Biso   1.000  O
  O22      1.0000 0.06630  0.75770  0.75930  Biso   1.000  O
  H15      1.0000 0.85770  0.15830  0.18530  Biso   1.000  H
  H16      1.0000 0.14230  0.84170  0.81470  Biso   1.000  H
  H17      1.0000 0.00470  0.25010  0.22480  Biso   1.000  H
  H18      1.0000 0.99530  0.74990  0.77520  Biso   1.000  H
  N1       1.0000 0.85070  0.31660  0.62440  Biso   1.000  N
  N2       1.0000 0.14930  0.68340  0.37560  Biso   1.000  N
  C1       1.0000 0.10050  0.31080  0.68000  Biso   1.000  C
  C2       1.0000 0.89950  0.68920  0.32000  Biso   1.000  C
  H19      1.0000 0.18700  0.33870  0.65530  Biso   1.000  H
  H20      1.0000 0.81300  0.66130  0.34470  Biso   1.000  H
  H21      1.0000 0.15540  0.34600  0.78500  Biso   1.000  H
  H22      1.0000 0.84460  0.65400  0.21500  Biso   1.000  H
  C3       1.0000 0.00450  0.38550  0.62100  Biso   1.000  C
  C4       1.0000 0.99550  0.61450  0.37900  Biso   1.000  C
  H23      1.0000 0.07300  0.49350  0.67840  Biso   1.000  H
  H24      1.0000 0.92700  0.50650  0.32160  Biso   1.000  H
  H25      1.0000 0.97730  0.37470  0.52190  Biso   1.000  H
  H26      1.0000 0.02270  0.62530  0.47810  Biso   1.000  H
  C5       1.0000 0.64180  0.20100  0.36510  Biso   1.000  C
  C6       1.0000 0.35820  0.79900  0.63490  Biso   1.000  C
  H27      1.0000 0.53660  0.18840  0.29320  Biso   1.000  H
  H28      1.0000 0.46340  0.81160  0.70680  Biso   1.000  H
  H29      1.0000 0.72000  0.23640  0.33110  Biso   1.000  H
  H30      1.0000 0.28000  0.76360  0.66890  Biso   1.000  H
  C7       1.0000 0.71180  0.31560  0.50530  Biso   1.000  C
  C8       1.0000 0.28820  0.68440  0.49470  Biso   1.000  C
  H31      1.0000 0.75170  0.41600  0.49730  Biso   1.000  H
  H32      1.0000 0.24830  0.58400  0.50270  Biso   1.000  H
  H33      1.0000 0.62330  0.29330  0.52670  Biso   1.000  H
  H34      1.0000 0.37670  0.70670  0.47330  Biso   1.000  H
  C9       1.0000 0.73240  0.27730  0.77750  Biso   1.000  C
  C10      1.0000 0.26760  0.72270  0.22250  Biso   1.000  C
  H35      1.0000 0.76430  0.30450  0.87860  Biso   1.000  H
  H36      1.0000 0.23570  0.69550  0.12140  Biso   1.000  H
  H37      1.0000 0.63590  0.28670  0.72320  Biso   1.000  H
  H38      1.0000 0.36410  0.71330  0.27680  Biso   1.000  H
  C11      1.0000 0.87490  0.38340  0.76410  Biso   1.000  C
  C12      1.0000 0.12510  0.61660  0.23590  Biso   1.000  C
  H39      1.0000 0.88070  0.48010  0.77100  Biso   1.000  H
  H40      1.0000 0.11930  0.51990  0.22900  Biso   1.000  H
  H41      1.0000 0.98020  0.40210  0.84260  Biso   1.000  H
  H42      1.0000 0.01980  0.59790  0.15740  Biso   1.000  H
  C13      1.0000 0.73870  0.80870  0.56720  Biso   1.000  C
  C14      1.0000 0.26130  0.19130  0.43280  Biso   1.000  C
  C15      1.0000 0.62330  0.64800  0.53950  Biso   1.000  C
  C16      1.0000 0.37670  0.35200  0.46050  Biso   1.000  C
  C17      1.0000 0.52470  0.55300  0.39810  Biso   1.000  C
  C18      1.0000 0.47530  0.44700  0.60190  Biso   1.000  C
  H43      1.0000 0.54240  0.58920  0.32820  Biso   1.000  H
  H44      1.0000 0.45760  0.41080  0.67180  Biso   1.000  H
  C19      1.0000 0.59930  0.59420  0.64290  Biso   1.000  C
  C20      1.0000 0.40070  0.40580  0.35710  Biso   1.000  C
  C21      1.0000 0.70940  0.68950  0.79840  Biso   1.000  C
  C22      1.0000 0.29060  0.31050  0.20160  Biso   1.000  C
  O23      1.0000 0.54420  0.75550  0.05250  Biso   1.000  O
  O24      1.0000 0.45580  0.24450  0.94750  Biso   1.000  O
  H45      1.0000 0.54250  0.71670  0.98390  Biso   1.000  H
  H46      1.0000 0.45750  0.28330  0.01610  Biso   1.000  H
  H47      1.0000 0.45640  0.77060  0.01830  Biso   1.000  H
  H48      1.0000 0.54360  0.22940  0.98170  Biso   1.000  H
  O25      1.0000 0.37240  0.90490  0.96080  Biso   1.000  O
  O26      1.0000 0.62760  0.09510  0.03920  Biso   1.000  O
  H49      1.0000 0.42870  0.00750  0.97920  Biso   1.000  H
  H50      1.0000 0.57130  0.99250  0.02080  Biso   1.000  H
  H51      1.0000 0.28020  0.86200  0.85970  Biso   1.000  H
  H52      1.0000 0.71980  0.13800  0.14030  Biso   1.000  H
  O27      1.0000 0.39400  0.81940  0.99190  Biso   1.000  O
  O28      1.0000 0.60600  0.18060  0.00810  Biso   1.000  O
  H53      1.0000 0.27850  0.76190  0.89790  Biso   1.000  H
  H54      1.0000 0.72150  0.23810  0.10210  Biso   1.000  H
  H55      1.0000 0.47250  0.86270  0.96800  Biso   1.000  H
  H56      1.0000 0.52750  0.13730  0.03200  Biso   1.000  H
  O29      1.0000 0.49810  0.61540  0.04640  Biso   1.000  O
  O30      1.0000 0.50190  0.38460  0.95360  Biso   1.000  O
  H57      1.0000 0.55840  0.63950  0.99570  Biso   1.000  H
  H58      1.0000 0.44160  0.36050  0.00430  Biso   1.000  H
  H59      1.0000 0.45100  0.52560  0.01920  Biso   1.000  H
  H60      1.0000 0.54900  0.47440  0.98080  Biso   1.000  H
