data_image0
_cell_length_a       7.485
_cell_length_b       31.617
_cell_length_c       5.169
_cell_angle_alpha    90
_cell_angle_beta     106.19
_cell_angle_gamma    90

_symmetry_space_group_name_H-M    "P 1"
_symmetry_int_tables_number       1

loop_
  _symmetry_equiv_pos_as_xyz
  'x, y, z'

loop_
  _atom_site_label
  _atom_site_occupancy
  _atom_site_fract_x
  _atom_site_fract_y
  _atom_site_fract_z
  _atom_site_thermal_displace_type
  _atom_site_B_iso_or_equiv
  _atom_site_type_symbol
  Cu1      1.0000 0.92265  0.11215  0.90239  Biso   1.000  Cu
  Cu2      1.0000 0.07735  0.61215  0.59761  Biso   1.000  Cu
  Cu3      1.0000 0.07735  0.88785  0.09761  Biso   1.000  Cu
  Cu4      1.0000 0.92265  0.38785  0.40239  Biso   1.000  Cu
  O1       1.0000 0.01670  0.14857  0.68020  Biso   1.000  O
  O2       1.0000 0.98330  0.64857  0.81980  Biso   1.000  O
  O3       1.0000 0.98330  0.85143  0.31980  Biso   1.000  O
  O4       1.0000 0.01670  0.35143  0.18020  Biso   1.000  O
  O5       1.0000 0.99900  0.21206  0.50060  Biso   1.000  O
  O6       1.0000 0.00100  0.71206  0.99940  Biso   1.000  O
  O7       1.0000 0.00100  0.78794  0.49940  Biso   1.000  O
  O8       1.0000 0.99900  0.28794  0.00060  Biso   1.000  O
  O9       1.0000 0.83190  0.08430  0.15990  Biso   1.000  O
  O10      1.0000 0.16810  0.58430  0.34010  Biso   1.000  O
  O11      1.0000 0.16810  0.91570  0.84010  Biso   1.000  O
  O12      1.0000 0.83190  0.41570  0.65990  Biso   1.000  O
  O13      1.0000 0.73260  0.07920  0.51920  Biso   1.000  O
  O14      1.0000 0.26740  0.57920  0.98080  Biso   1.000  O
  O15      1.0000 0.26740  0.92080  0.48080  Biso   1.000  O
  O16      1.0000 0.73260  0.42080  0.01920  Biso   1.000  O
  O17      1.0000 0.76790  0.16280  0.92310  Biso   1.000  O
  O18      1.0000 0.23210  0.66280  0.57690  Biso   1.000  O
  O19      1.0000 0.23210  0.83720  0.07690  Biso   1.000  O
  O20      1.0000 0.76790  0.33720  0.42310  Biso   1.000  O
  N1       1.0000 0.12940  0.07102  0.94210  Biso   1.000  N
  N2       1.0000 0.87060  0.57102  0.55790  Biso   1.000  N
  N3       1.0000 0.87060  0.92898  0.05790  Biso   1.000  N
  N4       1.0000 0.12940  0.42898  0.44210  Biso   1.000  N
  C1       1.0000 0.36340  0.20243  0.11150  Biso   1.000  C
  C2       1.0000 0.63660  0.70243  0.38850  Biso   1.000  C
  C3       1.0000 0.63660  0.79757  0.88850  Biso   1.000  C
  C4       1.0000 0.36340  0.29757  0.61150  Biso   1.000  C
  H1       1.0000 0.28080  0.22500  0.07200  Biso   1.000  H
  H2       1.0000 0.71920  0.72500  0.42800  Biso   1.000  H
  H3       1.0000 0.71920  0.77500  0.92800  Biso   1.000  H
  H4       1.0000 0.28080  0.27500  0.57200  Biso   1.000  H
  C5       1.0000 0.34200  0.17196  0.28680  Biso   1.000  C
  C6       1.0000 0.65800  0.67196  0.21320  Biso   1.000  C
  C7       1.0000 0.65800  0.82804  0.71320  Biso   1.000  C
  C8       1.0000 0.34200  0.32804  0.78680  Biso   1.000  C
  H5       1.0000 0.24530  0.17360  0.36690  Biso   1.000  H
  H6       1.0000 0.75470  0.67360  0.13310  Biso   1.000  H
  H7       1.0000 0.75470  0.82640  0.63310  Biso   1.000  H
  H8       1.0000 0.24530  0.32640  0.86690  Biso   1.000  H
  C9       1.0000 0.46430  0.13904  0.34320  Biso   1.000  C
  C10      1.0000 0.53570  0.63904  0.15680  Biso   1.000  C
  C11      1.0000 0.53570  0.86096  0.65680  Biso   1.000  C
  C12      1.0000 0.46430  0.36096  0.84320  Biso   1.000  C
  H9       1.0000 0.45040  0.11860  0.46540  Biso   1.000  H
  H10      1.0000 0.54960  0.61860  0.03460  Biso   1.000  H
  H11      1.0000 0.54960  0.88140  0.53460  Biso   1.000  H
  H12      1.0000 0.45040  0.38140  0.96540  Biso   1.000  H
  C13      1.0000 0.60880  0.13484  0.22530  Biso   1.000  C
  C14      1.0000 0.39120  0.63484  0.27470  Biso   1.000  C
  C15      1.0000 0.39120  0.86516  0.77470  Biso   1.000  C
  C16      1.0000 0.60880  0.36516  0.72530  Biso   1.000  C
  C17      1.0000 0.62600  0.16624  0.04690  Biso   1.000  C
  C18      1.0000 0.37400  0.66624  0.45310  Biso   1.000  C
  C19      1.0000 0.37400  0.83376  0.95310  Biso   1.000  C
  C20      1.0000 0.62600  0.33376  0.54690  Biso   1.000  C
  C21      1.0000 0.50640  0.20006  0.99220  Biso   1.000  C
  C22      1.0000 0.49360  0.70006  0.50780  Biso   1.000  C
  C23      1.0000 0.49360  0.79994  0.00780  Biso   1.000  C
  C24      1.0000 0.50640  0.29994  0.49220  Biso   1.000  C
  H13      1.0000 0.52170  0.22120  0.87540  Biso   1.000  H
  H14      1.0000 0.47830  0.72120  0.62460  Biso   1.000  H
  H15      1.0000 0.47830  0.77880  0.12460  Biso   1.000  H
  H16      1.0000 0.52170  0.27880  0.37540  Biso   1.000  H
  C25      1.0000 0.73290  0.09729  0.30850  Biso   1.000  C
  C26      1.0000 0.26710  0.59729  0.19150  Biso   1.000  C
  C27      1.0000 0.26710  0.90271  0.69150  Biso   1.000  C
  C28      1.0000 0.73290  0.40271  0.80850  Biso   1.000  C
  C29      1.0000 0.80870  0.19834  0.77820  Biso   1.000  C
  C30      1.0000 0.19130  0.69834  0.72180  Biso   1.000  C
  C31      1.0000 0.19130  0.80166  0.22180  Biso   1.000  C
  C32      1.0000 0.80870  0.30166  0.27820  Biso   1.000  C
  H17      1.0000 0.85420  0.22160  0.90130  Biso   1.000  H
  H18      1.0000 0.14580  0.72160  0.59870  Biso   1.000  H
  H19      1.0000 0.14580  0.77840  0.09870  Biso   1.000  H
  H20      1.0000 0.85420  0.27840  0.40130  Biso   1.000  H
  H21      1.0000 0.69650  0.20760  0.64510  Biso   1.000  H
  H22      1.0000 0.30350  0.70760  0.85490  Biso   1.000  H
  H23      1.0000 0.30350  0.79240  0.35490  Biso   1.000  H
  H24      1.0000 0.69650  0.29240  0.14510  Biso   1.000  H
  C33      1.0000 0.95320  0.18599  0.64110  Biso   1.000  C
  C34      1.0000 0.04680  0.68599  0.85890  Biso   1.000  C
  C35      1.0000 0.04680  0.81401  0.35890  Biso   1.000  C
  C36      1.0000 0.95320  0.31401  0.14110  Biso   1.000  C
  C37      1.0000 0.15560  0.03849  0.11090  Biso   1.000  C
  C38      1.0000 0.84440  0.53849  0.38910  Biso   1.000  C
  C39      1.0000 0.84440  0.96151  0.88910  Biso   1.000  C
  C40      1.0000 0.15560  0.46151  0.61090  Biso   1.000  C
  H25      1.0000 0.07370  0.03470  0.21520  Biso   1.000  H
  H26      1.0000 0.92630  0.53470  0.28480  Biso   1.000  H
  H27      1.0000 0.92630  0.96530  0.78480  Biso   1.000  H
  H28      1.0000 0.07370  0.46530  0.71520  Biso   1.000  H
  C41      1.0000 0.29820  0.01038  0.13760  Biso   1.000  C
  C42      1.0000 0.70180  0.51038  0.36240  Biso   1.000  C
  C43      1.0000 0.70180  0.98962  0.86240  Biso   1.000  C
  C44      1.0000 0.29820  0.48962  0.63760  Biso   1.000  C
  H29      1.0000 0.31130  0.98810  0.25890  Biso   1.000  H
  H30      1.0000 0.68870  0.48810  0.24110  Biso   1.000  H
  H31      1.0000 0.68870  0.01190  0.74110  Biso   1.000  H
  H32      1.0000 0.31130  0.51190  0.75890  Biso   1.000  H
  C45      1.0000 0.42210  0.01465  0.98800  Biso   1.000  C
  C46      1.0000 0.57790  0.51465  0.51200  Biso   1.000  C
  C47      1.0000 0.57790  0.98535  0.01200  Biso   1.000  C
  C48      1.0000 0.42210  0.48535  0.48800  Biso   1.000  C
  C49      1.0000 0.39390  0.04873  0.81460  Biso   1.000  C
  C50      1.0000 0.60610  0.54873  0.68540  Biso   1.000  C
  C51      1.0000 0.60610  0.95127  0.18540  Biso   1.000  C
  C52      1.0000 0.39390  0.45127  0.31460  Biso   1.000  C
  H33      1.0000 0.47510  0.05350  0.71030  Biso   1.000  H
  H34      1.0000 0.52490  0.55350  0.78970  Biso   1.000  H
  H35      1.0000 0.52490  0.94650  0.28970  Biso   1.000  H
  H36      1.0000 0.47510  0.44650  0.21030  Biso   1.000  H
  C53      1.0000 0.24890  0.07537  0.79520  Biso   1.000  C
  C54      1.0000 0.75110  0.57537  0.70480  Biso   1.000  C
  C55      1.0000 0.75110  0.92463  0.20480  Biso   1.000  C
  C56      1.0000 0.24890  0.42463  0.29520  Biso   1.000  C
  H37      1.0000 0.23200  0.09770  0.67370  Biso   1.000  H
  H38      1.0000 0.76800  0.59770  0.82630  Biso   1.000  H
  H39      1.0000 0.76800  0.90230  0.32630  Biso   1.000  H
  H40      1.0000 0.23200  0.40230  0.17370  Biso   1.000  H
