data_image0
_cell_length_a       7.5343
_cell_length_b       15.432
_cell_length_c       16.814
_cell_angle_alpha    116.35
_cell_angle_beta     92.04
_cell_angle_gamma    90.63

_symmetry_space_group_name_H-M    "P 1"
_symmetry_int_tables_number       1

loop_
  _symmetry_equiv_pos_as_xyz
  'x, y, z'

loop_
  _atom_site_label
  _atom_site_occupancy
  _atom_site_fract_x
  _atom_site_fract_y
  _atom_site_fract_z
  _atom_site_thermal_displace_type
  _atom_site_B_iso_or_equiv
  _atom_site_type_symbol
  Cu1      1.0000 0.99112  0.24722  0.99058  Biso   1.000  Cu
  Cu2      1.0000 0.00888  0.75278  0.00942  Biso   1.000  Cu
  Cu3      1.0000 0.01150  0.27528  0.49550  Biso   1.000  Cu
  Cu4      1.0000 0.98850  0.72472  0.50450  Biso   1.000  Cu
  C1       1.0000 0.32900  0.52932  0.31503  Biso   1.000  C
  C2       1.0000 0.67100  0.47068  0.68497  Biso   1.000  C
  C3       1.0000 0.49370  0.51154  0.34266  Biso   1.000  C
  C4       1.0000 0.50630  0.48846  0.65734  Biso   1.000  C
  H1       1.0000 0.51100  0.51710  0.39980  Biso   1.000  H
  H2       1.0000 0.48900  0.48290  0.60020  Biso   1.000  H
  C5       1.0000 0.63440  0.48524  0.28539  Biso   1.000  C
  C6       1.0000 0.36560  0.51476  0.71461  Biso   1.000  C
  H3       1.0000 0.74580  0.47450  0.30430  Biso   1.000  H
  H4       1.0000 0.25420  0.52550  0.69570  Biso   1.000  H
  C7       1.0000 0.60550  0.47542  0.20008  Biso   1.000  C
  C8       1.0000 0.39450  0.52458  0.79992  Biso   1.000  C
  H5       1.0000 0.69850  0.45730  0.16150  Biso   1.000  H
  H6       1.0000 0.30150  0.54270  0.83850  Biso   1.000  H
  C9       1.0000 0.44020  0.49210  0.17073  Biso   1.000  C
  C10      1.0000 0.55980  0.50790  0.82927  Biso   1.000  C
  H7       1.0000 0.42180  0.48410  0.11280  Biso   1.000  H
  H8       1.0000 0.57820  0.51590  0.88720  Biso   1.000  H
  C11      1.0000 0.30360  0.52086  0.22921  Biso   1.000  C
  C12      1.0000 0.69640  0.47914  0.77079  Biso   1.000  C
  C13      1.0000 0.17670  0.55932  0.37590  Biso   1.000  C
  C14      1.0000 0.82330  0.44068  0.62410  Biso   1.000  C
  C15      1.0000 0.09800  0.53586  0.12393  Biso   1.000  C
  C16      1.0000 0.90200  0.46414  0.87607  Biso   1.000  C
  H9       1.0000 0.19480  0.56650  0.10840  Biso   1.000  H
  H10      1.0000 0.80520  0.43350  0.89160  Biso   1.000  H
  H11      1.0000 0.99060  0.57020  0.12450  Biso   1.000  H
  H12      1.0000 0.00940  0.42980  0.87550  Biso   1.000  H
  C17      1.0000 0.07430  0.43114  0.05407  Biso   1.000  C
  C18      1.0000 0.92570  0.56886  0.94593  Biso   1.000  C
  C19      1.0000 0.55300  0.00415  0.81806  Biso   1.000  C
  C20      1.0000 0.44700  0.99585  0.18194  Biso   1.000  C
  H13      1.0000 0.56620  0.01830  0.87780  Biso   1.000  H
  H14      1.0000 0.43380  0.98170  0.12220  Biso   1.000  H
  C21      1.0000 0.39360  0.02224  0.78413  Biso   1.000  C
  C22      1.0000 0.60640  0.97776  0.21587  Biso   1.000  C
  H15      1.0000 0.30010  0.04760  0.82160  Biso   1.000  H
  H16      1.0000 0.69990  0.95240  0.17840  Biso   1.000  H
  C23      1.0000 0.37200  0.00314  0.69564  Biso   1.000  C
  C24      1.0000 0.62800  0.99686  0.30436  Biso   1.000  C
  H17      1.0000 0.26500  0.01510  0.67350  Biso   1.000  H
  H18      1.0000 0.73500  0.98490  0.32650  Biso   1.000  H
  C25      1.0000 0.51340  0.96574  0.64036  Biso   1.000  C
  C26      1.0000 0.48660  0.03426  0.35964  Biso   1.000  C
  H19      1.0000 0.50140  0.95390  0.58110  Biso   1.000  H
  H20      1.0000 0.49860  0.04610  0.41890  Biso   1.000  H
  C27      1.0000 0.67120  0.94608  0.67252  Biso   1.000  C
  C28      1.0000 0.32880  0.05392  0.32748  Biso   1.000  C
  C29      1.0000 0.69100  0.96502  0.76230  Biso   1.000  C
  C30      1.0000 0.30900  0.03498  0.23770  Biso   1.000  C
  C31      1.0000 0.81650  0.89739  0.61090  Biso   1.000  C
  C32      1.0000 0.18350  0.10261  0.38910  Biso   1.000  C
  C33      1.0000 0.88320  0.96021  0.87662  Biso   1.000  C
  C34      1.0000 0.11680  0.03979  0.12338  Biso   1.000  C
  H21      1.0000 0.98680  0.92580  0.88140  Biso   1.000  H
  H22      1.0000 0.01320  0.07420  0.11860  Biso   1.000  H
  H23      1.0000 0.78240  0.93610  0.89590  Biso   1.000  H
  H24      1.0000 0.21760  0.06390  0.10410  Biso   1.000  H
  C35      1.0000 0.91270  0.06661  0.93752  Biso   1.000  C
  C36      1.0000 0.08730  0.93339  0.06248  Biso   1.000  C
  C37      1.0000 0.81960  0.20097  0.81839  Biso   1.000  C
  C38      1.0000 0.18040  0.79903  0.18161  Biso   1.000  C
  H25      1.0000 0.92180  0.16580  0.79860  Biso   1.000  H
  H26      1.0000 0.07820  0.83420  0.20140  Biso   1.000  H
  C39      1.0000 0.69800  0.20362  0.75648  Biso   1.000  C
  C40      1.0000 0.30200  0.79638  0.24352  Biso   1.000  C
  H27      1.0000 0.72060  0.17220  0.69640  Biso   1.000  H
  H28      1.0000 0.27940  0.82780  0.30360  Biso   1.000  H
  C41      1.0000 0.54080  0.25346  0.78385  Biso   1.000  C
  C42      1.0000 0.45920  0.74654  0.21615  Biso   1.000  C
  C43      1.0000 0.51450  0.29848  0.87546  Biso   1.000  C
  C44      1.0000 0.48550  0.70152  0.12454  Biso   1.000  C
  H29      1.0000 0.40970  0.33030  0.89680  Biso   1.000  H
  H30      1.0000 0.59030  0.66970  0.10320  Biso   1.000  H
  C45      1.0000 0.64530  0.29523  0.93349  Biso   1.000  C
  C46      1.0000 0.35470  0.70477  0.06651  Biso   1.000  C
  H31      1.0000 0.62820  0.32770  0.99410  Biso   1.000  H
  H32      1.0000 0.37180  0.67230  0.00590  Biso   1.000  H
  C47      1.0000 0.46980  0.25344  0.63846  Biso   1.000  C
  C48      1.0000 0.53020  0.74656  0.36154  Biso   1.000  C
  H33      1.0000 0.58940  0.24570  0.62570  Biso   1.000  H
  H34      1.0000 0.41060  0.75430  0.37430  Biso   1.000  H
  C49      1.0000 0.34620  0.26006  0.57879  Biso   1.000  C
  C50      1.0000 0.65380  0.73994  0.42121  Biso   1.000  C
  H35      1.0000 0.38640  0.25710  0.52600  Biso   1.000  H
  H36      1.0000 0.61360  0.74290  0.47400  Biso   1.000  H
  C51      1.0000 0.11610  0.27513  0.66898  Biso   1.000  C
  C52      1.0000 0.88390  0.72487  0.33102  Biso   1.000  C
  H37      1.0000 0.99540  0.28160  0.67930  Biso   1.000  H
  H38      1.0000 0.00460  0.71840  0.32070  Biso   1.000  H
  C53      1.0000 0.23140  0.27071  0.73308  Biso   1.000  C
  C54      1.0000 0.76860  0.72929  0.26692  Biso   1.000  C
  H39      1.0000 0.18800  0.27580  0.78600  Biso   1.000  H
  H40      1.0000 0.81200  0.72420  0.21400  Biso   1.000  H
  C55      1.0000 0.41160  0.25863  0.71835  Biso   1.000  C
  C56      1.0000 0.58840  0.74137  0.28165  Biso   1.000  C
  C57      1.0000 0.33990  0.20081  0.04831  Biso   1.000  C
  C58      1.0000 0.66010  0.79919  0.95169  Biso   1.000  C
  H41      1.0000 0.35860  0.16850  0.98780  Biso   1.000  H
  H42      1.0000 0.64140  0.83150  0.01220  Biso   1.000  H
  C59      1.0000 0.47100  0.19962  0.10715  Biso   1.000  C
  C60      1.0000 0.52900  0.80038  0.89285  Biso   1.000  C
  H43      1.0000 0.57620  0.16820  0.08630  Biso   1.000  H
  H44      1.0000 0.42380  0.83180  0.91370  Biso   1.000  H
  C61      1.0000 0.44480  0.24604  0.19854  Biso   1.000  C
  C62      1.0000 0.55520  0.75396  0.80146  Biso   1.000  C
  C63      1.0000 0.28480  0.29311  0.22449  Biso   1.000  C
  C64      1.0000 0.71520  0.70689  0.77551  Biso   1.000  C
  H45      1.0000 0.26110  0.32480  0.28450  Biso   1.000  H
  H46      1.0000 0.73890  0.67520  0.71550  Biso   1.000  H
  C65      1.0000 0.16260  0.29285  0.16219  Biso   1.000  C
  C66      1.0000 0.83740  0.70715  0.83781  Biso   1.000  C
  H47      1.0000 0.05850  0.32630  0.18160  Biso   1.000  H
  H48      1.0000 0.94150  0.67370  0.81840  Biso   1.000  H
  C67      1.0000 0.57780  0.24786  0.26547  Biso   1.000  C
  C68      1.0000 0.42220  0.75214  0.73453  Biso   1.000  C
  C69      1.0000 0.52840  0.26624  0.35043  Biso   1.000  C
  C70      1.0000 0.47160  0.73376  0.64957  Biso   1.000  C
  H49      1.0000 0.40970  0.27420  0.36470  Biso   1.000  H
  H50      1.0000 0.59030  0.72580  0.63530  Biso   1.000  H
  C71      1.0000 0.65830  0.27261  0.41360  Biso   1.000  C
  C72      1.0000 0.34170  0.72739  0.58640  Biso   1.000  C
  H51      1.0000 0.62310  0.28600  0.47030  Biso   1.000  H
  H52      1.0000 0.37690  0.71400  0.52970  Biso   1.000  H
  C73      1.0000 0.87780  0.23917  0.31468  Biso   1.000  C
  C74      1.0000 0.12220  0.76083  0.68532  Biso   1.000  C
  H53      1.0000 0.99680  0.22820  0.30150  Biso   1.000  H
  H54      1.0000 0.00320  0.77180  0.69850  Biso   1.000  H
  C75      1.0000 0.75710  0.23283  0.24831  Biso   1.000  C
  C76      1.0000 0.24290  0.76717  0.75169  Biso   1.000  C
  H55      1.0000 0.79580  0.21850  0.19200  Biso   1.000  H
  H56      1.0000 0.20420  0.78150  0.80800  Biso   1.000  H
  N1       1.0000 0.82980  0.26062  0.39766  Biso   1.000  N
  N2       1.0000 0.17020  0.73938  0.60234  Biso   1.000  N
  N3       1.0000 0.17350  0.27036  0.59227  Biso   1.000  N
  N4       1.0000 0.82650  0.72964  0.40773  Biso   1.000  N
  N5       1.0000 0.79700  0.24707  0.90633  Biso   1.000  N
  N6       1.0000 0.20300  0.75293  0.09367  Biso   1.000  N
  N7       1.0000 0.18580  0.24661  0.07436  Biso   1.000  N
  N8       1.0000 0.81420  0.75339  0.92564  Biso   1.000  N
  O1       1.0000 0.08570  0.49725  0.38482  Biso   1.000  O
  O2       1.0000 0.91430  0.50275  0.61518  Biso   1.000  O
  O3       1.0000 0.15500  0.65054  0.41502  Biso   1.000  O
  O4       1.0000 0.84500  0.34946  0.58498  Biso   1.000  O
  O5       1.0000 0.95590  0.38148  0.07069  Biso   1.000  O
  O6       1.0000 0.04410  0.61852  0.92931  Biso   1.000  O
  O7       1.0000 0.16340  0.39866  0.98755  Biso   1.000  O
  O8       1.0000 0.83660  0.60134  0.01245  Biso   1.000  O
  O9       1.0000 0.83520  0.10588  0.00776  Biso   1.000  O
  O10      1.0000 0.16480  0.89412  0.99224  Biso   1.000  O
  O11      1.0000 0.02310  0.11144  0.91124  Biso   1.000  O
  O12      1.0000 0.97690  0.88856  0.08876  Biso   1.000  O
  O13      1.0000 0.90290  0.94007  0.57745  Biso   1.000  O
  O14      1.0000 0.09710  0.05993  0.42255  Biso   1.000  O
  O15      1.0000 0.83530  0.80865  0.59445  Biso   1.000  O
  O16      1.0000 0.16470  0.19135  0.40555  Biso   1.000  O
  O17      1.0000 0.85170  0.94020  0.78604  Biso   1.000  O
  O18      1.0000 0.14830  0.05980  0.21396  Biso   1.000  O
  O19      1.0000 0.13500  0.54292  0.21049  Biso   1.000  O
  O20      1.0000 0.86500  0.45708  0.78951  Biso   1.000  O
  O21      1.0000 0.81220  0.09842  0.54101  Biso   1.000  O
  O22      1.0000 0.18780  0.90158  0.45899  Biso   1.000  O
  H57      1.0000 0.89480  0.09970  0.50540  Biso   1.000  H
  H58      1.0000 0.10520  0.90030  0.49460  Biso   1.000  H
  H59      1.0000 0.83210  0.05090  0.55370  Biso   1.000  H
  H60      1.0000 0.16790  0.94910  0.44630  Biso   1.000  H
  O23      1.0000 0.16650  0.40798  0.49695  Biso   1.000  O
  O24      1.0000 0.83350  0.59202  0.50305  Biso   1.000  O
  H61      1.0000 0.09630  0.44890  0.54140  Biso   1.000  H
  H62      1.0000 0.90370  0.55110  0.45860  Biso   1.000  H
  H63      1.0000 0.14640  0.41700  0.44780  Biso   1.000  H
  H64      1.0000 0.85360  0.58300  0.55220  Biso   1.000  H
