data_image0
_cell_length_a       11.271
_cell_length_b       15.663
_cell_length_c       12.609
_cell_angle_alpha    90
_cell_angle_beta     104.43
_cell_angle_gamma    90

_symmetry_space_group_name_H-M    "P 1"
_symmetry_int_tables_number       1

loop_
  _symmetry_equiv_pos_as_xyz
  'x, y, z'

loop_
  _atom_site_label
  _atom_site_occupancy
  _atom_site_fract_x
  _atom_site_fract_y
  _atom_site_fract_z
  _atom_site_thermal_displace_type
  _atom_site_B_iso_or_equiv
  _atom_site_type_symbol
  C1       1.0000 0.78440  0.34550  0.79700  Biso   1.000  C
  C2       1.0000 0.21560  0.84550  0.70300  Biso   1.000  C
  C3       1.0000 0.21560  0.65450  0.20300  Biso   1.000  C
  C4       1.0000 0.78440  0.15450  0.29700  Biso   1.000  C
  H1       1.0000 0.71550  0.33120  0.82110  Biso   1.000  H
  H2       1.0000 0.28450  0.83120  0.67890  Biso   1.000  H
  H3       1.0000 0.28450  0.66880  0.17890  Biso   1.000  H
  H4       1.0000 0.71550  0.16880  0.32110  Biso   1.000  H
  C5       1.0000 0.96430  0.34640  0.77510  Biso   1.000  C
  C6       1.0000 0.03570  0.84640  0.72490  Biso   1.000  C
  C7       1.0000 0.03570  0.65360  0.22490  Biso   1.000  C
  C8       1.0000 0.96430  0.15360  0.27510  Biso   1.000  C
  H5       1.0000 0.04600  0.33420  0.77880  Biso   1.000  H
  H6       1.0000 0.95400  0.83420  0.72120  Biso   1.000  H
  H7       1.0000 0.95400  0.66580  0.22120  Biso   1.000  H
  H8       1.0000 0.04600  0.16580  0.27880  Biso   1.000  H
  C9       1.0000 0.93670  0.46280  0.63330  Biso   1.000  C
  C10      1.0000 0.06330  0.96280  0.86670  Biso   1.000  C
  C11      1.0000 0.06330  0.53720  0.36670  Biso   1.000  C
  C12      1.0000 0.93670  0.03720  0.13330  Biso   1.000  C
  H9       1.0000 0.94870  0.51960  0.66460  Biso   1.000  H
  H10      1.0000 0.05130  0.01960  0.83540  Biso   1.000  H
  H11      1.0000 0.05130  0.48040  0.33540  Biso   1.000  H
  H12      1.0000 0.94870  0.98040  0.16460  Biso   1.000  H
  H13      1.0000 0.87290  0.46590  0.56560  Biso   1.000  H
  H14      1.0000 0.12710  0.96590  0.93440  Biso   1.000  H
  H15      1.0000 0.12710  0.53410  0.43440  Biso   1.000  H
  H16      1.0000 0.87290  0.03410  0.06560  Biso   1.000  H
  C13      1.0000 0.05240  0.43310  0.60890  Biso   1.000  C
  C14      1.0000 0.94760  0.93310  0.89110  Biso   1.000  C
  C15      1.0000 0.94760  0.56690  0.39110  Biso   1.000  C
  C16      1.0000 0.05240  0.06690  0.10890  Biso   1.000  C
  C17      1.0000 0.18360  0.36400  0.54330  Biso   1.000  C
  C18      1.0000 0.81640  0.86400  0.95670  Biso   1.000  C
  C19      1.0000 0.81640  0.63600  0.45670  Biso   1.000  C
  C20      1.0000 0.18360  0.13600  0.04330  Biso   1.000  C
  C21      1.0000 0.21360  0.29480  0.47500  Biso   1.000  C
  C22      1.0000 0.78640  0.79480  0.02500  Biso   1.000  C
  C23      1.0000 0.78640  0.70520  0.52500  Biso   1.000  C
  C24      1.0000 0.21360  0.20520  0.97500  Biso   1.000  C
  C25      1.0000 0.24940  0.42280  0.61640  Biso   1.000  C
  C26      1.0000 0.75060  0.92280  0.88360  Biso   1.000  C
  C27      1.0000 0.75060  0.57720  0.38360  Biso   1.000  C
  C28      1.0000 0.24940  0.07720  0.11640  Biso   1.000  C
  C29      1.0000 0.37870  0.44760  0.66430  Biso   1.000  C
  C30      1.0000 0.62130  0.94760  0.83570  Biso   1.000  C
  C31      1.0000 0.62130  0.55240  0.33570  Biso   1.000  C
  C32      1.0000 0.37870  0.05240  0.16430  Biso   1.000  C
  C33      1.0000 0.21960  0.46730  0.00610  Biso   1.000  C
  C34      1.0000 0.78040  0.96730  0.49390  Biso   1.000  C
  C35      1.0000 0.78040  0.53270  0.99390  Biso   1.000  C
  C36      1.0000 0.21960  0.03270  0.50610  Biso   1.000  C
  H17      1.0000 0.14520  0.49530  0.99870  Biso   1.000  H
  H18      1.0000 0.85480  0.99530  0.50130  Biso   1.000  H
  H19      1.0000 0.85480  0.50470  0.00130  Biso   1.000  H
  H20      1.0000 0.14520  0.00470  0.49870  Biso   1.000  H
  C37      1.0000 0.37470  0.41950  0.97270  Biso   1.000  C
  C38      1.0000 0.62530  0.91950  0.52730  Biso   1.000  C
  C39      1.0000 0.62530  0.58050  0.02730  Biso   1.000  C
  C40      1.0000 0.37470  0.08050  0.47270  Biso   1.000  C
  H21      1.0000 0.43750  0.40870  0.93860  Biso   1.000  H
  H22      1.0000 0.56250  0.90870  0.56140  Biso   1.000  H
  H23      1.0000 0.56250  0.59130  0.06140  Biso   1.000  H
  H24      1.0000 0.43750  0.09130  0.43860  Biso   1.000  H
  C41      1.0000 0.46100  0.33830  0.15580  Biso   1.000  C
  C42      1.0000 0.53900  0.83830  0.34420  Biso   1.000  C
  C43      1.0000 0.53900  0.66170  0.84420  Biso   1.000  C
  C44      1.0000 0.46100  0.16170  0.65580  Biso   1.000  C
  H25      1.0000 0.41750  0.28820  0.17090  Biso   1.000  H
  H26      1.0000 0.58250  0.78820  0.32910  Biso   1.000  H
  H27      1.0000 0.58250  0.71180  0.82910  Biso   1.000  H
  H28      1.0000 0.41750  0.21180  0.67090  Biso   1.000  H
  H29      1.0000 0.48890  0.37000  0.22350  Biso   1.000  H
  H30      1.0000 0.51110  0.87000  0.27650  Biso   1.000  H
  H31      1.0000 0.51110  0.63000  0.77650  Biso   1.000  H
  H32      1.0000 0.48890  0.13000  0.72350  Biso   1.000  H
  C45      1.0000 0.56760  0.31170  0.11560  Biso   1.000  C
  C46      1.0000 0.43240  0.81170  0.38440  Biso   1.000  C
  C47      1.0000 0.43240  0.68830  0.88440  Biso   1.000  C
  C48      1.0000 0.56760  0.18830  0.61560  Biso   1.000  C
  C49      1.0000 0.75390  0.30860  0.09700  Biso   1.000  C
  C50      1.0000 0.24610  0.80860  0.40300  Biso   1.000  C
  C51      1.0000 0.24610  0.69140  0.90300  Biso   1.000  C
  C52      1.0000 0.75390  0.19140  0.59700  Biso   1.000  C
  C53      1.0000 0.88310  0.33900  0.12720  Biso   1.000  C
  C54      1.0000 0.11690  0.83900  0.37280  Biso   1.000  C
  C55      1.0000 0.11690  0.66100  0.87280  Biso   1.000  C
  C56      1.0000 0.88310  0.16100  0.62720  Biso   1.000  C
  C57      1.0000 0.68930  0.24370  0.03800  Biso   1.000  C
  C58      1.0000 0.31070  0.74370  0.46200  Biso   1.000  C
  C59      1.0000 0.31070  0.75630  0.96200  Biso   1.000  C
  C60      1.0000 0.68930  0.25630  0.53800  Biso   1.000  C
  C61      1.0000 0.70850  0.17130  0.96920  Biso   1.000  C
  C62      1.0000 0.29150  0.67130  0.53080  Biso   1.000  C
  C63      1.0000 0.29150  0.82870  0.03080  Biso   1.000  C
  C64      1.0000 0.70850  0.32870  0.46920  Biso   1.000  C
  Cu1      1.0000 0.96290  0.22055  0.95036  Biso   1.000  Cu
  Cu2      1.0000 0.03710  0.72055  0.54964  Biso   1.000  Cu
  Cu3      1.0000 0.03710  0.77945  0.04964  Biso   1.000  Cu
  Cu4      1.0000 0.96290  0.27945  0.45036  Biso   1.000  Cu
  Cu5      1.0000 0.46960  0.15191  0.98029  Biso   1.000  Cu
  Cu6      1.0000 0.53040  0.65191  0.51971  Biso   1.000  Cu
  Cu7      1.0000 0.53040  0.84809  0.01971  Biso   1.000  Cu
  Cu8      1.0000 0.46960  0.34809  0.48029  Biso   1.000  Cu
  Cu9      1.0000 0.24383  0.54820  0.77177  Biso   1.000  Cu
  Cu10     1.0000 0.75617  0.04820  0.72823  Biso   1.000  Cu
  Cu11     1.0000 0.75617  0.45180  0.22823  Biso   1.000  Cu
  Cu12     1.0000 0.24383  0.95180  0.27177  Biso   1.000  Cu
  N1       1.0000 0.89730  0.40480  0.71020  Biso   1.000  N
  N2       1.0000 0.10270  0.90480  0.78980  Biso   1.000  N
  N3       1.0000 0.10270  0.59520  0.28980  Biso   1.000  N
  N4       1.0000 0.89730  0.09520  0.21020  Biso   1.000  N
  N5       1.0000 0.78260  0.40470  0.72220  Biso   1.000  N
  N6       1.0000 0.21740  0.90470  0.77780  Biso   1.000  N
  N7       1.0000 0.21740  0.59530  0.27780  Biso   1.000  N
  N8       1.0000 0.78260  0.09530  0.22220  Biso   1.000  N
  N9       1.0000 0.89470  0.30690  0.83600  Biso   1.000  N
  N10      1.0000 0.10530  0.80690  0.66400  Biso   1.000  N
  N11      1.0000 0.10530  0.69310  0.16400  Biso   1.000  N
  N12      1.0000 0.89470  0.19310  0.33600  Biso   1.000  N
  N13      1.0000 0.06110  0.37100  0.54030  Biso   1.000  N
  N14      1.0000 0.93890  0.87100  0.95970  Biso   1.000  N
  N15      1.0000 0.93890  0.62900  0.45970  Biso   1.000  N
  N16      1.0000 0.06110  0.12900  0.04030  Biso   1.000  N
  N17      1.0000 0.16330  0.46620  0.65910  Biso   1.000  N
  N18      1.0000 0.83670  0.96620  0.84090  Biso   1.000  N
  N19      1.0000 0.83670  0.53380  0.34090  Biso   1.000  N
  N20      1.0000 0.16330  0.03380  0.15910  Biso   1.000  N
  N21      1.0000 0.37620  0.39290  0.07280  Biso   1.000  N
  N22      1.0000 0.62380  0.89290  0.42720  Biso   1.000  N
  N23      1.0000 0.62380  0.60710  0.92720  Biso   1.000  N
  N24      1.0000 0.37620  0.10710  0.57280  Biso   1.000  N
  N25      1.0000 0.28030  0.42740  0.10140  Biso   1.000  N
  N26      1.0000 0.71970  0.92740  0.39860  Biso   1.000  N
  N27      1.0000 0.71970  0.57260  0.89860  Biso   1.000  N
  N28      1.0000 0.28030  0.07260  0.60140  Biso   1.000  N
  N29      1.0000 0.27520  0.46260  0.92670  Biso   1.000  N
  N30      1.0000 0.72480  0.96260  0.57330  Biso   1.000  N
  N31      1.0000 0.72480  0.53740  0.07330  Biso   1.000  N
  N32      1.0000 0.27520  0.03740  0.42670  Biso   1.000  N
  N33      1.0000 0.67670  0.35220  0.14640  Biso   1.000  N
  N34      1.0000 0.32330  0.85220  0.35360  Biso   1.000  N
  N35      1.0000 0.32330  0.64780  0.85360  Biso   1.000  N
  N36      1.0000 0.67670  0.14780  0.64640  Biso   1.000  N
  N37      1.0000 0.57080  0.24690  0.04960  Biso   1.000  N
  N38      1.0000 0.42920  0.74690  0.45040  Biso   1.000  N
  N39      1.0000 0.42920  0.75310  0.95040  Biso   1.000  N
  N40      1.0000 0.57080  0.25310  0.54960  Biso   1.000  N
  O1       1.0000 0.12460  0.24710  0.43060  Biso   1.000  O
  O2       1.0000 0.87540  0.74710  0.06940  Biso   1.000  O
  O3       1.0000 0.87540  0.75290  0.56940  Biso   1.000  O
  O4       1.0000 0.12460  0.25290  0.93060  Biso   1.000  O
  O5       1.0000 0.31880  0.28140  0.46500  Biso   1.000  O
  O6       1.0000 0.68120  0.78140  0.03500  Biso   1.000  O
  O7       1.0000 0.68120  0.71860  0.53500  Biso   1.000  O
  O8       1.0000 0.31880  0.21860  0.96500  Biso   1.000  O
  O9       1.0000 0.39420  0.49900  0.74410  Biso   1.000  O
  O10      1.0000 0.60580  0.99900  0.75590  Biso   1.000  O
  O11      1.0000 0.60580  0.50100  0.25590  Biso   1.000  O
  O12      1.0000 0.39420  0.00100  0.24410  Biso   1.000  O
  O13      1.0000 0.46290  0.41880  0.62730  Biso   1.000  O
  O14      1.0000 0.53710  0.91880  0.87270  Biso   1.000  O
  O15      1.0000 0.53710  0.58120  0.37270  Biso   1.000  O
  O16      1.0000 0.46290  0.08120  0.12730  Biso   1.000  O
  O17      1.0000 0.96310  0.30550  0.08920  Biso   1.000  O
  O18      1.0000 0.03690  0.80550  0.41080  Biso   1.000  O
  O19      1.0000 0.03690  0.69450  0.91080  Biso   1.000  O
  O20      1.0000 0.96310  0.19450  0.58920  Biso   1.000  O
  O21      1.0000 0.90570  0.39970  0.19650  Biso   1.000  O
  O22      1.0000 0.09430  0.89970  0.30350  Biso   1.000  O
  O23      1.0000 0.09430  0.60030  0.80350  Biso   1.000  O
  O24      1.0000 0.90570  0.10030  0.69650  Biso   1.000  O
  O25      1.0000 0.80510  0.16310  0.93610  Biso   1.000  O
  O26      1.0000 0.19490  0.66310  0.56390  Biso   1.000  O
  O27      1.0000 0.19490  0.83690  0.06390  Biso   1.000  O
  O28      1.0000 0.80510  0.33690  0.43610  Biso   1.000  O
  O29      1.0000 0.62180  0.11890  0.94090  Biso   1.000  O
  O30      1.0000 0.37820  0.61890  0.55910  Biso   1.000  O
  O31      1.0000 0.37820  0.88110  0.05910  Biso   1.000  O
  O32      1.0000 0.62180  0.38110  0.44090  Biso   1.000  O
  O33      1.0000 0.38020  0.06210  0.88210  Biso   1.000  O
  O34      1.0000 0.61980  0.56210  0.61790  Biso   1.000  O
  O35      1.0000 0.61980  0.93790  0.11790  Biso   1.000  O
  O36      1.0000 0.38020  0.43790  0.38210  Biso   1.000  O
  O37      1.0000 0.18680  0.13400  0.74740  Biso   1.000  O
  O38      1.0000 0.81320  0.63400  0.75260  Biso   1.000  O
  O39      1.0000 0.81320  0.86600  0.25260  Biso   1.000  O
  O40      1.0000 0.18680  0.36600  0.24740  Biso   1.000  O
