data_image0
_cell_length_a       17.4172
_cell_length_b       14.4595
_cell_length_c       16.5632
_cell_angle_alpha    90
_cell_angle_beta     99.263
_cell_angle_gamma    90

_symmetry_space_group_name_H-M    "P 1"
_symmetry_int_tables_number       1

loop_
  _symmetry_equiv_pos_as_xyz
  'x, y, z'

loop_
  _atom_site_label
  _atom_site_occupancy
  _atom_site_fract_x
  _atom_site_fract_y
  _atom_site_fract_z
  _atom_site_thermal_displace_type
  _atom_site_B_iso_or_equiv
  _atom_site_type_symbol
  Cu1      1.0000 0.00000  0.00000  0.00000  Biso   1.000  Cu
  Cu2      1.0000 0.00000  0.00000  0.50000  Biso   1.000  Cu
  Cu3      1.0000 0.50000  0.50000  0.00000  Biso   1.000  Cu
  Cu4      1.0000 0.50000  0.50000  0.50000  Biso   1.000  Cu
  Cu5      1.0000 0.50000  0.00000  0.00000  Biso   1.000  Cu
  Cu6      1.0000 0.50000  0.00000  0.50000  Biso   1.000  Cu
  Cu7      1.0000 0.00000  0.50000  0.00000  Biso   1.000  Cu
  Cu8      1.0000 0.00000  0.50000  0.50000  Biso   1.000  Cu
  C1       1.0000 0.32280  0.90500  0.12040  Biso   1.000  C
  C2       1.0000 0.67720  0.90500  0.37960  Biso   1.000  C
  C3       1.0000 0.82280  0.40500  0.12040  Biso   1.000  C
  C4       1.0000 0.17720  0.40500  0.37960  Biso   1.000  C
  C5       1.0000 0.67720  0.09500  0.87960  Biso   1.000  C
  C6       1.0000 0.32280  0.09500  0.62040  Biso   1.000  C
  C7       1.0000 0.17720  0.59500  0.87960  Biso   1.000  C
  C8       1.0000 0.82280  0.59500  0.62040  Biso   1.000  C
  H1       1.0000 0.28100  0.91200  0.14840  Biso   1.000  H
  H2       1.0000 0.71900  0.91200  0.35160  Biso   1.000  H
  H3       1.0000 0.78100  0.41200  0.14840  Biso   1.000  H
  H4       1.0000 0.21900  0.41200  0.35160  Biso   1.000  H
  H5       1.0000 0.71900  0.08800  0.85160  Biso   1.000  H
  H6       1.0000 0.28100  0.08800  0.64840  Biso   1.000  H
  H7       1.0000 0.21900  0.58800  0.85160  Biso   1.000  H
  H8       1.0000 0.78100  0.58800  0.64840  Biso   1.000  H
  C9       1.0000 0.36470  0.97370  0.09290  Biso   1.000  C
  C10      1.0000 0.63530  0.97370  0.40710  Biso   1.000  C
  C11      1.0000 0.86470  0.47370  0.09290  Biso   1.000  C
  C12      1.0000 0.13530  0.47370  0.40710  Biso   1.000  C
  C13      1.0000 0.63530  0.02630  0.90710  Biso   1.000  C
  C14      1.0000 0.36470  0.02630  0.59290  Biso   1.000  C
  C15      1.0000 0.13530  0.52630  0.90710  Biso   1.000  C
  C16      1.0000 0.86470  0.52630  0.59290  Biso   1.000  C
  H9       1.0000 0.35690  0.03670  0.09970  Biso   1.000  H
  H10      1.0000 0.64310  0.03670  0.40030  Biso   1.000  H
  H11      1.0000 0.85690  0.53670  0.09970  Biso   1.000  H
  H12      1.0000 0.14310  0.53670  0.40030  Biso   1.000  H
  H13      1.0000 0.64310  0.96330  0.90030  Biso   1.000  H
  H14      1.0000 0.35690  0.96330  0.59970  Biso   1.000  H
  H15      1.0000 0.14310  0.46330  0.90030  Biso   1.000  H
  H16      1.0000 0.85690  0.46330  0.59970  Biso   1.000  H
  C17      1.0000 0.41230  0.84540  0.05830  Biso   1.000  C
  C18      1.0000 0.58770  0.84540  0.44170  Biso   1.000  C
  C19      1.0000 0.91230  0.34540  0.05830  Biso   1.000  C
  C20      1.0000 0.08770  0.34540  0.44170  Biso   1.000  C
  C21      1.0000 0.58770  0.15460  0.94170  Biso   1.000  C
  C22      1.0000 0.41230  0.15460  0.55830  Biso   1.000  C
  C23      1.0000 0.08770  0.65460  0.94170  Biso   1.000  C
  C24      1.0000 0.91230  0.65460  0.55830  Biso   1.000  C
  H17      1.0000 0.44280  0.80230  0.03640  Biso   1.000  H
  H18      1.0000 0.55720  0.80230  0.46360  Biso   1.000  H
  H19      1.0000 0.94280  0.30230  0.03640  Biso   1.000  H
  H20      1.0000 0.05720  0.30230  0.46360  Biso   1.000  H
  H21      1.0000 0.55720  0.19770  0.96360  Biso   1.000  H
  H22      1.0000 0.44280  0.19770  0.53640  Biso   1.000  H
  H23      1.0000 0.05720  0.69770  0.96360  Biso   1.000  H
  H24      1.0000 0.94280  0.69770  0.53640  Biso   1.000  H
  C25      1.0000 0.32780  0.73170  0.11280  Biso   1.000  C
  C26      1.0000 0.67220  0.73170  0.38720  Biso   1.000  C
  C27      1.0000 0.82780  0.23170  0.11280  Biso   1.000  C
  C28      1.0000 0.17220  0.23170  0.38720  Biso   1.000  C
  C29      1.0000 0.67220  0.26830  0.88720  Biso   1.000  C
  C30      1.0000 0.32780  0.26830  0.61280  Biso   1.000  C
  C31      1.0000 0.17220  0.76830  0.88720  Biso   1.000  C
  C32      1.0000 0.82780  0.76830  0.61280  Biso   1.000  C
  C33      1.0000 0.38140  0.66150  0.12920  Biso   1.000  C
  C34      1.0000 0.61860  0.66150  0.37080  Biso   1.000  C
  C35      1.0000 0.88140  0.16150  0.12920  Biso   1.000  C
  C36      1.0000 0.11860  0.16150  0.37080  Biso   1.000  C
  C37      1.0000 0.61860  0.33850  0.87080  Biso   1.000  C
  C38      1.0000 0.38140  0.33850  0.62920  Biso   1.000  C
  C39      1.0000 0.11860  0.83850  0.87080  Biso   1.000  C
  C40      1.0000 0.88140  0.83850  0.62920  Biso   1.000  C
  H25      1.0000 0.43420  0.67450  0.13450  Biso   1.000  H
  H26      1.0000 0.56580  0.67450  0.36550  Biso   1.000  H
  H27      1.0000 0.93420  0.17450  0.13450  Biso   1.000  H
  H28      1.0000 0.06580  0.17450  0.36550  Biso   1.000  H
  H29      1.0000 0.56580  0.32550  0.86550  Biso   1.000  H
  H30      1.0000 0.43420  0.32550  0.63450  Biso   1.000  H
  H31      1.0000 0.06580  0.82550  0.86550  Biso   1.000  H
  H32      1.0000 0.93420  0.82550  0.63450  Biso   1.000  H
  C41      1.0000 0.35690  0.57190  0.13770  Biso   1.000  C
  C42      1.0000 0.64310  0.57190  0.36230  Biso   1.000  C
  C43      1.0000 0.85690  0.07190  0.13770  Biso   1.000  C
  C44      1.0000 0.14310  0.07190  0.36230  Biso   1.000  C
  C45      1.0000 0.64310  0.42810  0.86230  Biso   1.000  C
  C46      1.0000 0.35690  0.42810  0.63770  Biso   1.000  C
  C47      1.0000 0.14310  0.92810  0.86230  Biso   1.000  C
  C48      1.0000 0.85690  0.92810  0.63770  Biso   1.000  C
  H33      1.0000 0.39350  0.52500  0.14880  Biso   1.000  H
  H34      1.0000 0.60650  0.52500  0.35120  Biso   1.000  H
  H35      1.0000 0.89350  0.02500  0.14880  Biso   1.000  H
  H36      1.0000 0.10650  0.02500  0.35120  Biso   1.000  H
  H37      1.0000 0.60650  0.47500  0.85120  Biso   1.000  H
  H38      1.0000 0.39350  0.47500  0.64880  Biso   1.000  H
  H39      1.0000 0.10650  0.97500  0.85120  Biso   1.000  H
  H40      1.0000 0.89350  0.97500  0.64880  Biso   1.000  H
  C49      1.0000 0.27800  0.55070  0.13000  Biso   1.000  C
  C50      1.0000 0.72200  0.55070  0.37000  Biso   1.000  C
  C51      1.0000 0.77800  0.05070  0.13000  Biso   1.000  C
  C52      1.0000 0.22200  0.05070  0.37000  Biso   1.000  C
  C53      1.0000 0.72200  0.44930  0.87000  Biso   1.000  C
  C54      1.0000 0.27800  0.44930  0.63000  Biso   1.000  C
  C55      1.0000 0.22200  0.94930  0.87000  Biso   1.000  C
  C56      1.0000 0.77800  0.94930  0.63000  Biso   1.000  C
  C57      1.0000 0.22470  0.62360  0.11580  Biso   1.000  C
  C58      1.0000 0.77530  0.62360  0.38420  Biso   1.000  C
  C59      1.0000 0.72470  0.12360  0.11580  Biso   1.000  C
  C60      1.0000 0.27530  0.12360  0.38420  Biso   1.000  C
  C61      1.0000 0.77530  0.37640  0.88420  Biso   1.000  C
  C62      1.0000 0.22470  0.37640  0.61580  Biso   1.000  C
  C63      1.0000 0.27530  0.87640  0.88420  Biso   1.000  C
  C64      1.0000 0.72470  0.87640  0.61580  Biso   1.000  C
  H41      1.0000 0.17190  0.61140  0.11230  Biso   1.000  H
  H42      1.0000 0.82810  0.61140  0.38770  Biso   1.000  H
  H43      1.0000 0.67190  0.11140  0.11230  Biso   1.000  H
  H44      1.0000 0.32810  0.11140  0.38770  Biso   1.000  H
  H45      1.0000 0.82810  0.38860  0.88770  Biso   1.000  H
  H46      1.0000 0.17190  0.38860  0.61230  Biso   1.000  H
  H47      1.0000 0.32810  0.88860  0.88770  Biso   1.000  H
  H48      1.0000 0.67190  0.88860  0.61230  Biso   1.000  H
  C65      1.0000 0.24950  0.71390  0.10690  Biso   1.000  C
  C66      1.0000 0.75050  0.71390  0.39310  Biso   1.000  C
  C67      1.0000 0.74950  0.21390  0.10690  Biso   1.000  C
  C68      1.0000 0.25050  0.21390  0.39310  Biso   1.000  C
  C69      1.0000 0.75050  0.28610  0.89310  Biso   1.000  C
  C70      1.0000 0.24950  0.28610  0.60690  Biso   1.000  C
  C71      1.0000 0.25050  0.78610  0.89310  Biso   1.000  C
  C72      1.0000 0.74950  0.78610  0.60690  Biso   1.000  C
  H49      1.0000 0.21350  0.76180  0.09700  Biso   1.000  H
  H50      1.0000 0.78650  0.76180  0.40300  Biso   1.000  H
  H51      1.0000 0.71350  0.26180  0.09700  Biso   1.000  H
  H52      1.0000 0.28650  0.26180  0.40300  Biso   1.000  H
  H53      1.0000 0.78650  0.23820  0.90300  Biso   1.000  H
  H54      1.0000 0.21350  0.23820  0.59700  Biso   1.000  H
  H55      1.0000 0.28650  0.73820  0.90300  Biso   1.000  H
  H56      1.0000 0.71350  0.73820  0.59700  Biso   1.000  H
  C73      1.0000 0.99190  0.64380  0.09930  Biso   1.000  C
  C74      1.0000 0.00810  0.64380  0.40070  Biso   1.000  C
  C75      1.0000 0.49190  0.14380  0.09930  Biso   1.000  C
  C76      1.0000 0.50810  0.14380  0.40070  Biso   1.000  C
  C77      1.0000 0.00810  0.35620  0.90070  Biso   1.000  C
  C78      1.0000 0.99190  0.35620  0.59930  Biso   1.000  C
  C79      1.0000 0.50810  0.85620  0.90070  Biso   1.000  C
  C80      1.0000 0.49190  0.85620  0.59930  Biso   1.000  C
  C81      1.0000 0.00000  0.65240  0.25000  Biso   1.000  C
  C82      1.0000 0.50000  0.15240  0.25000  Biso   1.000  C
  C83      1.0000 0.00000  0.34760  0.75000  Biso   1.000  C
  C84      1.0000 0.50000  0.84760  0.75000  Biso   1.000  C
  H57      1.0000 0.00000  0.58810  0.25000  Biso   1.000  H
  H58      1.0000 0.50000  0.08810  0.25000  Biso   1.000  H
  H59      1.0000 0.00000  0.41190  0.75000  Biso   1.000  H
  H60      1.0000 0.50000  0.91190  0.75000  Biso   1.000  H
  C85      1.0000 0.00190  0.69900  0.17765  Biso   1.000  C
  C86      1.0000 0.99810  0.69900  0.32235  Biso   1.000  C
  C87      1.0000 0.50190  0.19900  0.17765  Biso   1.000  C
  C88      1.0000 0.49810  0.19900  0.32235  Biso   1.000  C
  C89      1.0000 0.99810  0.30100  0.82235  Biso   1.000  C
  C90      1.0000 0.00190  0.30100  0.67765  Biso   1.000  C
  C91      1.0000 0.49810  0.80100  0.82235  Biso   1.000  C
  C92      1.0000 0.50190  0.80100  0.67765  Biso   1.000  C
  C93      1.0000 0.00000  0.84260  0.25000  Biso   1.000  C
  C94      1.0000 0.50000  0.34260  0.25000  Biso   1.000  C
  C95      1.0000 0.00000  0.15740  0.75000  Biso   1.000  C
  C96      1.0000 0.50000  0.65740  0.75000  Biso   1.000  C
  H61      1.0000 0.00000  0.90700  0.25000  Biso   1.000  H
  H62      1.0000 0.50000  0.40700  0.25000  Biso   1.000  H
  H63      1.0000 0.00000  0.09300  0.75000  Biso   1.000  H
  H64      1.0000 0.50000  0.59300  0.75000  Biso   1.000  H
  C97      1.0000 0.00547  0.79590  0.17794  Biso   1.000  C
  C98      1.0000 0.99453  0.79590  0.32206  Biso   1.000  C
  C99      1.0000 0.50547  0.29590  0.17794  Biso   1.000  C
  C100     1.0000 0.49453  0.29590  0.32206  Biso   1.000  C
  C101     1.0000 0.99453  0.20410  0.82206  Biso   1.000  C
  C102     1.0000 0.00547  0.20410  0.67794  Biso   1.000  C
  C103     1.0000 0.49453  0.70410  0.82206  Biso   1.000  C
  C104     1.0000 0.50547  0.70410  0.67794  Biso   1.000  C
  C105     1.0000 0.02000  0.85020  0.10406  Biso   1.000  C
  C106     1.0000 0.98000  0.85020  0.39594  Biso   1.000  C
  C107     1.0000 0.52000  0.35020  0.10406  Biso   1.000  C
  C108     1.0000 0.48000  0.35020  0.39594  Biso   1.000  C
  C109     1.0000 0.98000  0.14980  0.89594  Biso   1.000  C
  C110     1.0000 0.02000  0.14980  0.60406  Biso   1.000  C
  C111     1.0000 0.48000  0.64980  0.89594  Biso   1.000  C
  C112     1.0000 0.52000  0.64980  0.60406  Biso   1.000  C
  C113     1.0000 0.10170  0.15660  0.06520  Biso   1.000  C
  C114     1.0000 0.89830  0.15660  0.43480  Biso   1.000  C
  C115     1.0000 0.60170  0.65660  0.06520  Biso   1.000  C
  C116     1.0000 0.39830  0.65660  0.43480  Biso   1.000  C
  C117     1.0000 0.89830  0.84340  0.93480  Biso   1.000  C
  C118     1.0000 0.10170  0.84340  0.56520  Biso   1.000  C
  C119     1.0000 0.39830  0.34340  0.93480  Biso   1.000  C
  C120     1.0000 0.60170  0.34340  0.56520  Biso   1.000  C
  H65      1.0000 0.07340  0.19760  0.02880  Biso   1.000  H
  H66      1.0000 0.92660  0.19760  0.47120  Biso   1.000  H
  H67      1.0000 0.57340  0.69760  0.02880  Biso   1.000  H
  H68      1.0000 0.42660  0.69760  0.47120  Biso   1.000  H
  H69      1.0000 0.92660  0.80240  0.97120  Biso   1.000  H
  H70      1.0000 0.07340  0.80240  0.52880  Biso   1.000  H
  H71      1.0000 0.42660  0.30240  0.97120  Biso   1.000  H
  H72      1.0000 0.57340  0.30240  0.52880  Biso   1.000  H
  C121     1.0000 0.14100  0.03390  0.13070  Biso   1.000  C
  C122     1.0000 0.85900  0.03390  0.36930  Biso   1.000  C
  C123     1.0000 0.64100  0.53390  0.13070  Biso   1.000  C
  C124     1.0000 0.35900  0.53390  0.36930  Biso   1.000  C
  C125     1.0000 0.85900  0.96610  0.86930  Biso   1.000  C
  C126     1.0000 0.14100  0.96610  0.63070  Biso   1.000  C
  C127     1.0000 0.35900  0.46610  0.86930  Biso   1.000  C
  C128     1.0000 0.64100  0.46610  0.63070  Biso   1.000  C
  H73      1.0000 0.14410  0.97290  0.14860  Biso   1.000  H
  H74      1.0000 0.85590  0.97290  0.35140  Biso   1.000  H
  H75      1.0000 0.64410  0.47290  0.14860  Biso   1.000  H
  H76      1.0000 0.35590  0.47290  0.35140  Biso   1.000  H
  H77      1.0000 0.85590  0.02710  0.85140  Biso   1.000  H
  H78      1.0000 0.14410  0.02710  0.64860  Biso   1.000  H
  H79      1.0000 0.35590  0.52710  0.85140  Biso   1.000  H
  H80      1.0000 0.64410  0.52710  0.64860  Biso   1.000  H
  C129     1.0000 0.19050  0.10190  0.16040  Biso   1.000  C
  C130     1.0000 0.80950  0.10190  0.33960  Biso   1.000  C
  C131     1.0000 0.69050  0.60190  0.16040  Biso   1.000  C
  C132     1.0000 0.30950  0.60190  0.33960  Biso   1.000  C
  C133     1.0000 0.80950  0.89810  0.83960  Biso   1.000  C
  C134     1.0000 0.19050  0.89810  0.66040  Biso   1.000  C
  C135     1.0000 0.30950  0.39810  0.83960  Biso   1.000  C
  C136     1.0000 0.69050  0.39810  0.66040  Biso   1.000  C
  H81      1.0000 0.23390  0.09650  0.20090  Biso   1.000  H
  H82      1.0000 0.76610  0.09650  0.29910  Biso   1.000  H
  H83      1.0000 0.73390  0.59650  0.20090  Biso   1.000  H
  H84      1.0000 0.26610  0.59650  0.29910  Biso   1.000  H
  H85      1.0000 0.76610  0.90350  0.79910  Biso   1.000  H
  H86      1.0000 0.23390  0.90350  0.70090  Biso   1.000  H
  H87      1.0000 0.26610  0.40350  0.79910  Biso   1.000  H
  H88      1.0000 0.73390  0.40350  0.70090  Biso   1.000  H
  C137     1.0000 0.19570  0.27280  0.12830  Biso   1.000  C
  C138     1.0000 0.80430  0.27280  0.37170  Biso   1.000  C
  C139     1.0000 0.69570  0.77280  0.12830  Biso   1.000  C
  C140     1.0000 0.30430  0.77280  0.37170  Biso   1.000  C
  C141     1.0000 0.80430  0.72720  0.87170  Biso   1.000  C
  C142     1.0000 0.19570  0.72720  0.62830  Biso   1.000  C
  C143     1.0000 0.30430  0.22720  0.87170  Biso   1.000  C
  C144     1.0000 0.69570  0.22720  0.62830  Biso   1.000  C
  C145     1.0000 0.15060  0.34270  0.15080  Biso   1.000  C
  C146     1.0000 0.84940  0.34270  0.34920  Biso   1.000  C
  C147     1.0000 0.65060  0.84270  0.15080  Biso   1.000  C
  C148     1.0000 0.34940  0.84270  0.34920  Biso   1.000  C
  C149     1.0000 0.84940  0.65730  0.84920  Biso   1.000  C
  C150     1.0000 0.15060  0.65730  0.65080  Biso   1.000  C
  C151     1.0000 0.34940  0.15730  0.84920  Biso   1.000  C
  C152     1.0000 0.65060  0.15730  0.65080  Biso   1.000  C
  H89      1.0000 0.10180  0.32980  0.16400  Biso   1.000  H
  H90      1.0000 0.89820  0.32980  0.33600  Biso   1.000  H
  H91      1.0000 0.60180  0.82980  0.16400  Biso   1.000  H
  H92      1.0000 0.39820  0.82980  0.33600  Biso   1.000  H
  H93      1.0000 0.89820  0.67020  0.83600  Biso   1.000  H
  H94      1.0000 0.10180  0.67020  0.66400  Biso   1.000  H
  H95      1.0000 0.39820  0.17020  0.83600  Biso   1.000  H
  H96      1.0000 0.60180  0.17020  0.66400  Biso   1.000  H
  C153     1.0000 0.17800  0.43280  0.15380  Biso   1.000  C
  C154     1.0000 0.82200  0.43280  0.34620  Biso   1.000  C
  C155     1.0000 0.67800  0.93280  0.15380  Biso   1.000  C
  C156     1.0000 0.32200  0.93280  0.34620  Biso   1.000  C
  C157     1.0000 0.82200  0.56720  0.84620  Biso   1.000  C
  C158     1.0000 0.17800  0.56720  0.65380  Biso   1.000  C
  C159     1.0000 0.32200  0.06720  0.84620  Biso   1.000  C
  C160     1.0000 0.67800  0.06720  0.65380  Biso   1.000  C
  H97      1.0000 0.14730  0.48020  0.16920  Biso   1.000  H
  H98      1.0000 0.85270  0.48020  0.33080  Biso   1.000  H
  H99      1.0000 0.64730  0.98020  0.16920  Biso   1.000  H
  H100     1.0000 0.35270  0.98020  0.33080  Biso   1.000  H
  H101     1.0000 0.85270  0.51980  0.83080  Biso   1.000  H
  H102     1.0000 0.14730  0.51980  0.66920  Biso   1.000  H
  H103     1.0000 0.35270  0.01980  0.83080  Biso   1.000  H
  H104     1.0000 0.64730  0.01980  0.66920  Biso   1.000  H
  C161     1.0000 0.25040  0.45360  0.13420  Biso   1.000  C
  C162     1.0000 0.74960  0.45360  0.36580  Biso   1.000  C
  C163     1.0000 0.75040  0.95360  0.13420  Biso   1.000  C
  C164     1.0000 0.24960  0.95360  0.36580  Biso   1.000  C
  C165     1.0000 0.74960  0.54640  0.86580  Biso   1.000  C
  C166     1.0000 0.25040  0.54640  0.63420  Biso   1.000  C
  C167     1.0000 0.24960  0.04640  0.86580  Biso   1.000  C
  C168     1.0000 0.75040  0.04640  0.63420  Biso   1.000  C
  C169     1.0000 0.29630  0.37990  0.11450  Biso   1.000  C
  C170     1.0000 0.70370  0.37990  0.38550  Biso   1.000  C
  C171     1.0000 0.79630  0.87990  0.11450  Biso   1.000  C
  C172     1.0000 0.20370  0.87990  0.38550  Biso   1.000  C
  C173     1.0000 0.70370  0.62010  0.88550  Biso   1.000  C
  C174     1.0000 0.29630  0.62010  0.61450  Biso   1.000  C
  C175     1.0000 0.20370  0.12010  0.88550  Biso   1.000  C
  C176     1.0000 0.79630  0.12010  0.61450  Biso   1.000  C
  H105     1.0000 0.34600  0.39180  0.10320  Biso   1.000  H
  H106     1.0000 0.65400  0.39180  0.39680  Biso   1.000  H
  H107     1.0000 0.84600  0.89180  0.10320  Biso   1.000  H
  H108     1.0000 0.15400  0.89180  0.39680  Biso   1.000  H
  H109     1.0000 0.65400  0.60820  0.89680  Biso   1.000  H
  H110     1.0000 0.34600  0.60820  0.60320  Biso   1.000  H
  H111     1.0000 0.15400  0.10820  0.89680  Biso   1.000  H
  H112     1.0000 0.84600  0.10820  0.60320  Biso   1.000  H
  C177     1.0000 0.26940  0.29010  0.11140  Biso   1.000  C
  C178     1.0000 0.73060  0.29010  0.38860  Biso   1.000  C
  C179     1.0000 0.76940  0.79010  0.11140  Biso   1.000  C
  C180     1.0000 0.23060  0.79010  0.38860  Biso   1.000  C
  C181     1.0000 0.73060  0.70990  0.88860  Biso   1.000  C
  C182     1.0000 0.26940  0.70990  0.61140  Biso   1.000  C
  C183     1.0000 0.23060  0.20990  0.88860  Biso   1.000  C
  C184     1.0000 0.76940  0.20990  0.61140  Biso   1.000  C
  H113     1.0000 0.30050  0.24190  0.09810  Biso   1.000  H
  H114     1.0000 0.69950  0.24190  0.40190  Biso   1.000  H
  H115     1.0000 0.80050  0.74190  0.09810  Biso   1.000  H
  H116     1.0000 0.19950  0.74190  0.40190  Biso   1.000  H
  H117     1.0000 0.69950  0.75810  0.90190  Biso   1.000  H
  H118     1.0000 0.30050  0.75810  0.59810  Biso   1.000  H
  H119     1.0000 0.19950  0.25810  0.90190  Biso   1.000  H
  H120     1.0000 0.80050  0.25810  0.59810  Biso   1.000  H
  N1       1.0000 0.08511  0.06860  0.06999  Biso   1.000  N
  N2       1.0000 0.91489  0.06860  0.43001  Biso   1.000  N
  N3       1.0000 0.58511  0.56860  0.06999  Biso   1.000  N
  N4       1.0000 0.41489  0.56860  0.43001  Biso   1.000  N
  N5       1.0000 0.91489  0.93140  0.93001  Biso   1.000  N
  N6       1.0000 0.08511  0.93140  0.56999  Biso   1.000  N
  N7       1.0000 0.41489  0.43140  0.93001  Biso   1.000  N
  N8       1.0000 0.58511  0.43140  0.56999  Biso   1.000  N
  N9       1.0000 0.16425  0.18020  0.11908  Biso   1.000  N
  N10      1.0000 0.83575  0.18020  0.38092  Biso   1.000  N
  N11      1.0000 0.66425  0.68020  0.11908  Biso   1.000  N
  N12      1.0000 0.33575  0.68020  0.38092  Biso   1.000  N
  N13      1.0000 0.83575  0.81980  0.88092  Biso   1.000  N
  N14      1.0000 0.16425  0.81980  0.61908  Biso   1.000  N
  N15      1.0000 0.33575  0.31980  0.88092  Biso   1.000  N
  N16      1.0000 0.66425  0.31980  0.61908  Biso   1.000  N
  N17      1.0000 0.42049  0.93520  0.05343  Biso   1.000  N
  N18      1.0000 0.57951  0.93520  0.44657  Biso   1.000  N
  N19      1.0000 0.92049  0.43520  0.05343  Biso   1.000  N
  N20      1.0000 0.07951  0.43520  0.44657  Biso   1.000  N
  N21      1.0000 0.57951  0.06480  0.94657  Biso   1.000  N
  N22      1.0000 0.42049  0.06480  0.55343  Biso   1.000  N
  N23      1.0000 0.07951  0.56480  0.94657  Biso   1.000  N
  N24      1.0000 0.92049  0.56480  0.55343  Biso   1.000  N
  N25      1.0000 0.35370  0.82370  0.09919  Biso   1.000  N
  N26      1.0000 0.64630  0.82370  0.40081  Biso   1.000  N
  N27      1.0000 0.85370  0.32370  0.09919  Biso   1.000  N
  N28      1.0000 0.14630  0.32370  0.40081  Biso   1.000  N
  N29      1.0000 0.64630  0.17630  0.90081  Biso   1.000  N
  N30      1.0000 0.35370  0.17630  0.59919  Biso   1.000  N
  N31      1.0000 0.14630  0.67630  0.90081  Biso   1.000  N
  N32      1.0000 0.85370  0.67630  0.59919  Biso   1.000  N
  O1       1.0000 0.98374  0.92724  0.09402  Biso   1.000  O
  O2       1.0000 0.01626  0.92724  0.40598  Biso   1.000  O
  O3       1.0000 0.48374  0.42724  0.09402  Biso   1.000  O
  O4       1.0000 0.51626  0.42724  0.40598  Biso   1.000  O
  O5       1.0000 0.01626  0.07276  0.90598  Biso   1.000  O
  O6       1.0000 0.98374  0.07276  0.59402  Biso   1.000  O
  O7       1.0000 0.51626  0.57276  0.90598  Biso   1.000  O
  O8       1.0000 0.48374  0.57276  0.59402  Biso   1.000  O
  O9       1.0000 0.06545  0.82112  0.06026  Biso   1.000  O
  O10      1.0000 0.93455  0.82112  0.43974  Biso   1.000  O
  O11      1.0000 0.56545  0.32112  0.06026  Biso   1.000  O
  O12      1.0000 0.43455  0.32112  0.43974  Biso   1.000  O
  O13      1.0000 0.93455  0.17888  0.93974  Biso   1.000  O
  O14      1.0000 0.06545  0.17888  0.56026  Biso   1.000  O
  O15      1.0000 0.43455  0.67888  0.93974  Biso   1.000  O
  O16      1.0000 0.56545  0.67888  0.56026  Biso   1.000  O
  O17      1.0000 0.94410  0.66818  0.04050  Biso   1.000  O
  O18      1.0000 0.05590  0.66818  0.45950  Biso   1.000  O
  O19      1.0000 0.44410  0.16818  0.04050  Biso   1.000  O
  O20      1.0000 0.55590  0.16818  0.45950  Biso   1.000  O
  O21      1.0000 0.05590  0.33182  0.95950  Biso   1.000  O
  O22      1.0000 0.94410  0.33182  0.54050  Biso   1.000  O
  O23      1.0000 0.55590  0.83182  0.95950  Biso   1.000  O
  O24      1.0000 0.44410  0.83182  0.54050  Biso   1.000  O
  O25      1.0000 0.03240  0.56999  0.10130  Biso   1.000  O
  O26      1.0000 0.96760  0.56999  0.39870  Biso   1.000  O
  O27      1.0000 0.53240  0.06999  0.10130  Biso   1.000  O
  O28      1.0000 0.46760  0.06999  0.39870  Biso   1.000  O
  O29      1.0000 0.96760  0.43001  0.89870  Biso   1.000  O
  O30      1.0000 0.03240  0.43001  0.60130  Biso   1.000  O
  O31      1.0000 0.46760  0.93001  0.89870  Biso   1.000  O
  O32      1.0000 0.53240  0.93001  0.60130  Biso   1.000  O
