data_image0
_cell_length_a       8.9752
_cell_length_b       10.3522
_cell_length_c       12.0167
_cell_angle_alpha    95.275
_cell_angle_beta     94.078
_cell_angle_gamma    93.317

_symmetry_space_group_name_H-M    "P 1"
_symmetry_int_tables_number       1

loop_
  _symmetry_equiv_pos_as_xyz
  'x, y, z'

loop_
  _atom_site_label
  _atom_site_occupancy
  _atom_site_fract_x
  _atom_site_fract_y
  _atom_site_fract_z
  _atom_site_thermal_displace_type
  _atom_site_B_iso_or_equiv
  _atom_site_type_symbol
  O1       1.0000 0.00620  0.25520  0.37000  Biso   1.000  O
  O2       1.0000 0.99380  0.74480  0.63000  Biso   1.000  O
  N1       1.0000 0.09770  0.17300  0.20990  Biso   1.000  N
  N2       1.0000 0.90230  0.82700  0.79010  Biso   1.000  N
  C1       1.0000 0.03200  0.25990  0.27230  Biso   1.000  C
  C2       1.0000 0.96800  0.74010  0.72770  Biso   1.000  C
  H1       1.0000 0.00210  0.33250  0.23850  Biso   1.000  H
  H2       1.0000 0.99790  0.66750  0.76150  Biso   1.000  H
  C3       1.0000 0.15090  0.05840  0.25340  Biso   1.000  C
  C4       1.0000 0.84910  0.94160  0.74660  Biso   1.000  C
  H3       1.0000 0.13590  0.06120  0.33190  Biso   1.000  H
  H4       1.0000 0.86410  0.93880  0.66810  Biso   1.000  H
  H5       1.0000 0.25570  0.05430  0.24300  Biso   1.000  H
  H6       1.0000 0.74430  0.94570  0.75700  Biso   1.000  H
  H7       1.0000 0.09680  0.98300  0.21440  Biso   1.000  H
  H8       1.0000 0.90320  0.01700  0.78560  Biso   1.000  H
  C5       1.0000 0.13350  0.19590  0.09510  Biso   1.000  C
  C6       1.0000 0.86650  0.80410  0.90490  Biso   1.000  C
  H9       1.0000 0.11410  0.28360  0.08170  Biso   1.000  H
  H10      1.0000 0.88590  0.71640  0.91830  Biso   1.000  H
  H11      1.0000 0.07240  0.13660  0.04210  Biso   1.000  H
  H12      1.0000 0.92760  0.86340  0.95790  Biso   1.000  H
  H13      1.0000 0.23720  0.18240  0.08670  Biso   1.000  H
  H14      1.0000 0.76280  0.81760  0.91330  Biso   1.000  H
  Cu1      1.0000 0.32320  0.29133  0.65716  Biso   1.000  Cu
  Cu2      1.0000 0.67680  0.70867  0.34284  Biso   1.000  Cu
  O3       1.0000 0.35850  0.16314  0.76032  Biso   1.000  O
  O4       1.0000 0.64150  0.83686  0.23968  Biso   1.000  O
  O5       1.0000 0.54700  0.29010  0.84727  Biso   1.000  O
  O6       1.0000 0.45300  0.70990  0.15273  Biso   1.000  O
  O7       1.0000 0.21070  0.39377  0.76109  Biso   1.000  O
  O8       1.0000 0.78930  0.60623  0.23891  Biso   1.000  O
  O9       1.0000 0.00800  0.25850  0.75855  Biso   1.000  O
  O10      1.0000 0.99200  0.74150  0.24145  Biso   1.000  O
  O11      1.0000 0.12180  0.14960  0.57014  Biso   1.000  O
  O12      1.0000 0.87820  0.85040  0.42986  Biso   1.000  O
  N3       1.0000 0.47910  0.22780  0.55487  Biso   1.000  N
  N4       1.0000 0.52090  0.77220  0.44513  Biso   1.000  N
  N5       1.0000 0.29150  0.41271  0.53690  Biso   1.000  N
  N6       1.0000 0.70850  0.58729  0.46310  Biso   1.000  N
  N7       1.0000 0.22760  0.98420  0.86710  Biso   1.000  N
  N8       1.0000 0.77240  0.01580  0.13290  Biso   1.000  N
  H15      1.0000 0.16030  0.92490  0.87750  Biso   1.000  H
  H16      1.0000 0.83970  0.07510  0.12250  Biso   1.000  H
  H17      1.0000 0.20990  0.03830  0.81840  Biso   1.000  H
  H18      1.0000 0.79010  0.96170  0.18160  Biso   1.000  H
  N9       1.0000 0.29570  0.54460  0.95110  Biso   1.000  N
  N10      1.0000 0.70430  0.45540  0.04890  Biso   1.000  N
  H19      1.0000 0.35220  0.59830  0.99690  Biso   1.000  H
  H20      1.0000 0.64780  0.40170  0.00310  Biso   1.000  H
  H21      1.0000 0.33200  0.50530  0.89400  Biso   1.000  H
  H22      1.0000 0.66800  0.49470  0.10600  Biso   1.000  H
  C7       1.0000 0.19940  0.50810  0.53270  Biso   1.000  C
  C8       1.0000 0.80060  0.49190  0.46730  Biso   1.000  C
  H23      1.0000 0.14610  0.53010  0.59450  Biso   1.000  H
  H24      1.0000 0.85390  0.46990  0.40550  Biso   1.000  H
  C9       1.0000 0.18000  0.57690  0.43800  Biso   1.000  C
  C10      1.0000 0.82000  0.42310  0.56200  Biso   1.000  C
  H25      1.0000 0.11370  0.64260  0.43710  Biso   1.000  H
  H26      1.0000 0.88630  0.35740  0.56290  Biso   1.000  H
  C11      1.0000 0.25870  0.54700  0.34740  Biso   1.000  C
  C12      1.0000 0.74130  0.45300  0.65260  Biso   1.000  C
  H27      1.0000 0.24710  0.59310  0.28470  Biso   1.000  H
  H28      1.0000 0.75290  0.40690  0.71530  Biso   1.000  H
  C13      1.0000 0.35720  0.44690  0.34840  Biso   1.000  C
  C14      1.0000 0.64280  0.55310  0.65160  Biso   1.000  C
  C15      1.0000 0.44590  0.40730  0.25910  Biso   1.000  C
  C16      1.0000 0.55410  0.59270  0.74090  Biso   1.000  C
  H29      1.0000 0.43840  0.44860  0.19350  Biso   1.000  H
  H30      1.0000 0.56160  0.55140  0.80650  Biso   1.000  H
  C17      1.0000 0.53970  0.31200  0.26740  Biso   1.000  C
  C18      1.0000 0.46030  0.68800  0.73260  Biso   1.000  C
  H31      1.0000 0.59460  0.28790  0.20700  Biso   1.000  H
  H32      1.0000 0.40540  0.71210  0.79300  Biso   1.000  H
  C19      1.0000 0.55800  0.24580  0.36760  Biso   1.000  C
  C20      1.0000 0.44200  0.75420  0.63240  Biso   1.000  C
  C21      1.0000 0.65960  0.15030  0.38580  Biso   1.000  C
  C22      1.0000 0.34040  0.84970  0.61420  Biso   1.000  C
  H33      1.0000 0.71860  0.12160  0.32900  Biso   1.000  H
  H34      1.0000 0.28140  0.87840  0.67100  Biso   1.000  H
  C23      1.0000 0.67170  0.09990  0.48590  Biso   1.000  C
  C24      1.0000 0.32830  0.90010  0.51410  Biso   1.000  C
  H35      1.0000 0.74120  0.03870  0.49890  Biso   1.000  H
  H36      1.0000 0.25880  0.96130  0.50110  Biso   1.000  H
  C25      1.0000 0.57920  0.14040  0.56980  Biso   1.000  C
  C26      1.0000 0.42080  0.85960  0.43020  Biso   1.000  C
  H37      1.0000 0.58820  0.10480  0.63800  Biso   1.000  H
  H38      1.0000 0.41180  0.89520  0.36200  Biso   1.000  H
  C27      1.0000 0.47060  0.28150  0.45599  Biso   1.000  C
  C28      1.0000 0.52940  0.71850  0.54401  Biso   1.000  C
  C29      1.0000 0.36950  0.38220  0.44652  Biso   1.000  C
  C30      1.0000 0.63050  0.61780  0.55348  Biso   1.000  C
  C31      1.0000 0.46200  0.19120  0.83920  Biso   1.000  C
  C32      1.0000 0.53800  0.80880  0.16080  Biso   1.000  C
  C33      1.0000 0.47850  0.09140  0.92194  Biso   1.000  C
  C34      1.0000 0.52150  0.90860  0.07806  Biso   1.000  C
  C35      1.0000 0.36750  0.99280  0.93030  Biso   1.000  C
  C36      1.0000 0.63250  0.00720  0.06970  Biso   1.000  C
  C37      1.0000 0.60900  0.09650  0.99220  Biso   1.000  C
  C38      1.0000 0.39100  0.90350  0.00780  Biso   1.000  C
  H39      1.0000 0.68300  0.16190  0.98700  Biso   1.000  H
  H40      1.0000 0.31700  0.83810  0.01300  Biso   1.000  H
  C39      1.0000 0.08920  0.35240  0.80024  Biso   1.000  C
  C40      1.0000 0.91080  0.64760  0.19976  Biso   1.000  C
  C41      1.0000 0.04700  0.43120  0.90381  Biso   1.000  C
  C42      1.0000 0.95300  0.56880  0.09619  Biso   1.000  C
  C43      1.0000 0.14730  0.52190  0.96920  Biso   1.000  C
  C44      1.0000 0.85270  0.47810  0.03080  Biso   1.000  C
  C45      1.0000 0.90250  0.41060  0.93662  Biso   1.000  C
  C46      1.0000 0.09750  0.58940  0.06338  Biso   1.000  C
  H41      1.0000 0.83680  0.34940  0.89390  Biso   1.000  H
  H42      1.0000 0.16320  0.65060  0.10610  Biso   1.000  H
  H43      1.0000 0.06600  0.17200  0.62050  Biso   1.000  H
  H44      1.0000 0.93400  0.82800  0.37950  Biso   1.000  H
  H45      1.0000 0.07600  0.17800  0.51580  Biso   1.000  H
  H46      1.0000 0.92400  0.82200  0.48420  Biso   1.000  H
  H47      1.0000 0.27630  0.98990  0.88660  Biso   1.000  H
  H48      1.0000 0.72370  0.01010  0.11340  Biso   1.000  H
  H49      1.0000 0.24320  0.52580  0.94500  Biso   1.000  H
  H50      1.0000 0.75680  0.47420  0.05500  Biso   1.000  H
