data_image0
_cell_length_a       10.885
_cell_length_b       16.216
_cell_length_c       11.108
_cell_angle_alpha    90
_cell_angle_beta     96.04
_cell_angle_gamma    90

_symmetry_space_group_name_H-M    "P 1"
_symmetry_int_tables_number       1

loop_
  _symmetry_equiv_pos_as_xyz
  'x, y, z'

loop_
  _atom_site_label
  _atom_site_occupancy
  _atom_site_fract_x
  _atom_site_fract_y
  _atom_site_fract_z
  _atom_site_thermal_displace_type
  _atom_site_B_iso_or_equiv
  _atom_site_type_symbol
  Cu1      1.0000 0.23581  0.71170  0.41906  Biso   1.000  Cu
  Cu2      1.0000 0.26419  0.21170  0.08094  Biso   1.000  Cu
  Cu3      1.0000 0.76419  0.28830  0.58094  Biso   1.000  Cu
  Cu4      1.0000 0.73581  0.78830  0.91906  Biso   1.000  Cu
  N1       1.0000 0.24324  0.71467  0.23727  Biso   1.000  N
  N2       1.0000 0.25676  0.21467  0.26273  Biso   1.000  N
  N3       1.0000 0.75676  0.28533  0.76273  Biso   1.000  N
  N4       1.0000 0.74324  0.78533  0.73727  Biso   1.000  N
  N5       1.0000 0.22480  0.71660  0.60023  Biso   1.000  N
  N6       1.0000 0.27520  0.21660  0.89977  Biso   1.000  N
  N7       1.0000 0.77520  0.28340  0.39977  Biso   1.000  N
  N8       1.0000 0.72480  0.78340  0.10023  Biso   1.000  N
  C1       1.0000 0.32000  0.66799  0.17995  Biso   1.000  C
  C2       1.0000 0.18000  0.16799  0.32005  Biso   1.000  C
  C3       1.0000 0.68000  0.33201  0.82005  Biso   1.000  C
  C4       1.0000 0.82000  0.83201  0.67995  Biso   1.000  C
  H1       1.0000 0.37600  0.63420  0.22560  Biso   1.000  H
  H2       1.0000 0.12400  0.13420  0.27440  Biso   1.000  H
  H3       1.0000 0.62400  0.36580  0.77440  Biso   1.000  H
  H4       1.0000 0.87600  0.86580  0.72560  Biso   1.000  H
  C5       1.0000 0.31910  0.66816  0.05521  Biso   1.000  C
  C6       1.0000 0.18090  0.16816  0.44479  Biso   1.000  C
  C7       1.0000 0.68090  0.33184  0.94479  Biso   1.000  C
  C8       1.0000 0.81910  0.83184  0.55521  Biso   1.000  C
  H5       1.0000 0.37530  0.63600  0.01850  Biso   1.000  H
  H6       1.0000 0.12470  0.13600  0.48150  Biso   1.000  H
  H7       1.0000 0.62470  0.36400  0.98150  Biso   1.000  H
  H8       1.0000 0.87530  0.86400  0.51850  Biso   1.000  H
  C9       1.0000 0.16410  0.76332  0.17032  Biso   1.000  C
  C10      1.0000 0.33590  0.26332  0.32968  Biso   1.000  C
  C11      1.0000 0.83590  0.23668  0.82968  Biso   1.000  C
  C12      1.0000 0.66410  0.73668  0.67032  Biso   1.000  C
  H9       1.0000 0.11290  0.79770  0.20970  Biso   1.000  H
  H10      1.0000 0.38710  0.29770  0.29030  Biso   1.000  H
  H11      1.0000 0.88710  0.20230  0.79030  Biso   1.000  H
  H12      1.0000 0.61290  0.70230  0.70970  Biso   1.000  H
  C13      1.0000 0.15480  0.76502  0.04541  Biso   1.000  C
  C14      1.0000 0.34520  0.26502  0.45459  Biso   1.000  C
  C15      1.0000 0.84520  0.23498  0.95459  Biso   1.000  C
  C16      1.0000 0.65480  0.73498  0.54541  Biso   1.000  C
  H13      1.0000 0.09610  0.79820  0.00190  Biso   1.000  H
  H14      1.0000 0.40390  0.29820  0.49810  Biso   1.000  H
  H15      1.0000 0.90390  0.20180  0.99810  Biso   1.000  H
  H16      1.0000 0.59610  0.70180  0.50190  Biso   1.000  H
  C17      1.0000 0.23435  0.71638  0.98559  Biso   1.000  C
  C18      1.0000 0.26565  0.21638  0.51441  Biso   1.000  C
  C19      1.0000 0.76565  0.28362  0.01441  Biso   1.000  C
  C20      1.0000 0.73435  0.78362  0.48559  Biso   1.000  C
  C21      1.0000 0.22908  0.71716  0.85159  Biso   1.000  C
  C22      1.0000 0.27092  0.21716  0.64841  Biso   1.000  C
  C23      1.0000 0.77092  0.28284  0.14841  Biso   1.000  C
  C24      1.0000 0.72908  0.78284  0.35159  Biso   1.000  C
  C25      1.0000 0.33771  0.72087  0.79611  Biso   1.000  C
  C26      1.0000 0.16229  0.22087  0.70389  Biso   1.000  C
  C27      1.0000 0.66229  0.27913  0.20389  Biso   1.000  C
  C28      1.0000 0.83771  0.77913  0.29611  Biso   1.000  C
  H17      1.0000 0.41390  0.72270  0.84260  Biso   1.000  H
  H18      1.0000 0.08610  0.22270  0.65740  Biso   1.000  H
  H19      1.0000 0.58610  0.27730  0.15740  Biso   1.000  H
  H20      1.0000 0.91390  0.77730  0.34260  Biso   1.000  H
  C29      1.0000 0.33119  0.72177  0.67186  Biso   1.000  C
  C30      1.0000 0.16881  0.22177  0.82814  Biso   1.000  C
  C31      1.0000 0.66881  0.27823  0.32814  Biso   1.000  C
  C32      1.0000 0.83119  0.77823  0.17186  Biso   1.000  C
  H21      1.0000 0.40430  0.72620  0.63590  Biso   1.000  H
  H22      1.0000 0.09570  0.22620  0.86410  Biso   1.000  H
  H23      1.0000 0.59570  0.27380  0.36410  Biso   1.000  H
  H24      1.0000 0.90430  0.77380  0.13590  Biso   1.000  H
  C33      1.0000 0.11799  0.71443  0.77746  Biso   1.000  C
  C34      1.0000 0.38201  0.21443  0.72254  Biso   1.000  C
  C35      1.0000 0.88201  0.28557  0.22254  Biso   1.000  C
  C36      1.0000 0.61799  0.78557  0.27746  Biso   1.000  C
  H25      1.0000 0.04330  0.71370  0.81110  Biso   1.000  H
  H26      1.0000 0.45670  0.21370  0.68890  Biso   1.000  H
  H27      1.0000 0.95670  0.28630  0.18890  Biso   1.000  H
  H28      1.0000 0.54330  0.78630  0.31110  Biso   1.000  H
  C37      1.0000 0.11966  0.71278  0.65321  Biso   1.000  C
  C38      1.0000 0.38034  0.21278  0.84679  Biso   1.000  C
  C39      1.0000 0.88034  0.28722  0.34679  Biso   1.000  C
  C40      1.0000 0.61966  0.78722  0.15321  Biso   1.000  C
  H29      1.0000 0.04500  0.70890  0.60440  Biso   1.000  H
  H30      1.0000 0.45500  0.20890  0.89560  Biso   1.000  H
  H31      1.0000 0.95500  0.29110  0.39560  Biso   1.000  H
  H32      1.0000 0.54500  0.79110  0.10440  Biso   1.000  H
  O1       1.0000 0.34800  0.80855  0.43679  Biso   1.000  O
  O2       1.0000 0.15200  0.30855  0.06321  Biso   1.000  O
  O3       1.0000 0.65200  0.19145  0.56321  Biso   1.000  O
  O4       1.0000 0.84800  0.69145  0.93679  Biso   1.000  O
  O5       1.0000 0.16287  0.86529  0.42026  Biso   1.000  O
  O6       1.0000 0.33713  0.36529  0.07974  Biso   1.000  O
  O7       1.0000 0.83713  0.13471  0.57974  Biso   1.000  O
  O8       1.0000 0.66287  0.63471  0.92026  Biso   1.000  O
  C41      1.0000 0.27789  0.87150  0.43483  Biso   1.000  C
  C42      1.0000 0.22211  0.37150  0.06517  Biso   1.000  C
  C43      1.0000 0.72211  0.12850  0.56517  Biso   1.000  C
  C44      1.0000 0.77789  0.62850  0.93483  Biso   1.000  C
  C45      1.0000 0.33720  0.95559  0.44950  Biso   1.000  C
  C46      1.0000 0.16280  0.45559  0.05050  Biso   1.000  C
  C47      1.0000 0.66280  0.04441  0.55050  Biso   1.000  C
  C48      1.0000 0.83720  0.54441  0.94950  Biso   1.000  C
  H33      1.0000 0.29410  0.98700  0.50630  Biso   1.000  H
  H34      1.0000 0.20590  0.48700  0.99370  Biso   1.000  H
  H35      1.0000 0.70590  0.01300  0.49370  Biso   1.000  H
  H36      1.0000 0.79410  0.51300  0.00630  Biso   1.000  H
  H37      1.0000 0.32520  0.98380  0.37210  Biso   1.000  H
  H38      1.0000 0.17480  0.48380  0.12790  Biso   1.000  H
  H39      1.0000 0.67480  0.01620  0.62790  Biso   1.000  H
  H40      1.0000 0.82520  0.51620  0.87210  Biso   1.000  H
  C49      1.0000 0.47410  0.95649  0.49300  Biso   1.000  C
  C50      1.0000 0.02590  0.45649  0.00700  Biso   1.000  C
  C51      1.0000 0.52590  0.04351  0.50700  Biso   1.000  C
  C52      1.0000 0.97410  0.54351  0.99300  Biso   1.000  C
  H41      1.0000 0.51860  0.92650  0.43570  Biso   1.000  H
  H42      1.0000 0.98140  0.42650  0.06430  Biso   1.000  H
  H43      1.0000 0.48140  0.07350  0.56430  Biso   1.000  H
  H44      1.0000 0.01860  0.57350  0.93570  Biso   1.000  H
  H45      1.0000 0.48740  0.92830  0.57030  Biso   1.000  H
  H46      1.0000 0.01260  0.42830  0.92970  Biso   1.000  H
  H47      1.0000 0.51260  0.07170  0.42970  Biso   1.000  H
  H48      1.0000 0.98740  0.57170  0.07030  Biso   1.000  H
  O9       1.0000 0.09387  0.63738  0.39787  Biso   1.000  O
  O10      1.0000 0.40613  0.13738  0.10213  Biso   1.000  O
  O11      1.0000 0.90613  0.36262  0.60213  Biso   1.000  O
  O12      1.0000 0.59387  0.86262  0.89787  Biso   1.000  O
  O13      1.0000 0.20253  0.52739  0.35340  Biso   1.000  O
  O14      1.0000 0.29747  0.02739  0.14660  Biso   1.000  O
  O15      1.0000 0.79747  0.47261  0.64660  Biso   1.000  O
  O16      1.0000 0.70253  0.97261  0.85340  Biso   1.000  O
  C53      1.0000 0.10450  0.56247  0.36495  Biso   1.000  C
  C54      1.0000 0.39550  0.06247  0.13505  Biso   1.000  C
  C55      1.0000 0.89550  0.43753  0.63505  Biso   1.000  C
  C56      1.0000 0.60450  0.93753  0.86495  Biso   1.000  C
  C57      1.0000 0.98690  0.51281  0.33850  Biso   1.000  C
  C58      1.0000 0.51310  0.01281  0.16150  Biso   1.000  C
  C59      1.0000 0.01310  0.48719  0.66150  Biso   1.000  C
  C60      1.0000 0.48690  0.98719  0.83850  Biso   1.000  C
  H49      1.0000 0.99090  0.48430  0.26220  Biso   1.000  H
  H50      1.0000 0.50910  0.98430  0.23780  Biso   1.000  H
  H51      1.0000 0.00910  0.51570  0.73780  Biso   1.000  H
  H52      1.0000 0.49090  0.01570  0.76220  Biso   1.000  H
  H53      1.0000 0.98570  0.47100  0.40080  Biso   1.000  H
  H54      1.0000 0.51430  0.97100  0.09920  Biso   1.000  H
  H55      1.0000 0.01430  0.52900  0.59920  Biso   1.000  H
  H56      1.0000 0.48570  0.02900  0.90080  Biso   1.000  H
  C61      1.0000 0.86590  0.55865  0.33110  Biso   1.000  C
  C62      1.0000 0.63410  0.05865  0.16890  Biso   1.000  C
  C63      1.0000 0.13410  0.44135  0.66890  Biso   1.000  C
  C64      1.0000 0.36590  0.94135  0.83110  Biso   1.000  C
  H57      1.0000 0.86510  0.60120  0.26960  Biso   1.000  H
  H58      1.0000 0.63490  0.10120  0.23040  Biso   1.000  H
  H59      1.0000 0.13490  0.39880  0.73040  Biso   1.000  H
  H60      1.0000 0.36510  0.89880  0.76960  Biso   1.000  H
  H61      1.0000 0.85780  0.58530  0.40810  Biso   1.000  H
  H62      1.0000 0.64220  0.08530  0.09190  Biso   1.000  H
  H63      1.0000 0.14220  0.41470  0.59190  Biso   1.000  H
  H64      1.0000 0.35780  0.91470  0.90810  Biso   1.000  H
  C65      1.0000 0.75720  0.50080  0.30040  Biso   1.000  C
  C66      1.0000 0.74280  0.00080  0.19960  Biso   1.000  C
  C67      1.0000 0.24280  0.49920  0.69960  Biso   1.000  C
  C68      1.0000 0.25720  0.99920  0.80040  Biso   1.000  C
  H65      1.0000 0.76800  0.47260  0.22520  Biso   1.000  H
  H66      1.0000 0.73200  0.97260  0.27480  Biso   1.000  H
  H67      1.0000 0.23200  0.52740  0.77480  Biso   1.000  H
  H68      1.0000 0.26800  0.02740  0.72520  Biso   1.000  H
  H69      1.0000 0.75740  0.45940  0.36350  Biso   1.000  H
  H70      1.0000 0.74260  0.95940  0.13650  Biso   1.000  H
  H71      1.0000 0.24260  0.54060  0.63650  Biso   1.000  H
  H72      1.0000 0.25740  0.04060  0.86350  Biso   1.000  H
  C69      1.0000 0.63350  0.54383  0.28740  Biso   1.000  C
  C70      1.0000 0.86650  0.04383  0.21260  Biso   1.000  C
  C71      1.0000 0.36650  0.45617  0.71260  Biso   1.000  C
  C72      1.0000 0.13350  0.95617  0.78740  Biso   1.000  C
  H73      1.0000 0.62010  0.57060  0.36300  Biso   1.000  H
  H74      1.0000 0.87990  0.07060  0.13700  Biso   1.000  H
  H75      1.0000 0.37990  0.42940  0.63700  Biso   1.000  H
  H76      1.0000 0.12010  0.92940  0.86300  Biso   1.000  H
  H77      1.0000 0.63240  0.58590  0.22520  Biso   1.000  H
  H78      1.0000 0.86760  0.08590  0.27480  Biso   1.000  H
  H79      1.0000 0.36760  0.41410  0.77480  Biso   1.000  H
  H80      1.0000 0.13240  0.91410  0.72520  Biso   1.000  H
  C73      1.0000 0.53160  0.48228  0.25390  Biso   1.000  C
  C74      1.0000 0.96840  0.98228  0.24610  Biso   1.000  C
  C75      1.0000 0.46840  0.51772  0.74610  Biso   1.000  C
  C76      1.0000 0.03160  0.01772  0.75390  Biso   1.000  C
  O17      1.0000 0.49854  0.43173  0.32393  Biso   1.000  O
  O18      1.0000 0.00146  0.93173  0.17607  Biso   1.000  O
  O19      1.0000 0.50146  0.56827  0.67607  Biso   1.000  O
  O20      1.0000 0.99854  0.06827  0.82393  Biso   1.000  O
  O21      1.0000 0.48590  0.48663  0.14061  Biso   1.000  O
  O22      1.0000 0.01410  0.98663  0.35939  Biso   1.000  O
  O23      1.0000 0.51410  0.51337  0.85939  Biso   1.000  O
  O24      1.0000 0.98590  0.01337  0.64061  Biso   1.000  O
  H81      1.0000 0.43700  0.45700  0.12700  Biso   1.000  H
  H82      1.0000 0.06300  0.95700  0.37300  Biso   1.000  H
  H83      1.0000 0.56300  0.54300  0.87300  Biso   1.000  H
  H84      1.0000 0.93700  0.04300  0.62700  Biso   1.000  H
  O25      1.0000 0.39705  0.61344  0.44463  Biso   1.000  O
  O26      1.0000 0.10295  0.11344  0.05537  Biso   1.000  O
  O27      1.0000 0.60295  0.38656  0.55537  Biso   1.000  O
  O28      1.0000 0.89705  0.88656  0.94463  Biso   1.000  O
  H85      1.0000 0.34500  0.57890  0.42100  Biso   1.000  H
  H86      1.0000 0.15500  0.07890  0.07900  Biso   1.000  H
  H87      1.0000 0.65500  0.42110  0.57900  Biso   1.000  H
  H88      1.0000 0.84500  0.92110  0.92100  Biso   1.000  H
  H89      1.0000 0.42100  0.59600  0.50800  Biso   1.000  H
  H90      1.0000 0.07900  0.09600  0.99200  Biso   1.000  H
  H91      1.0000 0.57900  0.40400  0.49200  Biso   1.000  H
  H92      1.0000 0.92100  0.90400  0.00800  Biso   1.000  H
