data_image0
_cell_length_a       11.691
_cell_length_b       18.186
_cell_length_c       20.347
_cell_angle_alpha    90
_cell_angle_beta     102.2
_cell_angle_gamma    90

_symmetry_space_group_name_H-M    "P 1"
_symmetry_int_tables_number       1

loop_
  _symmetry_equiv_pos_as_xyz
  'x, y, z'

loop_
  _atom_site_label
  _atom_site_occupancy
  _atom_site_fract_x
  _atom_site_fract_y
  _atom_site_fract_z
  _atom_site_thermal_displace_type
  _atom_site_B_iso_or_equiv
  _atom_site_type_symbol
  Cu1      1.0000 0.46478  0.14367  0.68155  Biso   1.000  Cu
  Cu2      1.0000 0.53522  0.14367  0.81845  Biso   1.000  Cu
  Cu3      1.0000 0.96478  0.64367  0.68155  Biso   1.000  Cu
  Cu4      1.0000 0.03522  0.64367  0.81845  Biso   1.000  Cu
  Cu5      1.0000 0.53522  0.85633  0.31845  Biso   1.000  Cu
  Cu6      1.0000 0.46478  0.85633  0.18155  Biso   1.000  Cu
  Cu7      1.0000 0.03522  0.35633  0.31845  Biso   1.000  Cu
  Cu8      1.0000 0.96478  0.35633  0.18155  Biso   1.000  Cu
  Cu9      1.0000 0.00000  0.14890  0.75000  Biso   1.000  Cu
  Cu10     1.0000 0.50000  0.64890  0.75000  Biso   1.000  Cu
  Cu11     1.0000 0.00000  0.85110  0.25000  Biso   1.000  Cu
  Cu12     1.0000 0.50000  0.35110  0.25000  Biso   1.000  Cu
  N1       1.0000 0.80460  0.06983  0.59762  Biso   1.000  N
  N2       1.0000 0.19540  0.06983  0.90238  Biso   1.000  N
  N3       1.0000 0.30460  0.56983  0.59762  Biso   1.000  N
  N4       1.0000 0.69540  0.56983  0.90238  Biso   1.000  N
  N5       1.0000 0.19540  0.93017  0.40238  Biso   1.000  N
  N6       1.0000 0.80460  0.93017  0.09762  Biso   1.000  N
  N7       1.0000 0.69540  0.43017  0.40238  Biso   1.000  N
  N8       1.0000 0.30460  0.43017  0.09762  Biso   1.000  N
  N9       1.0000 0.65890  0.13801  0.54963  Biso   1.000  N
  N10      1.0000 0.34110  0.13801  0.95037  Biso   1.000  N
  N11      1.0000 0.15890  0.63801  0.54963  Biso   1.000  N
  N12      1.0000 0.84110  0.63801  0.95037  Biso   1.000  N
  N13      1.0000 0.34110  0.86199  0.45037  Biso   1.000  N
  N14      1.0000 0.65890  0.86199  0.04963  Biso   1.000  N
  N15      1.0000 0.84110  0.36199  0.45037  Biso   1.000  N
  N16      1.0000 0.15890  0.36199  0.04963  Biso   1.000  N
  N17      1.0000 0.40090  0.15287  0.57477  Biso   1.000  N
  N18      1.0000 0.59910  0.15287  0.92523  Biso   1.000  N
  N19      1.0000 0.90090  0.65287  0.57477  Biso   1.000  N
  N20      1.0000 0.09910  0.65287  0.92523  Biso   1.000  N
  N21      1.0000 0.59910  0.84713  0.42523  Biso   1.000  N
  N22      1.0000 0.40090  0.84713  0.07477  Biso   1.000  N
  N23      1.0000 0.09910  0.34713  0.42523  Biso   1.000  N
  N24      1.0000 0.90090  0.34713  0.07477  Biso   1.000  N
  N25      1.0000 0.37670  0.18383  0.46594  Biso   1.000  N
  N26      1.0000 0.62330  0.18383  0.03406  Biso   1.000  N
  N27      1.0000 0.87670  0.68383  0.46594  Biso   1.000  N
  N28      1.0000 0.12330  0.68383  0.03406  Biso   1.000  N
  N29      1.0000 0.62330  0.81617  0.53406  Biso   1.000  N
  N30      1.0000 0.37670  0.81617  0.96594  Biso   1.000  N
  N31      1.0000 0.12330  0.31617  0.53406  Biso   1.000  N
  N32      1.0000 0.87670  0.31617  0.96594  Biso   1.000  N
  H1       1.0000 0.39380  0.19820  0.42890  Biso   1.000  H
  H2       1.0000 0.60620  0.19820  0.07110  Biso   1.000  H
  H3       1.0000 0.89380  0.69820  0.42890  Biso   1.000  H
  H4       1.0000 0.10620  0.69820  0.07110  Biso   1.000  H
  H5       1.0000 0.60620  0.80180  0.57110  Biso   1.000  H
  H6       1.0000 0.39380  0.80180  0.92890  Biso   1.000  H
  H7       1.0000 0.10620  0.30180  0.57110  Biso   1.000  H
  H8       1.0000 0.89380  0.30180  0.92890  Biso   1.000  H
  O1       1.0000 0.57970  0.22845  0.68883  Biso   1.000  O
  O2       1.0000 0.42030  0.22845  0.81117  Biso   1.000  O
  O3       1.0000 0.07970  0.72845  0.68883  Biso   1.000  O
  O4       1.0000 0.92030  0.72845  0.81117  Biso   1.000  O
  O5       1.0000 0.42030  0.77155  0.31117  Biso   1.000  O
  O6       1.0000 0.57970  0.77155  0.18883  Biso   1.000  O
  O7       1.0000 0.92030  0.27155  0.31117  Biso   1.000  O
  O8       1.0000 0.07970  0.27155  0.18883  Biso   1.000  O
  O9       1.0000 0.64880  0.21843  0.80050  Biso   1.000  O
  O10      1.0000 0.35120  0.21843  0.69950  Biso   1.000  O
  O11      1.0000 0.14880  0.71843  0.80050  Biso   1.000  O
  O12      1.0000 0.85120  0.71843  0.69950  Biso   1.000  O
  O13      1.0000 0.35120  0.78157  0.19950  Biso   1.000  O
  O14      1.0000 0.64880  0.78157  0.30050  Biso   1.000  O
  O15      1.0000 0.85120  0.28157  0.19950  Biso   1.000  O
  O16      1.0000 0.14880  0.28157  0.30050  Biso   1.000  O
  O17      1.0000 0.88324  0.22332  0.74970  Biso   1.000  O
  O18      1.0000 0.11676  0.22332  0.75030  Biso   1.000  O
  O19      1.0000 0.38324  0.72332  0.74970  Biso   1.000  O
  O20      1.0000 0.61676  0.72332  0.75030  Biso   1.000  O
  O21      1.0000 0.11676  0.77668  0.25030  Biso   1.000  O
  O22      1.0000 0.88324  0.77668  0.24970  Biso   1.000  O
  O23      1.0000 0.61676  0.27668  0.25030  Biso   1.000  O
  O24      1.0000 0.38324  0.27668  0.24970  Biso   1.000  O
  O25      1.0000 0.96100  0.26385  0.85376  Biso   1.000  O
  O26      1.0000 0.03900  0.26385  0.64624  Biso   1.000  O
  O27      1.0000 0.46100  0.76385  0.85376  Biso   1.000  O
  O28      1.0000 0.53900  0.76385  0.64624  Biso   1.000  O
  O29      1.0000 0.03900  0.73615  0.14624  Biso   1.000  O
  O30      1.0000 0.96100  0.73615  0.35376  Biso   1.000  O
  O31      1.0000 0.53900  0.23615  0.14624  Biso   1.000  O
  O32      1.0000 0.46100  0.23615  0.35376  Biso   1.000  O
  O33      1.0000 0.91140  0.56725  0.81591  Biso   1.000  O
  O34      1.0000 0.08860  0.56725  0.68409  Biso   1.000  O
  O35      1.0000 0.41140  0.06725  0.81591  Biso   1.000  O
  O36      1.0000 0.58860  0.06725  0.68409  Biso   1.000  O
  O37      1.0000 0.08860  0.43275  0.18409  Biso   1.000  O
  O38      1.0000 0.91140  0.43275  0.31591  Biso   1.000  O
  O39      1.0000 0.58860  0.93275  0.18409  Biso   1.000  O
  O40      1.0000 0.41140  0.93275  0.31591  Biso   1.000  O
  O41      1.0000 0.86429  0.56255  0.70283  Biso   1.000  O
  O42      1.0000 0.13571  0.56255  0.79717  Biso   1.000  O
  O43      1.0000 0.36429  0.06255  0.70283  Biso   1.000  O
  O44      1.0000 0.63571  0.06255  0.79717  Biso   1.000  O
  O45      1.0000 0.13571  0.43745  0.29717  Biso   1.000  O
  O46      1.0000 0.86429  0.43745  0.20283  Biso   1.000  O
  O47      1.0000 0.63571  0.93745  0.29717  Biso   1.000  O
  O48      1.0000 0.36429  0.93745  0.20283  Biso   1.000  O
  O49      1.0000 0.61960  0.57773  0.74370  Biso   1.000  O
  O50      1.0000 0.38040  0.57773  0.75630  Biso   1.000  O
  O51      1.0000 0.11960  0.07773  0.74370  Biso   1.000  O
  O52      1.0000 0.88040  0.07773  0.75630  Biso   1.000  O
  O53      1.0000 0.38040  0.42227  0.25630  Biso   1.000  O
  O54      1.0000 0.61960  0.42227  0.24370  Biso   1.000  O
  O55      1.0000 0.88040  0.92227  0.25630  Biso   1.000  O
  O56      1.0000 0.11960  0.92227  0.24370  Biso   1.000  O
  O57      1.0000 0.51190  0.51064  0.66010  Biso   1.000  O
  O58      1.0000 0.48810  0.51064  0.83990  Biso   1.000  O
  O59      1.0000 0.01190  0.01064  0.66010  Biso   1.000  O
  O60      1.0000 0.98810  0.01064  0.83990  Biso   1.000  O
  O61      1.0000 0.48810  0.48936  0.33990  Biso   1.000  O
  O62      1.0000 0.51190  0.48936  0.16010  Biso   1.000  O
  O63      1.0000 0.98810  0.98936  0.33990  Biso   1.000  O
  O64      1.0000 0.01190  0.98936  0.16010  Biso   1.000  O
  H9       1.0000 0.46750  0.54590  0.65750  Biso   1.000  H
  H10      1.0000 0.53250  0.54590  0.84250  Biso   1.000  H
  H11      1.0000 0.96750  0.04590  0.65750  Biso   1.000  H
  H12      1.0000 0.03250  0.04590  0.84250  Biso   1.000  H
  H13      1.0000 0.53250  0.45410  0.34250  Biso   1.000  H
  H14      1.0000 0.46750  0.45410  0.15750  Biso   1.000  H
  H15      1.0000 0.03250  0.95410  0.34250  Biso   1.000  H
  H16      1.0000 0.96750  0.95410  0.15750  Biso   1.000  H
  C1       1.0000 0.74550  0.13140  0.60293  Biso   1.000  C
  C2       1.0000 0.25450  0.13140  0.89707  Biso   1.000  C
  C3       1.0000 0.24550  0.63140  0.60293  Biso   1.000  C
  C4       1.0000 0.75450  0.63140  0.89707  Biso   1.000  C
  C5       1.0000 0.25450  0.86860  0.39707  Biso   1.000  C
  C6       1.0000 0.74550  0.86860  0.10293  Biso   1.000  C
  C7       1.0000 0.75450  0.36860  0.39707  Biso   1.000  C
  C8       1.0000 0.24550  0.36860  0.10293  Biso   1.000  C
  H17      1.0000 0.76240  0.16460  0.63850  Biso   1.000  H
  H18      1.0000 0.23760  0.16460  0.86150  Biso   1.000  H
  H19      1.0000 0.26240  0.66460  0.63850  Biso   1.000  H
  H20      1.0000 0.73760  0.66460  0.86150  Biso   1.000  H
  H21      1.0000 0.23760  0.83540  0.36150  Biso   1.000  H
  H22      1.0000 0.76240  0.83540  0.13850  Biso   1.000  H
  H23      1.0000 0.73760  0.33540  0.36150  Biso   1.000  H
  H24      1.0000 0.26240  0.33540  0.13850  Biso   1.000  H
  C9       1.0000 0.75100  0.03560  0.53870  Biso   1.000  C
  C10      1.0000 0.24900  0.03560  0.96130  Biso   1.000  C
  C11      1.0000 0.25100  0.53560  0.53870  Biso   1.000  C
  C12      1.0000 0.74900  0.53560  0.96130  Biso   1.000  C
  C13      1.0000 0.24900  0.96440  0.46130  Biso   1.000  C
  C14      1.0000 0.75100  0.96440  0.03870  Biso   1.000  C
  C15      1.0000 0.74900  0.46440  0.46130  Biso   1.000  C
  C16      1.0000 0.25100  0.46440  0.03870  Biso   1.000  C
  H25      1.0000 0.77390  0.99160  0.52200  Biso   1.000  H
  H26      1.0000 0.22610  0.99160  0.97800  Biso   1.000  H
  H27      1.0000 0.27390  0.49160  0.52200  Biso   1.000  H
  H28      1.0000 0.72610  0.49160  0.97800  Biso   1.000  H
  H29      1.0000 0.22610  0.00840  0.47800  Biso   1.000  H
  H30      1.0000 0.77390  0.00840  0.02200  Biso   1.000  H
  H31      1.0000 0.72610  0.50840  0.47800  Biso   1.000  H
  H32      1.0000 0.27390  0.50840  0.02200  Biso   1.000  H
  C17      1.0000 0.66030  0.07740  0.50990  Biso   1.000  C
  C18      1.0000 0.33970  0.07740  0.99010  Biso   1.000  C
  C19      1.0000 0.16030  0.57740  0.50990  Biso   1.000  C
  C20      1.0000 0.83970  0.57740  0.99010  Biso   1.000  C
  C21      1.0000 0.33970  0.92260  0.49010  Biso   1.000  C
  C22      1.0000 0.66030  0.92260  0.00990  Biso   1.000  C
  C23      1.0000 0.83970  0.42260  0.49010  Biso   1.000  C
  C24      1.0000 0.16030  0.42260  0.00990  Biso   1.000  C
  H33      1.0000 0.60740  0.06710  0.47000  Biso   1.000  H
  H34      1.0000 0.39260  0.06710  0.03000  Biso   1.000  H
  H35      1.0000 0.10740  0.56710  0.47000  Biso   1.000  H
  H36      1.0000 0.89260  0.56710  0.03000  Biso   1.000  H
  H37      1.0000 0.39260  0.93290  0.53000  Biso   1.000  H
  H38      1.0000 0.60740  0.93290  0.97000  Biso   1.000  H
  H39      1.0000 0.89260  0.43290  0.53000  Biso   1.000  H
  H40      1.0000 0.10740  0.43290  0.97000  Biso   1.000  H
  C25      1.0000 0.57750  0.20042  0.53551  Biso   1.000  C
  C26      1.0000 0.42250  0.20042  0.96449  Biso   1.000  C
  C27      1.0000 0.07750  0.70042  0.53551  Biso   1.000  C
  C28      1.0000 0.92250  0.70042  0.96449  Biso   1.000  C
  C29      1.0000 0.42250  0.79958  0.46449  Biso   1.000  C
  C30      1.0000 0.57750  0.79958  0.03551  Biso   1.000  C
  C31      1.0000 0.92250  0.29958  0.46449  Biso   1.000  C
  C32      1.0000 0.07750  0.29958  0.03551  Biso   1.000  C
  H41      1.0000 0.58850  0.22490  0.49490  Biso   1.000  H
  H42      1.0000 0.41150  0.22490  0.00510  Biso   1.000  H
  H43      1.0000 0.08850  0.72490  0.49490  Biso   1.000  H
  H44      1.0000 0.91150  0.72490  0.00510  Biso   1.000  H
  H45      1.0000 0.41150  0.77510  0.50510  Biso   1.000  H
  H46      1.0000 0.58850  0.77510  0.99490  Biso   1.000  H
  H47      1.0000 0.91150  0.27510  0.50510  Biso   1.000  H
  H48      1.0000 0.08850  0.27510  0.99490  Biso   1.000  H
  H49      1.0000 0.59620  0.23540  0.57220  Biso   1.000  H
  H50      1.0000 0.40380  0.23540  0.92780  Biso   1.000  H
  H51      1.0000 0.09620  0.73540  0.57220  Biso   1.000  H
  H52      1.0000 0.90380  0.73540  0.92780  Biso   1.000  H
  H53      1.0000 0.40380  0.76460  0.42780  Biso   1.000  H
  H54      1.0000 0.59620  0.76460  0.07220  Biso   1.000  H
  H55      1.0000 0.90380  0.26460  0.42780  Biso   1.000  H
  H56      1.0000 0.09620  0.26460  0.07220  Biso   1.000  H
  C33      1.0000 0.45170  0.17811  0.52672  Biso   1.000  C
  C34      1.0000 0.54830  0.17811  0.97328  Biso   1.000  C
  C35      1.0000 0.95170  0.67811  0.52672  Biso   1.000  C
  C36      1.0000 0.04830  0.67811  0.97328  Biso   1.000  C
  C37      1.0000 0.54830  0.82189  0.47328  Biso   1.000  C
  C38      1.0000 0.45170  0.82189  0.02672  Biso   1.000  C
  C39      1.0000 0.04830  0.32189  0.47328  Biso   1.000  C
  C40      1.0000 0.95170  0.32189  0.02672  Biso   1.000  C
  C41      1.0000 0.26710  0.16201  0.47488  Biso   1.000  C
  C42      1.0000 0.73290  0.16201  0.02512  Biso   1.000  C
  C43      1.0000 0.76710  0.66201  0.47488  Biso   1.000  C
  C44      1.0000 0.23290  0.66201  0.02512  Biso   1.000  C
  C45      1.0000 0.73290  0.83799  0.52512  Biso   1.000  C
  C46      1.0000 0.26710  0.83799  0.97488  Biso   1.000  C
  C47      1.0000 0.23290  0.33799  0.52512  Biso   1.000  C
  C48      1.0000 0.76710  0.33799  0.97488  Biso   1.000  C
  C49      1.0000 0.15880  0.15720  0.43086  Biso   1.000  C
  C50      1.0000 0.84120  0.15720  0.06914  Biso   1.000  C
  C51      1.0000 0.65880  0.65720  0.43086  Biso   1.000  C
  C52      1.0000 0.34120  0.65720  0.06914  Biso   1.000  C
  C53      1.0000 0.84120  0.84280  0.56914  Biso   1.000  C
  C54      1.0000 0.15880  0.84280  0.93086  Biso   1.000  C
  C55      1.0000 0.34120  0.34280  0.56914  Biso   1.000  C
  C56      1.0000 0.65880  0.34280  0.93086  Biso   1.000  C
  H57      1.0000 0.14920  0.17010  0.38580  Biso   1.000  H
  H58      1.0000 0.85080  0.17010  0.11420  Biso   1.000  H
  H59      1.0000 0.64920  0.67010  0.38580  Biso   1.000  H
  H60      1.0000 0.35080  0.67010  0.11420  Biso   1.000  H
  H61      1.0000 0.85080  0.82990  0.61420  Biso   1.000  H
  H62      1.0000 0.14920  0.82990  0.88580  Biso   1.000  H
  H63      1.0000 0.35080  0.32990  0.61420  Biso   1.000  H
  H64      1.0000 0.64920  0.32990  0.88580  Biso   1.000  H
  C57      1.0000 0.06580  0.13230  0.45722  Biso   1.000  C
  C58      1.0000 0.93420  0.13230  0.04278  Biso   1.000  C
  C59      1.0000 0.56580  0.63230  0.45722  Biso   1.000  C
  C60      1.0000 0.43420  0.63230  0.04278  Biso   1.000  C
  C61      1.0000 0.93420  0.86770  0.54278  Biso   1.000  C
  C62      1.0000 0.06580  0.86770  0.95722  Biso   1.000  C
  C63      1.0000 0.43420  0.36770  0.54278  Biso   1.000  C
  C64      1.0000 0.56580  0.36770  0.95722  Biso   1.000  C
  H65      1.0000 0.99220  0.12780  0.42920  Biso   1.000  H
  H66      1.0000 0.00780  0.12780  0.07080  Biso   1.000  H
  H67      1.0000 0.49220  0.62780  0.42920  Biso   1.000  H
  H68      1.0000 0.50780  0.62780  0.07080  Biso   1.000  H
  H69      1.0000 0.00780  0.87220  0.57080  Biso   1.000  H
  H70      1.0000 0.99220  0.87220  0.92920  Biso   1.000  H
  H71      1.0000 0.50780  0.37220  0.57080  Biso   1.000  H
  H72      1.0000 0.49220  0.37220  0.92920  Biso   1.000  H
  C65      1.0000 0.08070  0.11390  0.52522  Biso   1.000  C
  C66      1.0000 0.91930  0.11390  0.97478  Biso   1.000  C
  C67      1.0000 0.58070  0.61390  0.52522  Biso   1.000  C
  C68      1.0000 0.41930  0.61390  0.97478  Biso   1.000  C
  C69      1.0000 0.91930  0.88610  0.47478  Biso   1.000  C
  C70      1.0000 0.08070  0.88610  0.02522  Biso   1.000  C
  C71      1.0000 0.41930  0.38610  0.47478  Biso   1.000  C
  C72      1.0000 0.58070  0.38610  0.02522  Biso   1.000  C
  H73      1.0000 0.01650  0.09760  0.54140  Biso   1.000  H
  H74      1.0000 0.98350  0.09760  0.95860  Biso   1.000  H
  H75      1.0000 0.51650  0.59760  0.54140  Biso   1.000  H
  H76      1.0000 0.48350  0.59760  0.95860  Biso   1.000  H
  H77      1.0000 0.98350  0.90240  0.45860  Biso   1.000  H
  H78      1.0000 0.01650  0.90240  0.04140  Biso   1.000  H
  H79      1.0000 0.48350  0.40240  0.45860  Biso   1.000  H
  H80      1.0000 0.51650  0.40240  0.04140  Biso   1.000  H
  C73      1.0000 0.18830  0.11920  0.56919  Biso   1.000  C
  C74      1.0000 0.81170  0.11920  0.93081  Biso   1.000  C
  C75      1.0000 0.68830  0.61920  0.56919  Biso   1.000  C
  C76      1.0000 0.31170  0.61920  0.93081  Biso   1.000  C
  C77      1.0000 0.81170  0.88080  0.43081  Biso   1.000  C
  C78      1.0000 0.18830  0.88080  0.06919  Biso   1.000  C
  C79      1.0000 0.31170  0.38080  0.43081  Biso   1.000  C
  C80      1.0000 0.68830  0.38080  0.06919  Biso   1.000  C
  H81      1.0000 0.19700  0.10730  0.61440  Biso   1.000  H
  H82      1.0000 0.80300  0.10730  0.88560  Biso   1.000  H
  H83      1.0000 0.69700  0.60730  0.61440  Biso   1.000  H
  H84      1.0000 0.30300  0.60730  0.88560  Biso   1.000  H
  H85      1.0000 0.80300  0.89270  0.38560  Biso   1.000  H
  H86      1.0000 0.19700  0.89270  0.11440  Biso   1.000  H
  H87      1.0000 0.30300  0.39270  0.38560  Biso   1.000  H
  H88      1.0000 0.69700  0.39270  0.11440  Biso   1.000  H
  C81      1.0000 0.28290  0.14292  0.54321  Biso   1.000  C
  C82      1.0000 0.71710  0.14292  0.95679  Biso   1.000  C
  C83      1.0000 0.78290  0.64292  0.54321  Biso   1.000  C
  C84      1.0000 0.21710  0.64292  0.95679  Biso   1.000  C
  C85      1.0000 0.71710  0.85708  0.45679  Biso   1.000  C
  C86      1.0000 0.28290  0.85708  0.04321  Biso   1.000  C
  C87      1.0000 0.21710  0.35708  0.45679  Biso   1.000  C
  C88      1.0000 0.78290  0.35708  0.04321  Biso   1.000  C
  C89      1.0000 0.63950  0.25021  0.74464  Biso   1.000  C
  C90      1.0000 0.36050  0.25021  0.75536  Biso   1.000  C
  C91      1.0000 0.13950  0.75021  0.74464  Biso   1.000  C
  C92      1.0000 0.86050  0.75021  0.75536  Biso   1.000  C
  C93      1.0000 0.36050  0.74979  0.25536  Biso   1.000  C
  C94      1.0000 0.63950  0.74979  0.24464  Biso   1.000  C
  C95      1.0000 0.86050  0.24979  0.25536  Biso   1.000  C
  C96      1.0000 0.13950  0.24979  0.24464  Biso   1.000  C
  C97      1.0000 0.69830  0.32476  0.74690  Biso   1.000  C
  C98      1.0000 0.30170  0.32476  0.75310  Biso   1.000  C
  C99      1.0000 0.19830  0.82476  0.74690  Biso   1.000  C
  C100     1.0000 0.80170  0.82476  0.75310  Biso   1.000  C
  C101     1.0000 0.30170  0.67524  0.25310  Biso   1.000  C
  C102     1.0000 0.69830  0.67524  0.24690  Biso   1.000  C
  C103     1.0000 0.80170  0.17524  0.25310  Biso   1.000  C
  C104     1.0000 0.19830  0.17524  0.24690  Biso   1.000  C
  C105     1.0000 0.81540  0.33470  0.78012  Biso   1.000  C
  C106     1.0000 0.18460  0.33470  0.71988  Biso   1.000  C
  C107     1.0000 0.31540  0.83470  0.78012  Biso   1.000  C
  C108     1.0000 0.68460  0.83470  0.71988  Biso   1.000  C
  C109     1.0000 0.18460  0.66530  0.21988  Biso   1.000  C
  C110     1.0000 0.81540  0.66530  0.28012  Biso   1.000  C
  C111     1.0000 0.68460  0.16530  0.21988  Biso   1.000  C
  C112     1.0000 0.31540  0.16530  0.28012  Biso   1.000  C
  C113     1.0000 0.89320  0.26906  0.79806  Biso   1.000  C
  C114     1.0000 0.10680  0.26906  0.70194  Biso   1.000  C
  C115     1.0000 0.39320  0.76906  0.79806  Biso   1.000  C
  C116     1.0000 0.60680  0.76906  0.70194  Biso   1.000  C
  C117     1.0000 0.10680  0.73094  0.20194  Biso   1.000  C
  C118     1.0000 0.89320  0.73094  0.29806  Biso   1.000  C
  C119     1.0000 0.60680  0.23094  0.20194  Biso   1.000  C
  C120     1.0000 0.39320  0.23094  0.29806  Biso   1.000  C
  C121     1.0000 0.86370  0.40552  0.78783  Biso   1.000  C
  C122     1.0000 0.13630  0.40552  0.71217  Biso   1.000  C
  C123     1.0000 0.36370  0.90552  0.78783  Biso   1.000  C
  C124     1.0000 0.63630  0.90552  0.71217  Biso   1.000  C
  C125     1.0000 0.13630  0.59448  0.21217  Biso   1.000  C
  C126     1.0000 0.86370  0.59448  0.28783  Biso   1.000  C
  C127     1.0000 0.63630  0.09448  0.21217  Biso   1.000  C
  C128     1.0000 0.36370  0.09448  0.28783  Biso   1.000  C
  H89      1.0000 0.94090  0.41190  0.81050  Biso   1.000  H
  H90      1.0000 0.05910  0.41190  0.68950  Biso   1.000  H
  H91      1.0000 0.44090  0.91190  0.81050  Biso   1.000  H
  H92      1.0000 0.55910  0.91190  0.68950  Biso   1.000  H
  H93      1.0000 0.05910  0.58810  0.18950  Biso   1.000  H
  H94      1.0000 0.94090  0.58810  0.31050  Biso   1.000  H
  H95      1.0000 0.55910  0.08810  0.18950  Biso   1.000  H
  H96      1.0000 0.44090  0.08810  0.31050  Biso   1.000  H
  C129     1.0000 0.79670  0.46667  0.76171  Biso   1.000  C
  C130     1.0000 0.20330  0.46667  0.73829  Biso   1.000  C
  C131     1.0000 0.29670  0.96667  0.76171  Biso   1.000  C
  C132     1.0000 0.70330  0.96667  0.73829  Biso   1.000  C
  C133     1.0000 0.20330  0.53333  0.23829  Biso   1.000  C
  C134     1.0000 0.79670  0.53333  0.26171  Biso   1.000  C
  C135     1.0000 0.70330  0.03333  0.23829  Biso   1.000  C
  C136     1.0000 0.29670  0.03333  0.26171  Biso   1.000  C
  C137     1.0000 0.86020  0.53918  0.76108  Biso   1.000  C
  C138     1.0000 0.13980  0.53918  0.73892  Biso   1.000  C
  C139     1.0000 0.36020  0.03918  0.76108  Biso   1.000  C
  C140     1.0000 0.63980  0.03918  0.73892  Biso   1.000  C
  C141     1.0000 0.13980  0.46082  0.23892  Biso   1.000  C
  C142     1.0000 0.86020  0.46082  0.26108  Biso   1.000  C
  C143     1.0000 0.63980  0.96082  0.23892  Biso   1.000  C
  C144     1.0000 0.36020  0.96082  0.26108  Biso   1.000  C
  C145     1.0000 0.67880  0.45694  0.72917  Biso   1.000  C
  C146     1.0000 0.32120  0.45694  0.77083  Biso   1.000  C
  C147     1.0000 0.17880  0.95694  0.72917  Biso   1.000  C
  C148     1.0000 0.82120  0.95694  0.77083  Biso   1.000  C
  C149     1.0000 0.32120  0.54306  0.27083  Biso   1.000  C
  C150     1.0000 0.67880  0.54306  0.22917  Biso   1.000  C
  C151     1.0000 0.82120  0.04306  0.27083  Biso   1.000  C
  C152     1.0000 0.17880  0.04306  0.22917  Biso   1.000  C
  C153     1.0000 0.59670  0.52018  0.70722  Biso   1.000  C
  C154     1.0000 0.40330  0.52018  0.79278  Biso   1.000  C
  C155     1.0000 0.09670  0.02018  0.70722  Biso   1.000  C
  C156     1.0000 0.90330  0.02018  0.79278  Biso   1.000  C
  C157     1.0000 0.40330  0.47982  0.29278  Biso   1.000  C
  C158     1.0000 0.59670  0.47982  0.20722  Biso   1.000  C
  C159     1.0000 0.90330  0.97982  0.29278  Biso   1.000  C
  C160     1.0000 0.09670  0.97982  0.20722  Biso   1.000  C
  C161     1.0000 0.63170  0.38590  0.72166  Biso   1.000  C
  C162     1.0000 0.36830  0.38590  0.77834  Biso   1.000  C
  C163     1.0000 0.13170  0.88590  0.72166  Biso   1.000  C
  C164     1.0000 0.86830  0.88590  0.77834  Biso   1.000  C
  C165     1.0000 0.36830  0.61410  0.27834  Biso   1.000  C
  C166     1.0000 0.63170  0.61410  0.22166  Biso   1.000  C
  C167     1.0000 0.86830  0.11410  0.27834  Biso   1.000  C
  C168     1.0000 0.13170  0.11410  0.22166  Biso   1.000  C
  H97      1.0000 0.55430  0.37940  0.69940  Biso   1.000  H
  H98      1.0000 0.44570  0.37940  0.80060  Biso   1.000  H
  H99      1.0000 0.05430  0.87940  0.69940  Biso   1.000  H
  H100     1.0000 0.94570  0.87940  0.80060  Biso   1.000  H
  H101     1.0000 0.44570  0.62060  0.30060  Biso   1.000  H
  H102     1.0000 0.55430  0.62060  0.19940  Biso   1.000  H
  H103     1.0000 0.94570  0.12060  0.30060  Biso   1.000  H
  H104     1.0000 0.05430  0.12060  0.19940  Biso   1.000  H
  O65      1.0000 0.80270  0.31170  0.60380  Biso   1.000  O
  O66      1.0000 0.19730  0.31170  0.89620  Biso   1.000  O
  O67      1.0000 0.30270  0.81170  0.60380  Biso   1.000  O
  O68      1.0000 0.69730  0.81170  0.89620  Biso   1.000  O
  O69      1.0000 0.19730  0.68830  0.39620  Biso   1.000  O
  O70      1.0000 0.80270  0.68830  0.10380  Biso   1.000  O
  O71      1.0000 0.69730  0.18830  0.39620  Biso   1.000  O
  O72      1.0000 0.30270  0.18830  0.10380  Biso   1.000  O
  H105     1.0000 0.87180  0.29490  0.61610  Biso   1.000  H
  H106     1.0000 0.12820  0.29490  0.88390  Biso   1.000  H
  H107     1.0000 0.37180  0.79490  0.61610  Biso   1.000  H
  H108     1.0000 0.62820  0.79490  0.88390  Biso   1.000  H
  H109     1.0000 0.12820  0.70510  0.38390  Biso   1.000  H
  H110     1.0000 0.87180  0.70510  0.11610  Biso   1.000  H
  H111     1.0000 0.62820  0.20510  0.38390  Biso   1.000  H
  H112     1.0000 0.37180  0.20510  0.11610  Biso   1.000  H
  H113     1.0000 0.78280  0.27420  0.57920  Biso   1.000  H
  H114     1.0000 0.21720  0.27420  0.92080  Biso   1.000  H
  H115     1.0000 0.28280  0.77420  0.57920  Biso   1.000  H
  H116     1.0000 0.71720  0.77420  0.92080  Biso   1.000  H
  H117     1.0000 0.21720  0.72580  0.42080  Biso   1.000  H
  H118     1.0000 0.78280  0.72580  0.07920  Biso   1.000  H
  H119     1.0000 0.71720  0.22580  0.42080  Biso   1.000  H
  H120     1.0000 0.28280  0.22580  0.07920  Biso   1.000  H
