data_image0
_cell_length_a       8.301
_cell_length_b       14.844
_cell_length_c       13.089
_cell_angle_alpha    90
_cell_angle_beta     96.32
_cell_angle_gamma    90

_symmetry_space_group_name_H-M    "P 1"
_symmetry_int_tables_number       1

loop_
  _symmetry_equiv_pos_as_xyz
  'x, y, z'

loop_
  _atom_site_label
  _atom_site_occupancy
  _atom_site_fract_x
  _atom_site_fract_y
  _atom_site_fract_z
  _atom_site_thermal_displace_type
  _atom_site_B_iso_or_equiv
  _atom_site_type_symbol
  Cu1      1.0000 0.09837  0.14822  0.68973  Biso   1.000  Cu
  Cu2      1.0000 0.40163  0.64822  0.81027  Biso   1.000  Cu
  Cu3      1.0000 0.90163  0.85178  0.31027  Biso   1.000  Cu
  Cu4      1.0000 0.59837  0.35178  0.18973  Biso   1.000  Cu
  N1       1.0000 0.90580  0.18270  0.58620  Biso   1.000  N
  N2       1.0000 0.59420  0.68270  0.91380  Biso   1.000  N
  N3       1.0000 0.09420  0.81730  0.41380  Biso   1.000  N
  N4       1.0000 0.40580  0.31730  0.08620  Biso   1.000  N
  N5       1.0000 0.83810  0.14220  0.51630  Biso   1.000  N
  N6       1.0000 0.66190  0.64220  0.98370  Biso   1.000  N
  N7       1.0000 0.16190  0.85780  0.48370  Biso   1.000  N
  N8       1.0000 0.33810  0.35780  0.01630  Biso   1.000  N
  N9       1.0000 0.76790  0.10740  0.44700  Biso   1.000  N
  N10      1.0000 0.73210  0.60740  0.05300  Biso   1.000  N
  N11      1.0000 0.23210  0.89260  0.55300  Biso   1.000  N
  N12      1.0000 0.26790  0.39260  0.94700  Biso   1.000  N
  N13      1.0000 0.21500  0.10230  0.57300  Biso   1.000  N
  N14      1.0000 0.28500  0.60230  0.92700  Biso   1.000  N
  N15      1.0000 0.78500  0.89770  0.42700  Biso   1.000  N
  N16      1.0000 0.71500  0.39770  0.07300  Biso   1.000  N
  C1       1.0000 0.39060  0.11880  0.57530  Biso   1.000  C
  C2       1.0000 0.10940  0.61880  0.92470  Biso   1.000  C
  C3       1.0000 0.60940  0.88120  0.42470  Biso   1.000  C
  C4       1.0000 0.89060  0.38120  0.07530  Biso   1.000  C
  H1       1.0000 0.41030  0.18320  0.57480  Biso   1.000  H
  H2       1.0000 0.08970  0.68320  0.92520  Biso   1.000  H
  H3       1.0000 0.58970  0.81680  0.42520  Biso   1.000  H
  H4       1.0000 0.91030  0.31680  0.07480  Biso   1.000  H
  H5       1.0000 0.42880  0.09320  0.51410  Biso   1.000  H
  H6       1.0000 0.07120  0.59320  0.98590  Biso   1.000  H
  H7       1.0000 0.57120  0.90680  0.48590  Biso   1.000  H
  H8       1.0000 0.92880  0.40680  0.01410  Biso   1.000  H
  C5       1.0000 0.48390  0.07780  0.66930  Biso   1.000  C
  C6       1.0000 0.01610  0.57780  0.83070  Biso   1.000  C
  C7       1.0000 0.51610  0.92220  0.33070  Biso   1.000  C
  C8       1.0000 0.98390  0.42220  0.16930  Biso   1.000  C
  H9       1.0000 0.46130  0.01370  0.66970  Biso   1.000  H
  H10      1.0000 0.03870  0.51370  0.83030  Biso   1.000  H
  H11      1.0000 0.53870  0.98630  0.33030  Biso   1.000  H
  H12      1.0000 0.96130  0.48630  0.16970  Biso   1.000  H
  H13      1.0000 0.59880  0.08510  0.66400  Biso   1.000  H
  H14      1.0000 0.90120  0.58510  0.83600  Biso   1.000  H
  H15      1.0000 0.40120  0.91490  0.33600  Biso   1.000  H
  H16      1.0000 0.09880  0.41490  0.16400  Biso   1.000  H
  C9       1.0000 0.44720  0.11660  0.76900  Biso   1.000  C
  C10      1.0000 0.05280  0.61660  0.73100  Biso   1.000  C
  C11      1.0000 0.55280  0.88340  0.23100  Biso   1.000  C
  C12      1.0000 0.94720  0.38340  0.26900  Biso   1.000  C
  H17      1.0000 0.46090  0.18140  0.76610  Biso   1.000  H
  H18      1.0000 0.03910  0.68140  0.73390  Biso   1.000  H
  H19      1.0000 0.53910  0.81860  0.23390  Biso   1.000  H
  H20      1.0000 0.96090  0.31860  0.26610  Biso   1.000  H
  H21      1.0000 0.52670  0.09400  0.82280  Biso   1.000  H
  H22      1.0000 0.97330  0.59400  0.67720  Biso   1.000  H
  H23      1.0000 0.47330  0.90600  0.17720  Biso   1.000  H
  H24      1.0000 0.02670  0.40600  0.32280  Biso   1.000  H
  N17      1.0000 0.27920  0.09720  0.79950  Biso   1.000  N
  N18      1.0000 0.22080  0.59720  0.70050  Biso   1.000  N
  N19      1.0000 0.72080  0.90280  0.20050  Biso   1.000  N
  N20      1.0000 0.77920  0.40280  0.29950  Biso   1.000  N
  C13      1.0000 0.27520  0.14180  0.90150  Biso   1.000  C
  C14      1.0000 0.22480  0.64180  0.59850  Biso   1.000  C
  C15      1.0000 0.72480  0.85820  0.09850  Biso   1.000  C
  C16      1.0000 0.77520  0.35820  0.40150  Biso   1.000  C
  H25      1.0000 0.29480  0.20570  0.89330  Biso   1.000  H
  H26      1.0000 0.20520  0.70570  0.60670  Biso   1.000  H
  H27      1.0000 0.70520  0.79430  0.10670  Biso   1.000  H
  H28      1.0000 0.79480  0.29430  0.39330  Biso   1.000  H
  H29      1.0000 0.36370  0.11820  0.94840  Biso   1.000  H
  H30      1.0000 0.13630  0.61820  0.55160  Biso   1.000  H
  H31      1.0000 0.63630  0.88180  0.05160  Biso   1.000  H
  H32      1.0000 0.86370  0.38180  0.44840  Biso   1.000  H
  C17      1.0000 0.12000  0.13090  0.95050  Biso   1.000  C
  C18      1.0000 0.38000  0.63090  0.54950  Biso   1.000  C
  C19      1.0000 0.88000  0.86910  0.04950  Biso   1.000  C
  C20      1.0000 0.62000  0.36910  0.45050  Biso   1.000  C
  H33      1.0000 0.09210  0.06740  0.95040  Biso   1.000  H
  H34      1.0000 0.40790  0.56740  0.54960  Biso   1.000  H
  H35      1.0000 0.90790  0.93260  0.04960  Biso   1.000  H
  H36      1.0000 0.59210  0.43260  0.45040  Biso   1.000  H
  H37      1.0000 0.13920  0.15020  0.02160  Biso   1.000  H
  H38      1.0000 0.36080  0.65020  0.47840  Biso   1.000  H
  H39      1.0000 0.86080  0.84980  0.97840  Biso   1.000  H
  H40      1.0000 0.63920  0.34980  0.52160  Biso   1.000  H
  C21      1.0000 0.97770  0.18270  0.89870  Biso   1.000  C
  C22      1.0000 0.52230  0.68270  0.60130  Biso   1.000  C
  C23      1.0000 0.02230  0.81730  0.10130  Biso   1.000  C
  C24      1.0000 0.47770  0.31730  0.39870  Biso   1.000  C
  H41      1.0000 0.88580  0.17560  0.93780  Biso   1.000  H
  H42      1.0000 0.61420  0.67560  0.56220  Biso   1.000  H
  H43      1.0000 0.11420  0.82440  0.06220  Biso   1.000  H
  H44      1.0000 0.38580  0.32440  0.43780  Biso   1.000  H
  H45      1.0000 0.00480  0.24630  0.89790  Biso   1.000  H
  H46      1.0000 0.49520  0.74630  0.60210  Biso   1.000  H
  H47      1.0000 0.99520  0.75370  0.10210  Biso   1.000  H
  H48      1.0000 0.50480  0.25370  0.39790  Biso   1.000  H
  N21      1.0000 0.93260  0.15190  0.79330  Biso   1.000  N
  N22      1.0000 0.56740  0.65190  0.70670  Biso   1.000  N
  N23      1.0000 0.06740  0.84810  0.20670  Biso   1.000  N
  N24      1.0000 0.43260  0.34810  0.29330  Biso   1.000  N
  C25      1.0000 0.24870  0.99820  0.80720  Biso   1.000  C
  C26      1.0000 0.25130  0.49820  0.69280  Biso   1.000  C
  C27      1.0000 0.75130  0.00180  0.19280  Biso   1.000  C
  C28      1.0000 0.74870  0.50180  0.30720  Biso   1.000  C
  H49      1.0000 0.25650  0.97150  0.74020  Biso   1.000  H
  H50      1.0000 0.24350  0.47150  0.75980  Biso   1.000  H
  H51      1.0000 0.74350  0.02850  0.25980  Biso   1.000  H
  H52      1.0000 0.75650  0.52850  0.24020  Biso   1.000  H
  H53      1.0000 0.13820  0.98980  0.82290  Biso   1.000  H
  H54      1.0000 0.36180  0.48980  0.67710  Biso   1.000  H
  H55      1.0000 0.86180  0.01020  0.17710  Biso   1.000  H
  H56      1.0000 0.63820  0.51020  0.32290  Biso   1.000  H
  C29      1.0000 0.36170  0.94600  0.88690  Biso   1.000  C
  C30      1.0000 0.13830  0.44600  0.61310  Biso   1.000  C
  C31      1.0000 0.63830  0.05400  0.11310  Biso   1.000  C
  C32      1.0000 0.86170  0.55400  0.38690  Biso   1.000  C
  H57      1.0000 0.47290  0.95290  0.87200  Biso   1.000  H
  H58      1.0000 0.02710  0.45290  0.62800  Biso   1.000  H
  H59      1.0000 0.52710  0.04710  0.12800  Biso   1.000  H
  H60      1.0000 0.97290  0.54710  0.37200  Biso   1.000  H
  H61      1.0000 0.35330  0.97050  0.95480  Biso   1.000  H
  H62      1.0000 0.14670  0.47050  0.54520  Biso   1.000  H
  H63      1.0000 0.64670  0.02950  0.04520  Biso   1.000  H
  H64      1.0000 0.85330  0.52950  0.45480  Biso   1.000  H
  C33      1.0000 0.31660  0.84600  0.88510  Biso   1.000  C
  C34      1.0000 0.18340  0.34600  0.61490  Biso   1.000  C
  C35      1.0000 0.68340  0.15400  0.11490  Biso   1.000  C
  C36      1.0000 0.81660  0.65400  0.38510  Biso   1.000  C
  H65      1.0000 0.37940  0.81660  0.94240  Biso   1.000  H
  H66      1.0000 0.12060  0.31660  0.55760  Biso   1.000  H
  H67      1.0000 0.62060  0.18340  0.05760  Biso   1.000  H
  H68      1.0000 0.87940  0.68340  0.44240  Biso   1.000  H
  H69      1.0000 0.20320  0.84080  0.89570  Biso   1.000  H
  H70      1.0000 0.29680  0.34080  0.60430  Biso   1.000  H
  H71      1.0000 0.79680  0.15920  0.10430  Biso   1.000  H
  H72      1.0000 0.70320  0.65920  0.39570  Biso   1.000  H
  N25      1.0000 0.34200  0.79850  0.79220  Biso   1.000  N
  N26      1.0000 0.15800  0.29850  0.70780  Biso   1.000  N
  N27      1.0000 0.65800  0.20150  0.20780  Biso   1.000  N
  N28      1.0000 0.84200  0.70150  0.29220  Biso   1.000  N
  H73      1.0000 0.24360  0.80530  0.74980  Biso   1.000  H
  H74      1.0000 0.25640  0.30530  0.75020  Biso   1.000  H
  H75      1.0000 0.75640  0.19470  0.25020  Biso   1.000  H
  H76      1.0000 0.74360  0.69470  0.24980  Biso   1.000  H
  H77      1.0000 0.43130  0.82470  0.76520  Biso   1.000  H
  H78      1.0000 0.06870  0.32470  0.73480  Biso   1.000  H
  H79      1.0000 0.56870  0.17530  0.23480  Biso   1.000  H
  H80      1.0000 0.93130  0.67530  0.26520  Biso   1.000  H
  H81      1.0000 0.19100  0.03820  0.57410  Biso   1.000  H
  H82      1.0000 0.30900  0.53820  0.92590  Biso   1.000  H
  H83      1.0000 0.80900  0.96180  0.42590  Biso   1.000  H
  H84      1.0000 0.69100  0.46180  0.07410  Biso   1.000  H
  H85      1.0000 0.88340  0.09370  0.79660  Biso   1.000  H
  H86      1.0000 0.61660  0.59370  0.70340  Biso   1.000  H
  H87      1.0000 0.11660  0.90630  0.20340  Biso   1.000  H
  H88      1.0000 0.38340  0.40630  0.29660  Biso   1.000  H
  H89      1.0000 0.85020  0.19160  0.76200  Biso   1.000  H
  H90      1.0000 0.64980  0.69160  0.73800  Biso   1.000  H
  H91      1.0000 0.14980  0.80840  0.23800  Biso   1.000  H
  H92      1.0000 0.35020  0.30840  0.26200  Biso   1.000  H
  H93      1.0000 0.15430  0.12340  0.51070  Biso   1.000  H
  H94      1.0000 0.34570  0.62340  0.98930  Biso   1.000  H
  H95      1.0000 0.84570  0.87660  0.48930  Biso   1.000  H
  H96      1.0000 0.65430  0.37660  0.01070  Biso   1.000  H
  Cl1      1.0000 0.82310  0.89217  0.73428  Biso   1.000  Cl
  Cl2      1.0000 0.67690  0.39217  0.76572  Biso   1.000  Cl
  Cl3      1.0000 0.17690  0.10783  0.26572  Biso   1.000  Cl
  Cl4      1.0000 0.32310  0.60783  0.23428  Biso   1.000  Cl
  O1       1.0000 0.66870  0.86200  0.70020  Biso   1.000  O
  O2       1.0000 0.83130  0.36200  0.79980  Biso   1.000  O
  O3       1.0000 0.33130  0.13800  0.29980  Biso   1.000  O
  O4       1.0000 0.16870  0.63800  0.20020  Biso   1.000  O
  O5       1.0000 0.80200  0.95830  0.81750  Biso   1.000  O
  O6       1.0000 0.69800  0.45830  0.68250  Biso   1.000  O
  O7       1.0000 0.19800  0.04170  0.18250  Biso   1.000  O
  O8       1.0000 0.30200  0.54170  0.31750  Biso   1.000  O
  O9       1.0000 0.87900  0.95260  0.66030  Biso   1.000  O
  O10      1.0000 0.62100  0.45260  0.83970  Biso   1.000  O
  O11      1.0000 0.12100  0.04740  0.33970  Biso   1.000  O
  O12      1.0000 0.37900  0.54740  0.16030  Biso   1.000  O
  O13      1.0000 0.93290  0.83390  0.77900  Biso   1.000  O
  O14      1.0000 0.56710  0.33390  0.72100  Biso   1.000  O
  O15      1.0000 0.06710  0.16610  0.22100  Biso   1.000  O
  O16      1.0000 0.43290  0.66610  0.27900  Biso   1.000  O
