data_image0
_cell_length_a       10.015
_cell_length_b       16.727
_cell_length_c       13.349
_cell_angle_alpha    90
_cell_angle_beta     118.27
_cell_angle_gamma    90

_symmetry_space_group_name_H-M    "P 1"
_symmetry_int_tables_number       1

loop_
  _symmetry_equiv_pos_as_xyz
  'x, y, z'

loop_
  _atom_site_label
  _atom_site_occupancy
  _atom_site_fract_x
  _atom_site_fract_y
  _atom_site_fract_z
  _atom_site_thermal_displace_type
  _atom_site_B_iso_or_equiv
  _atom_site_type_symbol
  Cu1      1.0000 0.66060  0.70030  0.27660  Biso   1.000  Cu
  Cu2      1.0000 0.33940  0.20030  0.22340  Biso   1.000  Cu
  Cu3      1.0000 0.33940  0.29970  0.72340  Biso   1.000  Cu
  Cu4      1.0000 0.66060  0.79970  0.77660  Biso   1.000  Cu
  O1       1.0000 0.39340  0.71568  0.35140  Biso   1.000  O
  O2       1.0000 0.60660  0.21568  0.14860  Biso   1.000  O
  O3       1.0000 0.60660  0.28432  0.64860  Biso   1.000  O
  O4       1.0000 0.39340  0.78432  0.85140  Biso   1.000  O
  O5       1.0000 0.44120  0.69044  0.20876  Biso   1.000  O
  O6       1.0000 0.55880  0.19044  0.29124  Biso   1.000  O
  O7       1.0000 0.55880  0.30956  0.79124  Biso   1.000  O
  O8       1.0000 0.44120  0.80956  0.70876  Biso   1.000  O
  O9       1.0000 0.85200  0.69770  0.26990  Biso   1.000  O
  O10      1.0000 0.14800  0.19770  0.23010  Biso   1.000  O
  O11      1.0000 0.14800  0.30230  0.73010  Biso   1.000  O
  O12      1.0000 0.85200  0.80230  0.76990  Biso   1.000  O
  O13      1.0000 0.68680  0.63029  0.12080  Biso   1.000  O
  O14      1.0000 0.31320  0.13029  0.37920  Biso   1.000  O
  O15      1.0000 0.31320  0.36971  0.87920  Biso   1.000  O
  O16      1.0000 0.68680  0.86971  0.62080  Biso   1.000  O
  N1       1.0000 0.64600  0.81714  0.25770  Biso   1.000  N
  N2       1.0000 0.35400  0.31714  0.24230  Biso   1.000  N
  N3       1.0000 0.35400  0.18286  0.74230  Biso   1.000  N
  N4       1.0000 0.64600  0.68286  0.75770  Biso   1.000  N
  N5       1.0000 0.56510  0.93899  0.25560  Biso   1.000  N
  N6       1.0000 0.43490  0.43899  0.24440  Biso   1.000  N
  N7       1.0000 0.43490  0.06101  0.74440  Biso   1.000  N
  N8       1.0000 0.56510  0.56101  0.75560  Biso   1.000  N
  N9       1.0000 0.28700  0.10101  0.13010  Biso   1.000  N
  N10      1.0000 0.71300  0.60101  0.36990  Biso   1.000  N
  N11      1.0000 0.71300  0.89899  0.86990  Biso   1.000  N
  N12      1.0000 0.28700  0.39899  0.63010  Biso   1.000  N
  N13      1.0000 0.28060  0.97847  0.06640  Biso   1.000  N
  N14      1.0000 0.71940  0.47847  0.43360  Biso   1.000  N
  N15      1.0000 0.71940  0.02153  0.93360  Biso   1.000  N
  N16      1.0000 0.28060  0.52153  0.56640  Biso   1.000  N
  H1       1.0000 0.30570  0.92950  0.06480  Biso   1.000  H
  H2       1.0000 0.69430  0.42950  0.43520  Biso   1.000  H
  H3       1.0000 0.69430  0.07050  0.93520  Biso   1.000  H
  H4       1.0000 0.30570  0.57050  0.56480  Biso   1.000  H
  C1       1.0000 0.55630  0.86283  0.28060  Biso   1.000  C
  C2       1.0000 0.44370  0.36283  0.21940  Biso   1.000  C
  C3       1.0000 0.44370  0.13717  0.71940  Biso   1.000  C
  C4       1.0000 0.55630  0.63717  0.78060  Biso   1.000  C
  H5       1.0000 0.49490  0.84420  0.31030  Biso   1.000  H
  H6       1.0000 0.50510  0.34420  0.18970  Biso   1.000  H
  H7       1.0000 0.50510  0.15580  0.68970  Biso   1.000  H
  H8       1.0000 0.49490  0.65580  0.81030  Biso   1.000  H
  C5       1.0000 0.71610  0.86820  0.21610  Biso   1.000  C
  C6       1.0000 0.28390  0.36820  0.28390  Biso   1.000  C
  C7       1.0000 0.28390  0.13180  0.78390  Biso   1.000  C
  C8       1.0000 0.71610  0.63180  0.71610  Biso   1.000  C
  H9       1.0000 0.78690  0.85330  0.19320  Biso   1.000  H
  H10      1.0000 0.21310  0.35330  0.30680  Biso   1.000  H
  H11      1.0000 0.21310  0.14670  0.80680  Biso   1.000  H
  H12      1.0000 0.78690  0.64670  0.69320  Biso   1.000  H
  C9       1.0000 0.66610  0.94302  0.21390  Biso   1.000  C
  C10      1.0000 0.33390  0.44302  0.28610  Biso   1.000  C
  C11      1.0000 0.33390  0.05698  0.78610  Biso   1.000  C
  C12      1.0000 0.66610  0.55698  0.71390  Biso   1.000  C
  H13      1.0000 0.69460  0.98860  0.18890  Biso   1.000  H
  H14      1.0000 0.30540  0.48860  0.31110  Biso   1.000  H
  H15      1.0000 0.30540  0.01140  0.81110  Biso   1.000  H
  H16      1.0000 0.69460  0.51140  0.68890  Biso   1.000  H
  C13      1.0000 0.47630  0.00466  0.26670  Biso   1.000  C
  C14      1.0000 0.52370  0.50466  0.23330  Biso   1.000  C
  C15      1.0000 0.52370  0.99534  0.73330  Biso   1.000  C
  C16      1.0000 0.47630  0.49534  0.76670  Biso   1.000  C
  H17      1.0000 0.54230  0.05000  0.30230  Biso   1.000  H
  H18      1.0000 0.45770  0.55000  0.19770  Biso   1.000  H
  H19      1.0000 0.45770  0.95000  0.69770  Biso   1.000  H
  H20      1.0000 0.54230  0.45000  0.80230  Biso   1.000  H
  H21      1.0000 0.43390  0.98800  0.31530  Biso   1.000  H
  H22      1.0000 0.56610  0.48800  0.18470  Biso   1.000  H
  H23      1.0000 0.56610  0.01200  0.68470  Biso   1.000  H
  H24      1.0000 0.43390  0.51200  0.81530  Biso   1.000  H
  C17      1.0000 0.35060  0.02948  0.15350  Biso   1.000  C
  C18      1.0000 0.64940  0.52948  0.34650  Biso   1.000  C
  C19      1.0000 0.64940  0.97052  0.84650  Biso   1.000  C
  C20      1.0000 0.35060  0.47052  0.65350  Biso   1.000  C
  C21      1.0000 0.16470  0.09543  0.02030  Biso   1.000  C
  C22      1.0000 0.83530  0.59543  0.47970  Biso   1.000  C
  C23      1.0000 0.83530  0.90457  0.97970  Biso   1.000  C
  C24      1.0000 0.16470  0.40457  0.52030  Biso   1.000  C
  C25      1.0000 0.05510  0.15107  0.95360  Biso   1.000  C
  C26      1.0000 0.94490  0.65107  0.54640  Biso   1.000  C
  C27      1.0000 0.94490  0.84893  0.04640  Biso   1.000  C
  C28      1.0000 0.05510  0.34893  0.45360  Biso   1.000  C
  H25      1.0000 0.05440  0.20250  0.97990  Biso   1.000  H
  H26      1.0000 0.94560  0.70250  0.52010  Biso   1.000  H
  H27      1.0000 0.94560  0.79750  0.02010  Biso   1.000  H
  H28      1.0000 0.05440  0.29750  0.47990  Biso   1.000  H
  C29      1.0000 0.94740  0.12670  0.84690  Biso   1.000  C
  C30      1.0000 0.05260  0.62670  0.65310  Biso   1.000  C
  C31      1.0000 0.05260  0.87330  0.15310  Biso   1.000  C
  C32      1.0000 0.94740  0.37330  0.34690  Biso   1.000  C
  H29      1.0000 0.87370  0.16290  0.80020  Biso   1.000  H
  H30      1.0000 0.12630  0.66290  0.69980  Biso   1.000  H
  H31      1.0000 0.12630  0.83710  0.19980  Biso   1.000  H
  H32      1.0000 0.87370  0.33710  0.30020  Biso   1.000  H
  C33      1.0000 0.94580  0.04950  0.80680  Biso   1.000  C
  C34      1.0000 0.05420  0.54950  0.69320  Biso   1.000  C
  C35      1.0000 0.05420  0.95050  0.19320  Biso   1.000  C
  C36      1.0000 0.94580  0.45050  0.30680  Biso   1.000  C
  H33      1.0000 0.87140  0.03540  0.73430  Biso   1.000  H
  H34      1.0000 0.12860  0.53540  0.76570  Biso   1.000  H
  H35      1.0000 0.12860  0.96460  0.26570  Biso   1.000  H
  H36      1.0000 0.87140  0.46460  0.23430  Biso   1.000  H
  C37      1.0000 0.05270  0.99370  0.87300  Biso   1.000  C
  C38      1.0000 0.94730  0.49370  0.62700  Biso   1.000  C
  C39      1.0000 0.94730  0.00630  0.12700  Biso   1.000  C
  C40      1.0000 0.05270  0.50630  0.37300  Biso   1.000  C
  H37      1.0000 0.05170  0.94200  0.84720  Biso   1.000  H
  H38      1.0000 0.94830  0.44200  0.65280  Biso   1.000  H
  H39      1.0000 0.94830  0.05800  0.15280  Biso   1.000  H
  H40      1.0000 0.05170  0.55800  0.34720  Biso   1.000  H
  C41      1.0000 0.16140  0.01820  0.97970  Biso   1.000  C
  C42      1.0000 0.83860  0.51820  0.52030  Biso   1.000  C
  C43      1.0000 0.83860  0.98180  0.02030  Biso   1.000  C
  C44      1.0000 0.16140  0.48180  0.47970  Biso   1.000  C
  C45      1.0000 0.35400  0.69218  0.25430  Biso   1.000  C
  C46      1.0000 0.64600  0.19218  0.24570  Biso   1.000  C
  C47      1.0000 0.64600  0.30782  0.74570  Biso   1.000  C
  C48      1.0000 0.35400  0.80782  0.75430  Biso   1.000  C
  C49      1.0000 0.19450  0.66370  0.17870  Biso   1.000  C
  C50      1.0000 0.80550  0.16370  0.32130  Biso   1.000  C
  C51      1.0000 0.80550  0.33630  0.82130  Biso   1.000  C
  C52      1.0000 0.19450  0.83630  0.67870  Biso   1.000  C
  C53      1.0000 0.15560  0.62980  0.07330  Biso   1.000  C
  C54      1.0000 0.84440  0.12980  0.42670  Biso   1.000  C
  C55      1.0000 0.84440  0.37020  0.92670  Biso   1.000  C
  C56      1.0000 0.15560  0.87020  0.57330  Biso   1.000  C
  H41      1.0000 0.22800  0.62520  0.04870  Biso   1.000  H
  H42      1.0000 0.77200  0.12520  0.45130  Biso   1.000  H
  H43      1.0000 0.77200  0.37480  0.95130  Biso   1.000  H
  H44      1.0000 0.22800  0.87480  0.54870  Biso   1.000  H
  C57      1.0000 0.00940  0.60300  0.00500  Biso   1.000  C
  C58      1.0000 0.99060  0.10300  0.49500  Biso   1.000  C
  C59      1.0000 0.99060  0.39700  0.99500  Biso   1.000  C
  C60      1.0000 0.00940  0.89700  0.50500  Biso   1.000  C
  H45      1.0000 0.98410  0.57980  0.93490  Biso   1.000  H
  H46      1.0000 0.01590  0.07980  0.56510  Biso   1.000  H
  H47      1.0000 0.01590  0.42020  0.06510  Biso   1.000  H
  H48      1.0000 0.98410  0.92020  0.43490  Biso   1.000  H
  C61      1.0000 0.90060  0.61050  0.04040  Biso   1.000  C
  C62      1.0000 0.09940  0.11050  0.45960  Biso   1.000  C
  C63      1.0000 0.09940  0.38950  0.95960  Biso   1.000  C
  C64      1.0000 0.90060  0.88950  0.54040  Biso   1.000  C
  H49      1.0000 0.80290  0.59160  0.99450  Biso   1.000  H
  H50      1.0000 0.19710  0.09160  0.50550  Biso   1.000  H
  H51      1.0000 0.19710  0.40840  0.00550  Biso   1.000  H
  H52      1.0000 0.80290  0.90840  0.49450  Biso   1.000  H
  C65      1.0000 0.93660  0.64602  0.14370  Biso   1.000  C
  C66      1.0000 0.06340  0.14602  0.35630  Biso   1.000  C
  C67      1.0000 0.06340  0.35398  0.85630  Biso   1.000  C
  C68      1.0000 0.93660  0.85398  0.64370  Biso   1.000  C
  C69      1.0000 0.08360  0.67217  0.21290  Biso   1.000  C
  C70      1.0000 0.91640  0.17217  0.28710  Biso   1.000  C
  C71      1.0000 0.91640  0.32783  0.78710  Biso   1.000  C
  C72      1.0000 0.08360  0.82783  0.71290  Biso   1.000  C
  H53      1.0000 0.10840  0.69560  0.28280  Biso   1.000  H
  H54      1.0000 0.89160  0.19560  0.21720  Biso   1.000  H
  H55      1.0000 0.89160  0.30440  0.71720  Biso   1.000  H
  H56      1.0000 0.10840  0.80440  0.78280  Biso   1.000  H
  C73      1.0000 0.81610  0.65840  0.17930  Biso   1.000  C
  C74      1.0000 0.18390  0.15840  0.32070  Biso   1.000  C
  C75      1.0000 0.18390  0.34160  0.82070  Biso   1.000  C
  C76      1.0000 0.81610  0.84160  0.67930  Biso   1.000  C
  O17      1.0000 0.31940  0.82005  0.02360  Biso   1.000  O
  O18      1.0000 0.68060  0.32005  0.47640  Biso   1.000  O
  O19      1.0000 0.68060  0.17995  0.97640  Biso   1.000  O
  O20      1.0000 0.31940  0.67995  0.52360  Biso   1.000  O
  H57      1.0000 0.33590  0.81210  0.97560  Biso   1.000  H
  H58      1.0000 0.66410  0.31210  0.52440  Biso   1.000  H
  H59      1.0000 0.66410  0.18790  0.02440  Biso   1.000  H
  H60      1.0000 0.33590  0.68790  0.47560  Biso   1.000  H
  H61      1.0000 0.34830  0.76820  0.05840  Biso   1.000  H
  H62      1.0000 0.65170  0.26820  0.44160  Biso   1.000  H
  H63      1.0000 0.65170  0.23180  0.94160  Biso   1.000  H
  H64      1.0000 0.34830  0.73180  0.55840  Biso   1.000  H
  O21      1.0000 0.38880  0.88710  0.44330  Biso   1.000  O
  O22      1.0000 0.61120  0.38710  0.05670  Biso   1.000  O
  O23      1.0000 0.61120  0.11290  0.55670  Biso   1.000  O
  O24      1.0000 0.38880  0.61290  0.94330  Biso   1.000  O
  H65      1.0000 0.39020  0.84060  0.41830  Biso   1.000  H
  H66      1.0000 0.60980  0.34060  0.08170  Biso   1.000  H
  H67      1.0000 0.60980  0.15940  0.58170  Biso   1.000  H
  H68      1.0000 0.39020  0.65940  0.91830  Biso   1.000  H
  H69      1.0000 0.48600  0.88600  0.49560  Biso   1.000  H
  H70      1.0000 0.51400  0.38600  0.00440  Biso   1.000  H
  H71      1.0000 0.51400  0.11400  0.50440  Biso   1.000  H
  H72      1.0000 0.48600  0.61400  0.99560  Biso   1.000  H
