data_image0
_cell_length_a       9.4939
_cell_length_b       20.064
_cell_length_c       12.907
_cell_angle_alpha    90
_cell_angle_beta     108.23
_cell_angle_gamma    90

_symmetry_space_group_name_H-M    "P 1"
_symmetry_int_tables_number       1

loop_
  _symmetry_equiv_pos_as_xyz
  'x, y, z'

loop_
  _atom_site_label
  _atom_site_occupancy
  _atom_site_fract_x
  _atom_site_fract_y
  _atom_site_fract_z
  _atom_site_thermal_displace_type
  _atom_site_B_iso_or_equiv
  _atom_site_type_symbol
  Cu1      1.0000 0.07358  0.98443  0.19968  Biso   1.000  Cu
  Cu2      1.0000 0.92642  0.48443  0.30032  Biso   1.000  Cu
  Cu3      1.0000 0.92642  0.01557  0.80032  Biso   1.000  Cu
  Cu4      1.0000 0.07358  0.51557  0.69968  Biso   1.000  Cu
  N1       1.0000 0.88160  0.00556  0.08756  Biso   1.000  N
  N2       1.0000 0.11840  0.50556  0.41244  Biso   1.000  N
  N3       1.0000 0.11840  0.99444  0.91244  Biso   1.000  N
  N4       1.0000 0.88160  0.49444  0.58756  Biso   1.000  N
  N5       1.0000 0.69070  0.99700  0.93950  Biso   1.000  N
  N6       1.0000 0.30930  0.49700  0.56050  Biso   1.000  N
  N7       1.0000 0.30930  0.00300  0.06050  Biso   1.000  N
  N8       1.0000 0.69070  0.50300  0.43950  Biso   1.000  N
  N9       1.0000 0.71310  0.02758  0.71438  Biso   1.000  N
  N10      1.0000 0.28690  0.52758  0.78562  Biso   1.000  N
  N11      1.0000 0.28690  0.97242  0.28562  Biso   1.000  N
  N12      1.0000 0.71310  0.47242  0.21438  Biso   1.000  N
  N13      1.0000 0.46800  0.03279  0.66690  Biso   1.000  N
  N14      1.0000 0.53200  0.53279  0.83310  Biso   1.000  N
  N15      1.0000 0.53200  0.96721  0.33310  Biso   1.000  N
  N16      1.0000 0.46800  0.46721  0.16690  Biso   1.000  N
  H1       1.0000 0.37940  0.02720  0.66970  Biso   1.000  H
  H2       1.0000 0.62060  0.52720  0.83030  Biso   1.000  H
  H3       1.0000 0.62060  0.97280  0.33030  Biso   1.000  H
  H4       1.0000 0.37940  0.47280  0.16970  Biso   1.000  H
  O1       1.0000 0.04640  0.05499  0.29529  Biso   1.000  O
  O2       1.0000 0.95360  0.55499  0.20471  Biso   1.000  O
  O3       1.0000 0.95360  0.94501  0.70471  Biso   1.000  O
  O4       1.0000 0.04640  0.44501  0.79529  Biso   1.000  O
  O5       1.0000 0.14130  0.12519  0.20148  Biso   1.000  O
  O6       1.0000 0.85870  0.62519  0.29852  Biso   1.000  O
  O7       1.0000 0.85870  0.87481  0.79852  Biso   1.000  O
  O8       1.0000 0.14130  0.37481  0.70148  Biso   1.000  O
  O9       1.0000 0.04770  0.37114  0.24755  Biso   1.000  O
  O10      1.0000 0.95230  0.87114  0.25245  Biso   1.000  O
  O11      1.0000 0.95230  0.62886  0.75245  Biso   1.000  O
  O12      1.0000 0.04770  0.12886  0.74755  Biso   1.000  O
  O13      1.0000 0.92830  0.39655  0.36533  Biso   1.000  O
  O14      1.0000 0.07170  0.89655  0.13467  Biso   1.000  O
  O15      1.0000 0.07170  0.60345  0.63467  Biso   1.000  O
  O16      1.0000 0.92830  0.10345  0.86533  Biso   1.000  O
  C1       1.0000 0.81920  0.96962  0.99920  Biso   1.000  C
  C2       1.0000 0.18080  0.46962  0.50080  Biso   1.000  C
  C3       1.0000 0.18080  0.03038  0.00080  Biso   1.000  C
  C4       1.0000 0.81920  0.53038  0.49920  Biso   1.000  C
  H5       1.0000 0.85910  0.93070  0.98100  Biso   1.000  H
  H6       1.0000 0.14090  0.43070  0.51900  Biso   1.000  H
  H7       1.0000 0.14090  0.06930  0.01900  Biso   1.000  H
  H8       1.0000 0.85910  0.56930  0.48100  Biso   1.000  H
  C5       1.0000 0.78690  0.05843  0.08240  Biso   1.000  C
  C6       1.0000 0.21310  0.55843  0.41760  Biso   1.000  C
  C7       1.0000 0.21310  0.94157  0.91760  Biso   1.000  C
  C8       1.0000 0.78690  0.44157  0.58240  Biso   1.000  C
  H9       1.0000 0.80210  0.09240  0.13380  Biso   1.000  H
  H10      1.0000 0.19790  0.59240  0.36620  Biso   1.000  H
  H11      1.0000 0.19790  0.90760  0.86620  Biso   1.000  H
  H12      1.0000 0.80210  0.40760  0.63380  Biso   1.000  H
  C9       1.0000 0.66900  0.05342  0.99170  Biso   1.000  C
  C10      1.0000 0.33100  0.55342  0.50830  Biso   1.000  C
  C11      1.0000 0.33100  0.94658  0.00830  Biso   1.000  C
  C12      1.0000 0.66900  0.44658  0.49170  Biso   1.000  C
  H13      1.0000 0.58890  0.08250  0.96920  Biso   1.000  H
  H14      1.0000 0.41110  0.58250  0.53080  Biso   1.000  H
  H15      1.0000 0.41110  0.91750  0.03080  Biso   1.000  H
  H16      1.0000 0.58890  0.41750  0.46920  Biso   1.000  H
  C13      1.0000 0.59270  0.97014  0.83650  Biso   1.000  C
  C14      1.0000 0.40730  0.47014  0.66350  Biso   1.000  C
  C15      1.0000 0.40730  0.02986  0.16350  Biso   1.000  C
  C16      1.0000 0.59270  0.52986  0.33650  Biso   1.000  C
  H17      1.0000 0.49230  0.96790  0.84020  Biso   1.000  H
  H18      1.0000 0.50770  0.46790  0.65980  Biso   1.000  H
  H19      1.0000 0.50770  0.03210  0.15980  Biso   1.000  H
  H20      1.0000 0.49230  0.53210  0.34020  Biso   1.000  H
  H21      1.0000 0.62370  0.92510  0.82680  Biso   1.000  H
  H22      1.0000 0.37630  0.42510  0.67320  Biso   1.000  H
  H23      1.0000 0.37630  0.07490  0.17320  Biso   1.000  H
  H24      1.0000 0.62370  0.57490  0.32680  Biso   1.000  H
  C17      1.0000 0.59380  0.01122  0.74090  Biso   1.000  C
  C18      1.0000 0.40620  0.51122  0.75910  Biso   1.000  C
  C19      1.0000 0.40620  0.98878  0.25910  Biso   1.000  C
  C20      1.0000 0.59380  0.48878  0.24090  Biso   1.000  C
  C21      1.0000 0.66130  0.06197  0.61590  Biso   1.000  C
  C22      1.0000 0.33870  0.56197  0.88410  Biso   1.000  C
  C23      1.0000 0.33870  0.93803  0.38410  Biso   1.000  C
  C24      1.0000 0.66130  0.43803  0.11590  Biso   1.000  C
  C25      1.0000 0.73600  0.08946  0.54990  Biso   1.000  C
  C26      1.0000 0.26400  0.58946  0.95010  Biso   1.000  C
  C27      1.0000 0.26400  0.91054  0.45010  Biso   1.000  C
  C28      1.0000 0.73600  0.41054  0.04990  Biso   1.000  C
  H25      1.0000 0.83870  0.08700  0.56810  Biso   1.000  H
  H26      1.0000 0.16130  0.58700  0.93190  Biso   1.000  H
  H27      1.0000 0.16130  0.91300  0.43190  Biso   1.000  H
  H28      1.0000 0.83870  0.41300  0.06810  Biso   1.000  H
  C29      1.0000 0.65090  0.12090  0.45550  Biso   1.000  C
  C30      1.0000 0.34910  0.62090  0.04450  Biso   1.000  C
  C31      1.0000 0.34910  0.87910  0.54450  Biso   1.000  C
  C32      1.0000 0.65090  0.37910  0.95550  Biso   1.000  C
  H29      1.0000 0.69790  0.14000  0.40950  Biso   1.000  H
  H30      1.0000 0.30210  0.64000  0.09050  Biso   1.000  H
  H31      1.0000 0.30210  0.86000  0.59050  Biso   1.000  H
  H32      1.0000 0.69790  0.36000  0.90950  Biso   1.000  H
  C33      1.0000 0.49720  0.12474  0.42750  Biso   1.000  C
  C34      1.0000 0.50280  0.62474  0.07250  Biso   1.000  C
  C35      1.0000 0.50280  0.87526  0.57250  Biso   1.000  C
  C36      1.0000 0.49720  0.37526  0.92750  Biso   1.000  C
  H33      1.0000 0.44450  0.14680  0.36370  Biso   1.000  H
  H34      1.0000 0.55550  0.64680  0.13630  Biso   1.000  H
  H35      1.0000 0.55550  0.85320  0.63630  Biso   1.000  H
  H36      1.0000 0.44450  0.35320  0.86370  Biso   1.000  H
  C37      1.0000 0.42140  0.09695  0.49120  Biso   1.000  C
  C38      1.0000 0.57860  0.59695  0.00880  Biso   1.000  C
  C39      1.0000 0.57860  0.90305  0.50880  Biso   1.000  C
  C40      1.0000 0.42140  0.40305  0.99120  Biso   1.000  C
  H37      1.0000 0.31860  0.09910  0.47210  Biso   1.000  H
  H38      1.0000 0.68140  0.59910  0.02790  Biso   1.000  H
  H39      1.0000 0.68140  0.90090  0.52790  Biso   1.000  H
  H40      1.0000 0.31860  0.40090  0.97210  Biso   1.000  H
  C41      1.0000 0.50650  0.06523  0.58610  Biso   1.000  C
  C42      1.0000 0.49350  0.56523  0.91390  Biso   1.000  C
  C43      1.0000 0.49350  0.93477  0.41390  Biso   1.000  C
  C44      1.0000 0.50650  0.43477  0.08610  Biso   1.000  C
  C45      1.0000 0.08510  0.11353  0.27330  Biso   1.000  C
  C46      1.0000 0.91490  0.61353  0.22670  Biso   1.000  C
  C47      1.0000 0.91490  0.88647  0.72670  Biso   1.000  C
  C48      1.0000 0.08510  0.38647  0.77330  Biso   1.000  C
  C49      1.0000 0.05330  0.16869  0.34140  Biso   1.000  C
  C50      1.0000 0.94670  0.66869  0.15860  Biso   1.000  C
  C51      1.0000 0.94670  0.83131  0.65860  Biso   1.000  C
  C52      1.0000 0.05330  0.33131  0.84140  Biso   1.000  C
  C53      1.0000 0.02710  0.15546  0.43970  Biso   1.000  C
  C54      1.0000 0.97290  0.65546  0.06030  Biso   1.000  C
  C55      1.0000 0.97290  0.84454  0.56030  Biso   1.000  C
  C56      1.0000 0.02710  0.34454  0.93970  Biso   1.000  C
  H41      1.0000 0.03140  0.11180  0.46490  Biso   1.000  H
  H42      1.0000 0.96860  0.61180  0.03510  Biso   1.000  H
  H43      1.0000 0.96860  0.88820  0.53510  Biso   1.000  H
  H44      1.0000 0.03140  0.38820  0.96490  Biso   1.000  H
  C57      1.0000 0.99470  0.20654  0.49980  Biso   1.000  C
  C58      1.0000 0.00530  0.70654  0.00020  Biso   1.000  C
  C59      1.0000 0.00530  0.79346  0.50020  Biso   1.000  C
  C60      1.0000 0.99470  0.29346  0.99980  Biso   1.000  C
  H45      1.0000 0.97970  0.19720  0.56620  Biso   1.000  H
  H46      1.0000 0.02030  0.69720  0.93380  Biso   1.000  H
  H47      1.0000 0.02030  0.80280  0.43380  Biso   1.000  H
  H48      1.0000 0.97970  0.30280  0.06620  Biso   1.000  H
  C61      1.0000 0.98430  0.27160  0.46250  Biso   1.000  C
  C62      1.0000 0.01570  0.77160  0.03750  Biso   1.000  C
  C63      1.0000 0.01570  0.72840  0.53750  Biso   1.000  C
  C64      1.0000 0.98430  0.22840  0.96250  Biso   1.000  C
  H49      1.0000 0.96020  0.30570  0.50270  Biso   1.000  H
  H50      1.0000 0.03980  0.80570  0.99730  Biso   1.000  H
  H51      1.0000 0.03980  0.69430  0.49730  Biso   1.000  H
  H52      1.0000 0.96020  0.19430  0.00270  Biso   1.000  H
  C65      1.0000 0.01010  0.28566  0.36430  Biso   1.000  C
  C66      1.0000 0.98990  0.78566  0.13570  Biso   1.000  C
  C67      1.0000 0.98990  0.71434  0.63570  Biso   1.000  C
  C68      1.0000 0.01010  0.21434  0.86430  Biso   1.000  C
  C69      1.0000 0.04790  0.23447  0.30590  Biso   1.000  C
  C70      1.0000 0.95210  0.73447  0.19410  Biso   1.000  C
  C71      1.0000 0.95210  0.76553  0.69410  Biso   1.000  C
  C72      1.0000 0.04790  0.26553  0.80590  Biso   1.000  C
  H53      1.0000 0.07000  0.24420  0.24220  Biso   1.000  H
  H54      1.0000 0.93000  0.74420  0.25780  Biso   1.000  H
  H55      1.0000 0.93000  0.75580  0.75780  Biso   1.000  H
  H56      1.0000 0.07000  0.25580  0.74220  Biso   1.000  H
  C73      1.0000 0.99620  0.35587  0.32150  Biso   1.000  C
  C74      1.0000 0.00380  0.85587  0.17850  Biso   1.000  C
  C75      1.0000 0.00380  0.64413  0.67850  Biso   1.000  C
  C76      1.0000 0.99620  0.14413  0.82150  Biso   1.000  C
  O17      1.0000 0.17340  0.02746  0.65450  Biso   1.000  O
  O18      1.0000 0.82660  0.52746  0.84550  Biso   1.000  O
  O19      1.0000 0.82660  0.97254  0.34550  Biso   1.000  O
  O20      1.0000 0.17340  0.47254  0.15450  Biso   1.000  O
  H57      1.0000 0.15050  0.05770  0.69260  Biso   1.000  H
  H58      1.0000 0.84950  0.55770  0.80740  Biso   1.000  H
  H59      1.0000 0.84950  0.94230  0.30740  Biso   1.000  H
  H60      1.0000 0.15050  0.44230  0.19260  Biso   1.000  H
  H61      1.0000 0.11880  0.99510  0.66050  Biso   1.000  H
  H62      1.0000 0.88120  0.49510  0.83950  Biso   1.000  H
  H63      1.0000 0.88120  0.00490  0.33950  Biso   1.000  H
  H64      1.0000 0.11880  0.50490  0.16050  Biso   1.000  H
  O21      1.0000 0.51230  0.82420  0.94040  Biso   1.000  O
  O22      1.0000 0.48770  0.32420  0.55960  Biso   1.000  O
  O23      1.0000 0.48770  0.17580  0.05960  Biso   1.000  O
  O24      1.0000 0.51230  0.67580  0.44040  Biso   1.000  O
  N17      1.0000 0.50200  0.75130  0.81870  Biso   1.000  N
  N18      1.0000 0.49800  0.25130  0.68130  Biso   1.000  N
  N19      1.0000 0.49800  0.24870  0.18130  Biso   1.000  N
  N20      1.0000 0.50200  0.74870  0.31870  Biso   1.000  N
  C77      1.0000 0.60330  0.78930  0.89900  Biso   1.000  C
  C78      1.0000 0.39670  0.28930  0.60100  Biso   1.000  C
  C79      1.0000 0.39670  0.21070  0.10100  Biso   1.000  C
  C80      1.0000 0.60330  0.71070  0.39900  Biso   1.000  C
  H65      1.0000 0.70630  0.79020  0.91860  Biso   1.000  H
  H66      1.0000 0.29370  0.29020  0.58140  Biso   1.000  H
  H67      1.0000 0.29370  0.20980  0.08140  Biso   1.000  H
  H68      1.0000 0.70630  0.70980  0.41860  Biso   1.000  H
  C81      1.0000 0.36450  0.74870  0.80100  Biso   1.000  C
  C82      1.0000 0.63550  0.24870  0.69900  Biso   1.000  C
  C83      1.0000 0.63550  0.25130  0.19900  Biso   1.000  C
  C84      1.0000 0.36450  0.75130  0.30100  Biso   1.000  C
  H69      1.0000 0.32090  0.71940  0.74070  Biso   1.000  H
  H70      1.0000 0.67910  0.21940  0.75930  Biso   1.000  H
  H71      1.0000 0.67910  0.28060  0.25930  Biso   1.000  H
  H72      1.0000 0.32090  0.78060  0.24070  Biso   1.000  H
  H73      1.0000 0.32290  0.79250  0.78400  Biso   1.000  H
  H74      1.0000 0.67710  0.29250  0.71600  Biso   1.000  H
  H75      1.0000 0.67710  0.20750  0.21600  Biso   1.000  H
  H76      1.0000 0.32290  0.70750  0.28400  Biso   1.000  H
  H77      1.0000 0.34440  0.73220  0.86480  Biso   1.000  H
  H78      1.0000 0.65560  0.23220  0.63520  Biso   1.000  H
  H79      1.0000 0.65560  0.26780  0.13520  Biso   1.000  H
  H80      1.0000 0.34440  0.76780  0.36480  Biso   1.000  H
  C85      1.0000 0.56200  0.71300  0.76160  Biso   1.000  C
  C86      1.0000 0.43800  0.21300  0.73840  Biso   1.000  C
  C87      1.0000 0.43800  0.28700  0.23840  Biso   1.000  C
  C88      1.0000 0.56200  0.78700  0.26160  Biso   1.000  C
  H81      1.0000 0.48540  0.68820  0.70940  Biso   1.000  H
  H82      1.0000 0.51460  0.18820  0.79060  Biso   1.000  H
  H83      1.0000 0.51460  0.31180  0.29060  Biso   1.000  H
  H84      1.0000 0.48540  0.81180  0.20940  Biso   1.000  H
  H85      1.0000 0.63000  0.68260  0.80950  Biso   1.000  H
  H86      1.0000 0.37000  0.18260  0.69050  Biso   1.000  H
  H87      1.0000 0.37000  0.31740  0.19050  Biso   1.000  H
  H88      1.0000 0.63000  0.81740  0.30950  Biso   1.000  H
  H89      1.0000 0.61390  0.74000  0.72410  Biso   1.000  H
  H90      1.0000 0.38610  0.24000  0.77590  Biso   1.000  H
  H91      1.0000 0.38610  0.26000  0.27590  Biso   1.000  H
  H92      1.0000 0.61390  0.76000  0.22410  Biso   1.000  H
  O25      1.0000 0.35980  0.12140  0.87640  Biso   1.000  O
  O26      1.0000 0.64020  0.62140  0.62360  Biso   1.000  O
  O27      1.0000 0.64020  0.87860  0.12360  Biso   1.000  O
  O28      1.0000 0.35980  0.37860  0.37640  Biso   1.000  O
