data_image0
_cell_length_a       7.067
_cell_length_b       24.123
_cell_length_c       13.379
_cell_angle_alpha    90
_cell_angle_beta     90
_cell_angle_gamma    90

_symmetry_space_group_name_H-M    "P 1"
_symmetry_int_tables_number       1

loop_
  _symmetry_equiv_pos_as_xyz
  'x, y, z'

loop_
  _atom_site_label
  _atom_site_occupancy
  _atom_site_fract_x
  _atom_site_fract_y
  _atom_site_fract_z
  _atom_site_thermal_displace_type
  _atom_site_B_iso_or_equiv
  _atom_site_type_symbol
  Cu1      1.0000 0.37248  0.36177  0.31324  Biso   1.000  Cu
  Cu2      1.0000 0.62752  0.63823  0.81324  Biso   1.000  Cu
  Cu3      1.0000 0.87248  0.13823  0.31324  Biso   1.000  Cu
  Cu4      1.0000 0.12752  0.86177  0.81324  Biso   1.000  Cu
  S1       1.0000 0.18998  0.52931  0.03113  Biso   1.000  S
  S2       1.0000 0.81002  0.47069  0.53113  Biso   1.000  S
  S3       1.0000 0.68998  0.97069  0.03113  Biso   1.000  S
  S4       1.0000 0.31002  0.02931  0.53113  Biso   1.000  S
  O1       1.0000 0.24410  0.39926  0.20203  Biso   1.000  O
  O2       1.0000 0.75590  0.60074  0.70203  Biso   1.000  O
  O3       1.0000 0.74410  0.10074  0.20203  Biso   1.000  O
  O4       1.0000 0.25590  0.89926  0.70203  Biso   1.000  O
  O5       1.0000 0.45300  0.46381  0.15610  Biso   1.000  O
  O6       1.0000 0.54700  0.53619  0.65610  Biso   1.000  O
  O7       1.0000 0.95300  0.03619  0.15610  Biso   1.000  O
  O8       1.0000 0.04700  0.96381  0.65610  Biso   1.000  O
  O9       1.0000 0.02180  0.61444  0.89575  Biso   1.000  O
  O10      1.0000 0.97820  0.38556  0.39575  Biso   1.000  O
  O11      1.0000 0.52180  0.88556  0.89575  Biso   1.000  O
  O12      1.0000 0.47820  0.11444  0.39575  Biso   1.000  O
  O13      1.0000 0.72820  0.58068  0.90166  Biso   1.000  O
  O14      1.0000 0.27180  0.41932  0.40166  Biso   1.000  O
  O15      1.0000 0.22820  0.91932  0.90166  Biso   1.000  O
  O16      1.0000 0.77180  0.08068  0.40166  Biso   1.000  O
  O17      1.0000 0.64770  0.40404  0.28900  Biso   1.000  O
  O18      1.0000 0.35230  0.59596  0.78900  Biso   1.000  O
  O19      1.0000 0.14770  0.09596  0.28900  Biso   1.000  O
  O20      1.0000 0.85230  0.90404  0.78900  Biso   1.000  O
  H1       1.0000 0.74500  0.40760  0.32500  Biso   1.000  H
  H2       1.0000 0.25500  0.59240  0.82500  Biso   1.000  H
  H3       1.0000 0.24500  0.09240  0.32500  Biso   1.000  H
  H4       1.0000 0.75500  0.90760  0.82500  Biso   1.000  H
  O21      1.0000 0.16130  0.31322  0.83490  Biso   1.000  O
  O22      1.0000 0.83870  0.68678  0.33490  Biso   1.000  O
  O23      1.0000 0.66130  0.18678  0.83490  Biso   1.000  O
  O24      1.0000 0.33870  0.81322  0.33490  Biso   1.000  O
  O25      1.0000 0.75570  0.30210  0.83430  Biso   1.000  O
  O26      1.0000 0.24430  0.69790  0.33430  Biso   1.000  O
  O27      1.0000 0.25570  0.19790  0.83430  Biso   1.000  O
  O28      1.0000 0.74430  0.80210  0.33430  Biso   1.000  O
  N1       1.0000 0.44920  0.31666  0.43208  Biso   1.000  N
  N2       1.0000 0.55080  0.68334  0.93208  Biso   1.000  N
  N3       1.0000 0.94920  0.18334  0.43208  Biso   1.000  N
  N4       1.0000 0.05080  0.81666  0.93208  Biso   1.000  N
  N5       1.0000 0.41040  0.23093  0.35201  Biso   1.000  N
  N6       1.0000 0.58960  0.76907  0.85201  Biso   1.000  N
  N7       1.0000 0.91040  0.26907  0.35201  Biso   1.000  N
  N8       1.0000 0.08960  0.73093  0.85201  Biso   1.000  N
  H5       1.0000 0.36090  0.19880  0.36180  Biso   1.000  H
  H6       1.0000 0.63910  0.80120  0.86180  Biso   1.000  H
  H7       1.0000 0.86090  0.30120  0.36180  Biso   1.000  H
  H8       1.0000 0.13910  0.69880  0.86180  Biso   1.000  H
  N9       1.0000 0.44370  0.29830  0.22521  Biso   1.000  N
  N10      1.0000 0.55630  0.70170  0.72521  Biso   1.000  N
  N11      1.0000 0.94370  0.20170  0.22521  Biso   1.000  N
  N12      1.0000 0.05630  0.79830  0.72521  Biso   1.000  N
  N13      1.0000 0.28490  0.39889  0.81540  Biso   1.000  N
  N14      1.0000 0.71510  0.60111  0.31540  Biso   1.000  N
  N15      1.0000 0.78490  0.10111  0.81540  Biso   1.000  N
  N16      1.0000 0.21510  0.89889  0.31540  Biso   1.000  N
  C1       1.0000 0.29360  0.44285  0.15680  Biso   1.000  C
  C2       1.0000 0.70640  0.55715  0.65680  Biso   1.000  C
  C3       1.0000 0.79360  0.05715  0.15680  Biso   1.000  C
  C4       1.0000 0.20640  0.94285  0.65680  Biso   1.000  C
  C5       1.0000 0.14140  0.47032  0.09780  Biso   1.000  C
  C6       1.0000 0.85860  0.52968  0.59780  Biso   1.000  C
  C7       1.0000 0.64140  0.02968  0.09780  Biso   1.000  C
  C8       1.0000 0.35860  0.97032  0.59780  Biso   1.000  C
  C9       1.0000 0.95680  0.45562  0.08870  Biso   1.000  C
  C10      1.0000 0.04320  0.54438  0.58870  Biso   1.000  C
  C11      1.0000 0.45680  0.04438  0.08870  Biso   1.000  C
  C12      1.0000 0.54320  0.95562  0.58870  Biso   1.000  C
  H9       1.0000 0.90460  0.42460  0.11950  Biso   1.000  H
  H10      1.0000 0.09540  0.57540  0.61950  Biso   1.000  H
  H11      1.0000 0.40460  0.07540  0.11950  Biso   1.000  H
  H12      1.0000 0.59540  0.92460  0.61950  Biso   1.000  H
  C13      1.0000 0.85230  0.49215  0.02770  Biso   1.000  C
  C14      1.0000 0.14770  0.50785  0.52770  Biso   1.000  C
  C15      1.0000 0.35230  0.00785  0.02770  Biso   1.000  C
  C16      1.0000 0.64770  0.99215  0.52770  Biso   1.000  C
  H13      1.0000 0.72380  0.48810  0.01450  Biso   1.000  H
  H14      1.0000 0.27620  0.51190  0.51450  Biso   1.000  H
  H15      1.0000 0.22380  0.01190  0.01450  Biso   1.000  H
  H16      1.0000 0.77620  0.98810  0.51450  Biso   1.000  H
  C17      1.0000 0.96050  0.53408  0.99020  Biso   1.000  C
  C18      1.0000 0.03950  0.46592  0.49020  Biso   1.000  C
  C19      1.0000 0.46050  0.96592  0.99020  Biso   1.000  C
  C20      1.0000 0.53950  0.03408  0.49020  Biso   1.000  C
  C21      1.0000 0.90090  0.58013  0.92380  Biso   1.000  C
  C22      1.0000 0.09910  0.41987  0.42380  Biso   1.000  C
  C23      1.0000 0.40090  0.91987  0.92380  Biso   1.000  C
  C24      1.0000 0.59910  0.08013  0.42380  Biso   1.000  C
  C25      1.0000 0.49800  0.34447  0.51670  Biso   1.000  C
  C26      1.0000 0.50200  0.65553  0.01670  Biso   1.000  C
  C27      1.0000 0.99800  0.15553  0.51670  Biso   1.000  C
  C28      1.0000 0.00200  0.84447  0.01670  Biso   1.000  C
  H17      1.0000 0.50270  0.38300  0.51430  Biso   1.000  H
  H18      1.0000 0.49730  0.61700  0.01430  Biso   1.000  H
  H19      1.0000 0.00270  0.11700  0.51430  Biso   1.000  H
  H20      1.0000 0.99730  0.88300  0.01430  Biso   1.000  H
  C29      1.0000 0.54040  0.31912  0.60500  Biso   1.000  C
  C30      1.0000 0.45960  0.68088  0.10500  Biso   1.000  C
  C31      1.0000 0.04040  0.18088  0.60500  Biso   1.000  C
  C32      1.0000 0.95960  0.81912  0.10500  Biso   1.000  C
  H21      1.0000 0.57500  0.33970  0.66080  Biso   1.000  H
  H22      1.0000 0.42500  0.66030  0.16080  Biso   1.000  H
  H23      1.0000 0.07500  0.16030  0.66080  Biso   1.000  H
  H24      1.0000 0.92500  0.83970  0.16080  Biso   1.000  H
  C33      1.0000 0.53040  0.26160  0.60900  Biso   1.000  C
  C34      1.0000 0.46960  0.73840  0.10900  Biso   1.000  C
  C35      1.0000 0.03040  0.23840  0.60900  Biso   1.000  C
  C36      1.0000 0.96960  0.76160  0.10900  Biso   1.000  C
  H25      1.0000 0.55350  0.24310  0.66880  Biso   1.000  H
  H26      1.0000 0.44650  0.75690  0.16880  Biso   1.000  H
  H27      1.0000 0.05350  0.25690  0.66880  Biso   1.000  H
  H28      1.0000 0.94650  0.74310  0.16880  Biso   1.000  H
  C37      1.0000 0.48670  0.23256  0.52490  Biso   1.000  C
  C38      1.0000 0.51330  0.76744  0.02490  Biso   1.000  C
  C39      1.0000 0.98670  0.26744  0.52490  Biso   1.000  C
  C40      1.0000 0.01330  0.73256  0.02490  Biso   1.000  C
  H29      1.0000 0.48180  0.19400  0.52630  Biso   1.000  H
  H30      1.0000 0.51820  0.80600  0.02630  Biso   1.000  H
  H31      1.0000 0.98180  0.30600  0.52630  Biso   1.000  H
  H32      1.0000 0.01820  0.69400  0.02630  Biso   1.000  H
  C41      1.0000 0.44920  0.26128  0.43643  Biso   1.000  C
  C42      1.0000 0.55080  0.73872  0.93643  Biso   1.000  C
  C43      1.0000 0.94920  0.23872  0.43643  Biso   1.000  C
  C44      1.0000 0.05080  0.76128  0.93643  Biso   1.000  C
  C45      1.0000 0.44090  0.24547  0.25298  Biso   1.000  C
  C46      1.0000 0.55910  0.75453  0.75298  Biso   1.000  C
  C47      1.0000 0.94090  0.25453  0.25298  Biso   1.000  C
  C48      1.0000 0.05910  0.74547  0.75298  Biso   1.000  C
  C49      1.0000 0.46990  0.20183  0.18530  Biso   1.000  C
  C50      1.0000 0.53010  0.79817  0.68530  Biso   1.000  C
  C51      1.0000 0.96990  0.29817  0.18530  Biso   1.000  C
  C52      1.0000 0.03010  0.70183  0.68530  Biso   1.000  C
  H33      1.0000 0.46000  0.16510  0.20590  Biso   1.000  H
  H34      1.0000 0.54000  0.83490  0.70590  Biso   1.000  H
  H35      1.0000 0.96000  0.33490  0.20590  Biso   1.000  H
  H36      1.0000 0.04000  0.66510  0.70590  Biso   1.000  H
  C53      1.0000 0.51270  0.21450  0.08900  Biso   1.000  C
  C54      1.0000 0.48730  0.78550  0.58900  Biso   1.000  C
  C55      1.0000 0.01270  0.28550  0.08900  Biso   1.000  C
  C56      1.0000 0.98730  0.71450  0.58900  Biso   1.000  C
  H37      1.0000 0.53270  0.18630  0.04270  Biso   1.000  H
  H38      1.0000 0.46730  0.81370  0.54270  Biso   1.000  H
  H39      1.0000 0.03270  0.31370  0.04270  Biso   1.000  H
  H40      1.0000 0.96730  0.68630  0.54270  Biso   1.000  H
  C57      1.0000 0.52650  0.26952  0.05970  Biso   1.000  C
  C58      1.0000 0.47350  0.73048  0.55970  Biso   1.000  C
  C59      1.0000 0.02650  0.23048  0.05970  Biso   1.000  C
  C60      1.0000 0.97350  0.76952  0.55970  Biso   1.000  C
  H41      1.0000 0.55950  0.27880  0.99460  Biso   1.000  H
  H42      1.0000 0.44050  0.72120  0.49460  Biso   1.000  H
  H43      1.0000 0.05950  0.22120  0.99460  Biso   1.000  H
  H44      1.0000 0.94050  0.77880  0.49460  Biso   1.000  H
  C61      1.0000 0.49000  0.30991  0.12960  Biso   1.000  C
  C62      1.0000 0.51000  0.69009  0.62960  Biso   1.000  C
  C63      1.0000 0.99000  0.19009  0.12960  Biso   1.000  C
  C64      1.0000 0.01000  0.80991  0.62960  Biso   1.000  C
  H45      1.0000 0.49760  0.34690  0.11010  Biso   1.000  H
  H46      1.0000 0.50240  0.65310  0.61010  Biso   1.000  H
  H47      1.0000 0.99760  0.15310  0.11010  Biso   1.000  H
  H48      1.0000 0.00240  0.84690  0.61010  Biso   1.000  H
  C65      1.0000 0.11090  0.42220  0.78470  Biso   1.000  C
  C66      1.0000 0.88910  0.57780  0.28470  Biso   1.000  C
  C67      1.0000 0.61090  0.07780  0.78470  Biso   1.000  C
  C68      1.0000 0.38910  0.92220  0.28470  Biso   1.000  C
  H49      1.0000 0.02860  0.39330  0.76140  Biso   1.000  H
  H50      1.0000 0.97140  0.60670  0.26140  Biso   1.000  H
  H51      1.0000 0.52860  0.10670  0.76140  Biso   1.000  H
  H52      1.0000 0.47140  0.89330  0.26140  Biso   1.000  H
  H53      1.0000 0.13300  0.44820  0.73170  Biso   1.000  H
  H54      1.0000 0.86700  0.55180  0.23170  Biso   1.000  H
  H55      1.0000 0.63300  0.05180  0.73170  Biso   1.000  H
  H56      1.0000 0.36700  0.94820  0.23170  Biso   1.000  H
  H57      1.0000 0.05300  0.44090  0.84020  Biso   1.000  H
  H58      1.0000 0.94700  0.55910  0.34020  Biso   1.000  H
  H59      1.0000 0.55300  0.05910  0.84020  Biso   1.000  H
  H60      1.0000 0.44700  0.94090  0.34020  Biso   1.000  H
  C69      1.0000 0.44810  0.43410  0.82160  Biso   1.000  C
  C70      1.0000 0.55190  0.56590  0.32160  Biso   1.000  C
  C71      1.0000 0.94810  0.06590  0.82160  Biso   1.000  C
  C72      1.0000 0.05190  0.93410  0.32160  Biso   1.000  C
  H61      1.0000 0.41860  0.46610  0.86150  Biso   1.000  H
  H62      1.0000 0.58140  0.53390  0.36150  Biso   1.000  H
  H63      1.0000 0.91860  0.03390  0.86150  Biso   1.000  H
  H64      1.0000 0.08140  0.96610  0.36150  Biso   1.000  H
  H65      1.0000 0.48420  0.44570  0.75570  Biso   1.000  H
  H66      1.0000 0.51580  0.55430  0.25570  Biso   1.000  H
  H67      1.0000 0.98420  0.05430  0.75570  Biso   1.000  H
  H68      1.0000 0.01580  0.94570  0.25570  Biso   1.000  H
  H69      1.0000 0.55060  0.41410  0.85190  Biso   1.000  H
  H70      1.0000 0.44940  0.58590  0.35190  Biso   1.000  H
  H71      1.0000 0.05060  0.08590  0.85190  Biso   1.000  H
  H72      1.0000 0.94940  0.91410  0.35190  Biso   1.000  H
  C73      1.0000 0.28850  0.34700  0.83870  Biso   1.000  C
  C74      1.0000 0.71150  0.65300  0.33870  Biso   1.000  C
  C75      1.0000 0.78850  0.15300  0.83870  Biso   1.000  C
  C76      1.0000 0.21150  0.84700  0.33870  Biso   1.000  C
  H73      1.0000 0.40410  0.33360  0.86160  Biso   1.000  H
  H74      1.0000 0.59590  0.66640  0.36160  Biso   1.000  H
  H75      1.0000 0.90410  0.16640  0.86160  Biso   1.000  H
  H76      1.0000 0.09590  0.83360  0.36160  Biso   1.000  H
  H77      1.0000 0.73900  0.26730  0.83000  Biso   1.000  H
  H78      1.0000 0.26100  0.73270  0.33000  Biso   1.000  H
  H79      1.0000 0.23900  0.23270  0.83000  Biso   1.000  H
  H80      1.0000 0.76100  0.76730  0.33000  Biso   1.000  H
  H81      1.0000 0.87300  0.30910  0.84100  Biso   1.000  H
  H82      1.0000 0.12700  0.69090  0.34100  Biso   1.000  H
  H83      1.0000 0.37300  0.19090  0.84100  Biso   1.000  H
  H84      1.0000 0.62700  0.80910  0.34100  Biso   1.000  H
  H85      1.0000 0.64500  0.42380  0.23700  Biso   1.000  H
  H86      1.0000 0.35500  0.57620  0.73700  Biso   1.000  H
  H87      1.0000 0.14500  0.07620  0.23700  Biso   1.000  H
  H88      1.0000 0.85500  0.92380  0.73700  Biso   1.000  H
