data_image0
_cell_length_a       14.408
_cell_length_b       14.408
_cell_length_c       21.63
_cell_angle_alpha    90
_cell_angle_beta     90
_cell_angle_gamma    120

_symmetry_space_group_name_H-M    "P 1"
_symmetry_int_tables_number       1

loop_
  _symmetry_equiv_pos_as_xyz
  'x, y, z'

loop_
  _atom_site_label
  _atom_site_occupancy
  _atom_site_fract_x
  _atom_site_fract_y
  _atom_site_fract_z
  _atom_site_thermal_displace_type
  _atom_site_B_iso_or_equiv
  _atom_site_type_symbol
  Cu1      1.0000 0.49488  0.00056  0.50004  Biso   1.000  Cu
  Cu2      1.0000 0.50512  0.99944  0.00004  Biso   1.000  Cu
  Cu3      1.0000 0.99944  0.49432  0.16671  Biso   1.000  Cu
  Cu4      1.0000 0.50568  0.50512  0.83337  Biso   1.000  Cu
  Cu5      1.0000 0.49432  0.49488  0.33337  Biso   1.000  Cu
  Cu6      1.0000 0.00056  0.50568  0.66671  Biso   1.000  Cu
  O1       1.0000 0.39170  0.99770  0.55960  Biso   1.000  O
  O2       1.0000 0.60830  0.00230  0.05960  Biso   1.000  O
  O3       1.0000 0.00230  0.39400  0.22627  Biso   1.000  O
  O4       1.0000 0.60600  0.60830  0.89293  Biso   1.000  O
  O5       1.0000 0.39400  0.39170  0.39293  Biso   1.000  O
  O6       1.0000 0.99770  0.60600  0.72627  Biso   1.000  O
  O7       1.0000 0.50160  0.00210  0.63300  Biso   1.000  O
  O8       1.0000 0.49840  0.99790  0.13300  Biso   1.000  O
  O9       1.0000 0.99790  0.49950  0.29967  Biso   1.000  O
  O10      1.0000 0.50050  0.49840  0.96633  Biso   1.000  O
  O11      1.0000 0.49950  0.50160  0.46633  Biso   1.000  O
  O12      1.0000 0.00210  0.50050  0.79967  Biso   1.000  O
  O13      1.0000 0.33450  0.00870  0.83010  Biso   1.000  O
  O14      1.0000 0.66550  0.99130  0.33010  Biso   1.000  O
  O15      1.0000 0.99130  0.32580  0.49677  Biso   1.000  O
  O16      1.0000 0.67420  0.66550  0.16343  Biso   1.000  O
  O17      1.0000 0.32580  0.33450  0.66343  Biso   1.000  O
  O18      1.0000 0.00870  0.67420  0.99677  Biso   1.000  O
  O19      1.0000 0.26850  0.99180  0.98840  Biso   1.000  O
  O20      1.0000 0.73150  0.00820  0.48840  Biso   1.000  O
  O21      1.0000 0.00820  0.27670  0.65507  Biso   1.000  O
  O22      1.0000 0.72330  0.73150  0.32173  Biso   1.000  O
  O23      1.0000 0.27670  0.26850  0.82173  Biso   1.000  O
  O24      1.0000 0.99180  0.72330  0.15507  Biso   1.000  O
  O25      1.0000 0.40640  0.99780  0.93770  Biso   1.000  O
  O26      1.0000 0.59360  0.00220  0.43770  Biso   1.000  O
  O27      1.0000 0.00220  0.40860  0.60437  Biso   1.000  O
  O28      1.0000 0.59140  0.59360  0.27103  Biso   1.000  O
  O29      1.0000 0.40860  0.40640  0.77103  Biso   1.000  O
  O30      1.0000 0.99780  0.59140  0.10437  Biso   1.000  O
  O31      1.0000 0.69470  0.00250  0.61740  Biso   1.000  O
  O32      1.0000 0.30530  0.99750  0.11740  Biso   1.000  O
  O33      1.0000 0.99750  0.69220  0.28407  Biso   1.000  O
  O34      1.0000 0.30780  0.30530  0.95073  Biso   1.000  O
  O35      1.0000 0.69220  0.69470  0.45073  Biso   1.000  O
  O36      1.0000 0.00250  0.30780  0.78407  Biso   1.000  O
  O37      1.0000 0.88570  0.05680  0.67620  Biso   1.000  O
  O38      1.0000 0.11430  0.94320  0.17620  Biso   1.000  O
  O39      1.0000 0.94320  0.82890  0.34287  Biso   1.000  O
  O40      1.0000 0.17110  0.11430  0.00953  Biso   1.000  O
  O41      1.0000 0.82890  0.88570  0.50953  Biso   1.000  O
  O42      1.0000 0.05680  0.17110  0.84287  Biso   1.000  O
  O43      1.0000 0.97230  0.99970  0.76820  Biso   1.000  O
  O44      1.0000 0.02770  0.00030  0.26820  Biso   1.000  O
  O45      1.0000 0.00030  0.97260  0.43487  Biso   1.000  O
  O46      1.0000 0.02740  0.02770  0.10153  Biso   1.000  O
  O47      1.0000 0.97260  0.97230  0.60153  Biso   1.000  O
  O48      1.0000 0.99970  0.02740  0.93487  Biso   1.000  O
  N1       1.0000 0.42810  0.83770  0.51080  Biso   1.000  N
  N2       1.0000 0.57190  0.16230  0.01080  Biso   1.000  N
  N3       1.0000 0.16230  0.59040  0.17747  Biso   1.000  N
  N4       1.0000 0.40960  0.57190  0.84413  Biso   1.000  N
  N5       1.0000 0.59040  0.42810  0.34413  Biso   1.000  N
  N6       1.0000 0.83770  0.40960  0.67747  Biso   1.000  N
  N7       1.0000 0.38470  0.99490  0.41940  Biso   1.000  N
  N8       1.0000 0.61530  0.00510  0.91940  Biso   1.000  N
  N9       1.0000 0.00510  0.38980  0.08607  Biso   1.000  N
  N10      1.0000 0.61020  0.61530  0.75273  Biso   1.000  N
  N11      1.0000 0.38980  0.38470  0.25273  Biso   1.000  N
  N12      1.0000 0.99490  0.61020  0.58607  Biso   1.000  N
  N13      1.0000 0.58530  0.16410  0.50950  Biso   1.000  N
  N14      1.0000 0.41470  0.83590  0.00950  Biso   1.000  N
  N15      1.0000 0.83590  0.42120  0.17617  Biso   1.000  N
  N16      1.0000 0.57880  0.41470  0.84283  Biso   1.000  N
  N17      1.0000 0.42120  0.58530  0.34283  Biso   1.000  N
  N18      1.0000 0.16410  0.57880  0.67617  Biso   1.000  N
  C1       1.0000 0.48790  0.79110  0.51370  Biso   1.000  C
  C2       1.0000 0.51210  0.20890  0.01370  Biso   1.000  C
  C3       1.0000 0.20890  0.69680  0.18037  Biso   1.000  C
  C4       1.0000 0.30320  0.51210  0.84703  Biso   1.000  C
  C5       1.0000 0.69680  0.48790  0.34703  Biso   1.000  C
  C6       1.0000 0.79110  0.30320  0.68037  Biso   1.000  C
  C7       1.0000 0.44500  0.68130  0.51730  Biso   1.000  C
  C8       1.0000 0.55500  0.31870  0.01730  Biso   1.000  C
  C9       1.0000 0.31870  0.76370  0.18397  Biso   1.000  C
  C10      1.0000 0.23630  0.55500  0.85063  Biso   1.000  C
  C11      1.0000 0.76370  0.44500  0.35063  Biso   1.000  C
  C12      1.0000 0.68130  0.23630  0.68397  Biso   1.000  C
  C13      1.0000 0.33750  0.61730  0.51870  Biso   1.000  C
  C14      1.0000 0.66250  0.38270  0.01870  Biso   1.000  C
  C15      1.0000 0.38270  0.72020  0.18537  Biso   1.000  C
  C16      1.0000 0.27980  0.66250  0.85203  Biso   1.000  C
  C17      1.0000 0.72020  0.33750  0.35203  Biso   1.000  C
  C18      1.0000 0.61730  0.27980  0.68537  Biso   1.000  C
  C19      1.0000 0.27420  0.66410  0.51610  Biso   1.000  C
  C20      1.0000 0.72580  0.33590  0.01610  Biso   1.000  C
  C21      1.0000 0.33590  0.61010  0.18277  Biso   1.000  C
  C22      1.0000 0.38990  0.72580  0.84943  Biso   1.000  C
  C23      1.0000 0.61010  0.27420  0.34943  Biso   1.000  C
  C24      1.0000 0.66410  0.38990  0.68277  Biso   1.000  C
  C25      1.0000 0.32310  0.77440  0.51230  Biso   1.000  C
  C26      1.0000 0.67690  0.22560  0.01230  Biso   1.000  C
  C27      1.0000 0.22560  0.54870  0.17897  Biso   1.000  C
  C28      1.0000 0.45130  0.67690  0.84563  Biso   1.000  C
  C29      1.0000 0.54870  0.32310  0.34563  Biso   1.000  C
  C30      1.0000 0.77440  0.45130  0.67897  Biso   1.000  C
  C31      1.0000 0.29070  0.99080  0.42910  Biso   1.000  C
  C32      1.0000 0.70930  0.00920  0.92910  Biso   1.000  C
  C33      1.0000 0.00920  0.29990  0.09577  Biso   1.000  C
  C34      1.0000 0.70010  0.70930  0.76243  Biso   1.000  C
  C35      1.0000 0.29990  0.29070  0.26243  Biso   1.000  C
  C36      1.0000 0.99080  0.70010  0.59577  Biso   1.000  C
  C37      1.0000 0.22640  0.98850  0.38270  Biso   1.000  C
  C38      1.0000 0.77360  0.01150  0.88270  Biso   1.000  C
  C39      1.0000 0.01150  0.23790  0.04937  Biso   1.000  C
  C40      1.0000 0.76210  0.77360  0.71603  Biso   1.000  C
  C41      1.0000 0.23790  0.22640  0.21603  Biso   1.000  C
  C42      1.0000 0.98850  0.76210  0.54937  Biso   1.000  C
  C43      1.0000 0.25660  0.98900  0.32300  Biso   1.000  C
  C44      1.0000 0.74340  0.01100  0.82300  Biso   1.000  C
  C45      1.0000 0.01100  0.26760  0.98967  Biso   1.000  C
  C46      1.0000 0.73240  0.74340  0.65633  Biso   1.000  C
  C47      1.0000 0.26760  0.25660  0.15633  Biso   1.000  C
  C48      1.0000 0.98900  0.73240  0.48967  Biso   1.000  C
  C49      1.0000 0.35350  0.99310  0.31110  Biso   1.000  C
  C50      1.0000 0.64650  0.00690  0.81110  Biso   1.000  C
  C51      1.0000 0.00690  0.36040  0.97777  Biso   1.000  C
  C52      1.0000 0.63960  0.64650  0.64443  Biso   1.000  C
  C53      1.0000 0.36040  0.35350  0.14443  Biso   1.000  C
  C54      1.0000 0.99310  0.63960  0.47777  Biso   1.000  C
  C55      1.0000 0.41210  0.99560  0.36090  Biso   1.000  C
  C56      1.0000 0.58790  0.00440  0.86090  Biso   1.000  C
  C57      1.0000 0.00440  0.41650  0.02757  Biso   1.000  C
  C58      1.0000 0.58350  0.58790  0.69423  Biso   1.000  C
  C59      1.0000 0.41650  0.41210  0.19423  Biso   1.000  C
  C60      1.0000 0.99560  0.58350  0.52757  Biso   1.000  C
  C61      1.0000 0.53770  0.22320  0.51040  Biso   1.000  C
  C62      1.0000 0.46230  0.77680  0.01040  Biso   1.000  C
  C63      1.0000 0.77680  0.31450  0.17707  Biso   1.000  C
  C64      1.0000 0.68550  0.46230  0.84373  Biso   1.000  C
  C65      1.0000 0.31450  0.53770  0.34373  Biso   1.000  C
  C66      1.0000 0.22320  0.68550  0.67707  Biso   1.000  C
  C67      1.0000 0.59620  0.33410  0.51500  Biso   1.000  C
  C68      1.0000 0.40380  0.66590  0.01500  Biso   1.000  C
  C69      1.0000 0.66590  0.26210  0.18167  Biso   1.000  C
  C70      1.0000 0.73790  0.40380  0.84833  Biso   1.000  C
  C71      1.0000 0.26210  0.59620  0.34833  Biso   1.000  C
  C72      1.0000 0.33410  0.73790  0.68167  Biso   1.000  C
  C73      1.0000 0.70450  0.38430  0.51930  Biso   1.000  C
  C74      1.0000 0.29550  0.61570  0.01930  Biso   1.000  C
  C75      1.0000 0.61570  0.32020  0.18597  Biso   1.000  C
  C76      1.0000 0.67980  0.29550  0.85263  Biso   1.000  C
  C77      1.0000 0.32020  0.70450  0.35263  Biso   1.000  C
  C78      1.0000 0.38430  0.67980  0.68597  Biso   1.000  C
  C79      1.0000 0.75410  0.32280  0.51900  Biso   1.000  C
  C80      1.0000 0.24590  0.67720  0.01900  Biso   1.000  C
  C81      1.0000 0.67720  0.43130  0.18567  Biso   1.000  C
  C82      1.0000 0.56870  0.24590  0.85233  Biso   1.000  C
  C83      1.0000 0.43130  0.75410  0.35233  Biso   1.000  C
  C84      1.0000 0.32280  0.56870  0.68567  Biso   1.000  C
  C85      1.0000 0.69080  0.21360  0.51390  Biso   1.000  C
  C86      1.0000 0.30920  0.78640  0.01390  Biso   1.000  C
  C87      1.0000 0.78640  0.47720  0.18057  Biso   1.000  C
  C88      1.0000 0.52280  0.30920  0.84723  Biso   1.000  C
  C89      1.0000 0.47720  0.69080  0.34723  Biso   1.000  C
  C90      1.0000 0.21360  0.52280  0.68057  Biso   1.000  C
  C91      1.0000 0.41870  0.99810  0.61570  Biso   1.000  C
  C92      1.0000 0.58130  0.00190  0.11570  Biso   1.000  C
  C93      1.0000 0.00190  0.42060  0.28237  Biso   1.000  C
  C94      1.0000 0.57940  0.58130  0.94903  Biso   1.000  C
  C95      1.0000 0.42060  0.41870  0.44903  Biso   1.000  C
  C96      1.0000 0.99810  0.57940  0.78237  Biso   1.000  C
  C97      1.0000 0.33980  0.99240  0.66370  Biso   1.000  C
  C98      1.0000 0.66020  0.00760  0.16370  Biso   1.000  C
  C99      1.0000 0.00760  0.34740  0.33037  Biso   1.000  C
  C100     1.0000 0.65260  0.66020  0.99703  Biso   1.000  C
  C101     1.0000 0.34740  0.33980  0.49703  Biso   1.000  C
  C102     1.0000 0.99240  0.65260  0.83037  Biso   1.000  C
  C103     1.0000 0.23780  0.97200  0.64740  Biso   1.000  C
  C104     1.0000 0.76220  0.02800  0.14740  Biso   1.000  C
  C105     1.0000 0.02800  0.26580  0.31407  Biso   1.000  C
  C106     1.0000 0.73420  0.76220  0.98073  Biso   1.000  C
  C107     1.0000 0.26580  0.23780  0.48073  Biso   1.000  C
  C108     1.0000 0.97200  0.73420  0.81407  Biso   1.000  C
  C109     1.0000 0.16690  0.96470  0.69310  Biso   1.000  C
  C110     1.0000 0.83310  0.03530  0.19310  Biso   1.000  C
  C111     1.0000 0.03530  0.20220  0.35977  Biso   1.000  C
  C112     1.0000 0.79780  0.83310  0.02643  Biso   1.000  C
  C113     1.0000 0.20220  0.16690  0.52643  Biso   1.000  C
  C114     1.0000 0.96470  0.79780  0.85977  Biso   1.000  C
  C115     1.0000 0.19530  0.97730  0.75500  Biso   1.000  C
  C116     1.0000 0.80470  0.02270  0.25500  Biso   1.000  C
  C117     1.0000 0.02270  0.21800  0.42167  Biso   1.000  C
  C118     1.0000 0.78200  0.80470  0.08833  Biso   1.000  C
  C119     1.0000 0.21800  0.19530  0.58833  Biso   1.000  C
  C120     1.0000 0.97730  0.78200  0.92167  Biso   1.000  C
  C121     1.0000 0.29730  0.99610  0.77040  Biso   1.000  C
  C122     1.0000 0.70270  0.00390  0.27040  Biso   1.000  C
  C123     1.0000 0.00390  0.30120  0.43707  Biso   1.000  C
  C124     1.0000 0.69880  0.70270  0.10373  Biso   1.000  C
  C125     1.0000 0.30120  0.29730  0.60373  Biso   1.000  C
  C126     1.0000 0.99610  0.69880  0.93707  Biso   1.000  C
  C127     1.0000 0.36780  0.00410  0.72540  Biso   1.000  C
  C128     1.0000 0.63220  0.99590  0.22540  Biso   1.000  C
  C129     1.0000 0.99590  0.36370  0.39207  Biso   1.000  C
  C130     1.0000 0.63630  0.63220  0.05873  Biso   1.000  C
  C131     1.0000 0.36370  0.36780  0.55873  Biso   1.000  C
  C132     1.0000 0.00410  0.63630  0.89207  Biso   1.000  C
  C133     1.0000 0.26490  0.99490  0.87960  Biso   1.000  C
  C134     1.0000 0.73510  0.00510  0.37960  Biso   1.000  C
  C135     1.0000 0.00510  0.27000  0.54627  Biso   1.000  C
  C136     1.0000 0.73000  0.73510  0.21293  Biso   1.000  C
  C137     1.0000 0.27000  0.26490  0.71293  Biso   1.000  C
  C138     1.0000 0.99490  0.73000  0.04627  Biso   1.000  C
  C139     1.0000 0.31790  0.99540  0.94000  Biso   1.000  C
  C140     1.0000 0.68210  0.00460  0.44000  Biso   1.000  C
  C141     1.0000 0.00460  0.32250  0.60667  Biso   1.000  C
  C142     1.0000 0.67750  0.68210  0.27333  Biso   1.000  C
  C143     1.0000 0.32250  0.31790  0.77333  Biso   1.000  C
  C144     1.0000 0.99540  0.67750  0.10667  Biso   1.000  C
  H1       1.0000 0.62810  0.96260  0.62480  Biso   1.000  H
  H2       1.0000 0.37190  0.03740  0.12480  Biso   1.000  H
  H3       1.0000 0.03740  0.66550  0.29147  Biso   1.000  H
  H4       1.0000 0.33450  0.37190  0.95813  Biso   1.000  H
  H5       1.0000 0.66550  0.62810  0.45813  Biso   1.000  H
  H6       1.0000 0.96260  0.33450  0.79147  Biso   1.000  H
  H7       1.0000 0.70830  0.99010  0.58090  Biso   1.000  H
  H8       1.0000 0.29170  0.00990  0.08090  Biso   1.000  H
  H9       1.0000 0.00990  0.71820  0.24757  Biso   1.000  H
  H10      1.0000 0.28180  0.29170  0.91423  Biso   1.000  H
  H11      1.0000 0.71820  0.70830  0.41423  Biso   1.000  H
  H12      1.0000 0.99010  0.28180  0.74757  Biso   1.000  H
  H13      1.0000 0.93570  0.09790  0.65140  Biso   1.000  H
  H14      1.0000 0.06430  0.90210  0.15140  Biso   1.000  H
  H15      1.0000 0.90210  0.83780  0.31807  Biso   1.000  H
  H16      1.0000 0.16220  0.06430  0.98473  Biso   1.000  H
  H17      1.0000 0.83780  0.93570  0.48473  Biso   1.000  H
  H18      1.0000 0.09790  0.16220  0.81807  Biso   1.000  H
  H19      1.0000 0.83830  0.00300  0.65550  Biso   1.000  H
  H20      1.0000 0.16170  0.99700  0.15550  Biso   1.000  H
  H21      1.0000 0.99700  0.83530  0.32217  Biso   1.000  H
  H22      1.0000 0.16470  0.16170  0.98883  Biso   1.000  H
  H23      1.0000 0.83530  0.83830  0.48883  Biso   1.000  H
  H24      1.0000 0.00300  0.16470  0.82217  Biso   1.000  H
  H25      1.0000 0.95040  0.01790  0.73570  Biso   1.000  H
  H26      1.0000 0.04960  0.98210  0.23570  Biso   1.000  H
  H27      1.0000 0.98210  0.93250  0.40237  Biso   1.000  H
  H28      1.0000 0.06750  0.04960  0.06903  Biso   1.000  H
  H29      1.0000 0.93250  0.95040  0.56903  Biso   1.000  H
  H30      1.0000 0.01790  0.06750  0.90237  Biso   1.000  H
  H31      1.0000 0.99920  0.95940  0.75480  Biso   1.000  H
  H32      1.0000 0.00080  0.04060  0.25480  Biso   1.000  H
  H33      1.0000 0.04060  0.03980  0.42147  Biso   1.000  H
  H34      1.0000 0.96020  0.00080  0.08813  Biso   1.000  H
  H35      1.0000 0.03980  0.99920  0.58813  Biso   1.000  H
  H36      1.0000 0.95940  0.96020  0.92147  Biso   1.000  H
  H37      1.0000 0.56210  0.83460  0.51340  Biso   1.000  H
  H38      1.0000 0.43790  0.16540  0.01340  Biso   1.000  H
  H39      1.0000 0.16540  0.72750  0.18007  Biso   1.000  H
  H40      1.0000 0.27250  0.43790  0.84673  Biso   1.000  H
  H41      1.0000 0.72750  0.56210  0.34673  Biso   1.000  H
  H42      1.0000 0.83460  0.27250  0.68007  Biso   1.000  H
  H43      1.0000 0.48970  0.65190  0.51870  Biso   1.000  H
  H44      1.0000 0.51030  0.34810  0.01870  Biso   1.000  H
  H45      1.0000 0.34810  0.83780  0.18537  Biso   1.000  H
  H46      1.0000 0.16220  0.51030  0.85203  Biso   1.000  H
  H47      1.0000 0.83780  0.48970  0.35203  Biso   1.000  H
  H48      1.0000 0.65190  0.16220  0.68537  Biso   1.000  H
  H49      1.0000 0.30670  0.54330  0.52130  Biso   1.000  H
  H50      1.0000 0.69330  0.45670  0.02130  Biso   1.000  H
  H51      1.0000 0.45670  0.76340  0.18797  Biso   1.000  H
  H52      1.0000 0.23660  0.69330  0.85463  Biso   1.000  H
  H53      1.0000 0.76340  0.30670  0.35463  Biso   1.000  H
  H54      1.0000 0.54330  0.23660  0.68797  Biso   1.000  H
  H55      1.0000 0.19990  0.62210  0.51700  Biso   1.000  H
  H56      1.0000 0.80010  0.37790  0.01700  Biso   1.000  H
  H57      1.0000 0.37790  0.57780  0.18367  Biso   1.000  H
  H58      1.0000 0.42220  0.80010  0.85033  Biso   1.000  H
  H59      1.0000 0.57780  0.19990  0.35033  Biso   1.000  H
  H60      1.0000 0.62210  0.42220  0.68367  Biso   1.000  H
  H61      1.0000 0.28000  0.80550  0.51060  Biso   1.000  H
  H62      1.0000 0.72000  0.19450  0.01060  Biso   1.000  H
  H63      1.0000 0.19450  0.47450  0.17727  Biso   1.000  H
  H64      1.0000 0.52550  0.72000  0.84393  Biso   1.000  H
  H65      1.0000 0.47450  0.28000  0.34393  Biso   1.000  H
  H66      1.0000 0.80550  0.52550  0.67727  Biso   1.000  H
  H67      1.0000 0.26860  0.98940  0.46970  Biso   1.000  H
  H68      1.0000 0.73140  0.01060  0.96970  Biso   1.000  H
  H69      1.0000 0.01060  0.27920  0.13637  Biso   1.000  H
  H70      1.0000 0.72080  0.73140  0.80303  Biso   1.000  H
  H71      1.0000 0.27920  0.26860  0.30303  Biso   1.000  H
  H72      1.0000 0.98940  0.72080  0.63637  Biso   1.000  H
  H73      1.0000 0.16230  0.98670  0.39150  Biso   1.000  H
  H74      1.0000 0.83770  0.01330  0.89150  Biso   1.000  H
  H75      1.0000 0.01330  0.17560  0.05817  Biso   1.000  H
  H76      1.0000 0.82440  0.83770  0.72483  Biso   1.000  H
  H77      1.0000 0.17560  0.16230  0.22483  Biso   1.000  H
  H78      1.0000 0.98670  0.82440  0.55817  Biso   1.000  H
  H79      1.0000 0.21310  0.98670  0.29060  Biso   1.000  H
  H80      1.0000 0.78690  0.01330  0.79060  Biso   1.000  H
  H81      1.0000 0.01330  0.22640  0.95727  Biso   1.000  H
  H82      1.0000 0.77360  0.78690  0.62393  Biso   1.000  H
  H83      1.0000 0.22640  0.21310  0.12393  Biso   1.000  H
  H84      1.0000 0.98670  0.77360  0.45727  Biso   1.000  H
  H85      1.0000 0.37700  0.99410  0.27090  Biso   1.000  H
  H86      1.0000 0.62300  0.00590  0.77090  Biso   1.000  H
  H87      1.0000 0.00590  0.38290  0.93757  Biso   1.000  H
  H88      1.0000 0.61710  0.62300  0.60423  Biso   1.000  H
  H89      1.0000 0.38290  0.37700  0.10423  Biso   1.000  H
  H90      1.0000 0.99410  0.61710  0.43757  Biso   1.000  H
  H91      1.0000 0.47680  0.99800  0.35330  Biso   1.000  H
  H92      1.0000 0.52320  0.00200  0.85330  Biso   1.000  H
  H93      1.0000 0.00200  0.47880  0.01997  Biso   1.000  H
  H94      1.0000 0.52120  0.52320  0.68663  Biso   1.000  H
  H95      1.0000 0.47880  0.47680  0.18663  Biso   1.000  H
  H96      1.0000 0.99800  0.52120  0.51997  Biso   1.000  H
  H97      1.0000 0.46340  0.18920  0.50790  Biso   1.000  H
  H98      1.0000 0.53660  0.81080  0.00790  Biso   1.000  H
  H99      1.0000 0.81080  0.27420  0.17457  Biso   1.000  H
  H100     1.0000 0.72580  0.53660  0.84123  Biso   1.000  H
  H101     1.0000 0.27420  0.46340  0.34123  Biso   1.000  H
  H102     1.0000 0.18920  0.72580  0.67457  Biso   1.000  H
  H103     1.0000 0.56130  0.37370  0.51520  Biso   1.000  H
  H104     1.0000 0.43870  0.62630  0.01520  Biso   1.000  H
  H105     1.0000 0.62630  0.18760  0.18187  Biso   1.000  H
  H106     1.0000 0.81240  0.43870  0.84853  Biso   1.000  H
  H107     1.0000 0.18760  0.56130  0.34853  Biso   1.000  H
  H108     1.0000 0.37370  0.81240  0.68187  Biso   1.000  H
  H109     1.0000 0.74490  0.45850  0.52240  Biso   1.000  H
  H110     1.0000 0.25510  0.54150  0.02240  Biso   1.000  H
  H111     1.0000 0.54150  0.28640  0.18907  Biso   1.000  H
  H112     1.0000 0.71360  0.25510  0.85573  Biso   1.000  H
  H113     1.0000 0.28640  0.74490  0.35573  Biso   1.000  H
  H114     1.0000 0.45850  0.71360  0.68907  Biso   1.000  H
  H115     1.0000 0.82820  0.35470  0.52210  Biso   1.000  H
  H116     1.0000 0.17180  0.64530  0.02210  Biso   1.000  H
  H117     1.0000 0.64530  0.47350  0.18877  Biso   1.000  H
  H118     1.0000 0.52650  0.17180  0.85543  Biso   1.000  H
  H119     1.0000 0.47350  0.82820  0.35543  Biso   1.000  H
  H120     1.0000 0.35470  0.52650  0.68877  Biso   1.000  H
  H121     1.0000 0.72390  0.17230  0.51360  Biso   1.000  H
  H122     1.0000 0.27610  0.82770  0.01360  Biso   1.000  H
  H123     1.0000 0.82770  0.55160  0.18027  Biso   1.000  H
  H124     1.0000 0.44840  0.27610  0.84693  Biso   1.000  H
  H125     1.0000 0.55160  0.72390  0.34693  Biso   1.000  H
  H126     1.0000 0.17230  0.44840  0.68027  Biso   1.000  H
  H127     1.0000 0.21730  0.96340  0.60610  Biso   1.000  H
  H128     1.0000 0.78270  0.03660  0.10610  Biso   1.000  H
  H129     1.0000 0.03660  0.25390  0.27277  Biso   1.000  H
  H130     1.0000 0.74610  0.78270  0.93943  Biso   1.000  H
  H131     1.0000 0.25390  0.21730  0.43943  Biso   1.000  H
  H132     1.0000 0.96340  0.74610  0.77277  Biso   1.000  H
  H133     1.0000 0.09890  0.95100  0.68190  Biso   1.000  H
  H134     1.0000 0.90110  0.04900  0.18190  Biso   1.000  H
  H135     1.0000 0.04900  0.14790  0.34857  Biso   1.000  H
  H136     1.0000 0.85210  0.90110  0.01523  Biso   1.000  H
  H137     1.0000 0.14790  0.09890  0.51523  Biso   1.000  H
  H138     1.0000 0.95100  0.85210  0.84857  Biso   1.000  H
  H139     1.0000 0.14780  0.97340  0.78530  Biso   1.000  H
  H140     1.0000 0.85220  0.02660  0.28530  Biso   1.000  H
  H141     1.0000 0.02660  0.17440  0.45197  Biso   1.000  H
  H142     1.0000 0.82560  0.85220  0.11863  Biso   1.000  H
  H143     1.0000 0.17440  0.14780  0.61863  Biso   1.000  H
  H144     1.0000 0.97340  0.82560  0.95197  Biso   1.000  H
  H145     1.0000 0.43580  0.01770  0.73670  Biso   1.000  H
  H146     1.0000 0.56420  0.98230  0.23670  Biso   1.000  H
  H147     1.0000 0.98230  0.41810  0.40337  Biso   1.000  H
  H148     1.0000 0.58190  0.56420  0.07003  Biso   1.000  H
  H149     1.0000 0.41810  0.43580  0.57003  Biso   1.000  H
  H150     1.0000 0.01770  0.58190  0.90337  Biso   1.000  H
  H151     1.0000 0.19840  0.92750  0.87490  Biso   1.000  H
  H152     1.0000 0.80160  0.07250  0.37490  Biso   1.000  H
  H153     1.0000 0.07250  0.27090  0.54157  Biso   1.000  H
  H154     1.0000 0.72910  0.80160  0.20823  Biso   1.000  H
  H155     1.0000 0.27090  0.19840  0.70823  Biso   1.000  H
  H156     1.0000 0.92750  0.72910  0.04157  Biso   1.000  H
  H157     1.0000 0.24830  0.05230  0.87940  Biso   1.000  H
  H158     1.0000 0.75170  0.94770  0.37940  Biso   1.000  H
  H159     1.0000 0.94770  0.19600  0.54607  Biso   1.000  H
  H160     1.0000 0.80400  0.75170  0.21273  Biso   1.000  H
  H161     1.0000 0.19600  0.24830  0.71273  Biso   1.000  H
  H162     1.0000 0.05230  0.80400  0.04607  Biso   1.000  H
