data_image0
_cell_length_a       8.5381
_cell_length_b       8.669
_cell_length_c       15.5456
_cell_angle_alpha    93.367
_cell_angle_beta     96.385
_cell_angle_gamma    114.746

_symmetry_space_group_name_H-M    "P 1"
_symmetry_int_tables_number       1

loop_
  _symmetry_equiv_pos_as_xyz
  'x, y, z'

loop_
  _atom_site_label
  _atom_site_occupancy
  _atom_site_fract_x
  _atom_site_fract_y
  _atom_site_fract_z
  _atom_site_thermal_displace_type
  _atom_site_B_iso_or_equiv
  _atom_site_type_symbol
  Cu1      1.0000 0.67450  0.67648  0.16305  Biso   1.000  Cu
  Cu2      1.0000 0.32550  0.32352  0.83695  Biso   1.000  Cu
  S1       1.0000 0.37110  0.67109  0.88872  Biso   1.000  S
  S2       1.0000 0.62890  0.32891  0.11128  Biso   1.000  S
  S3       1.0000 0.93563  0.63905  0.44055  Biso   1.000  S
  S4       1.0000 0.06437  0.36095  0.55945  Biso   1.000  S
  N1       1.0000 0.89730  0.77580  0.10773  Biso   1.000  N
  N2       1.0000 0.10270  0.22420  0.89227  Biso   1.000  N
  N3       1.0000 0.44790  0.58190  0.21620  Biso   1.000  N
  N4       1.0000 0.55210  0.41810  0.78380  Biso   1.000  N
  N5       1.0000 0.54520  0.69100  0.05511  Biso   1.000  N
  N6       1.0000 0.45480  0.30900  0.94489  Biso   1.000  N
  N7       1.0000 0.80450  0.66120  0.27107  Biso   1.000  N
  N8       1.0000 0.19550  0.33880  0.72893  Biso   1.000  N
  C1       1.0000 0.90200  0.71530  0.02670  Biso   1.000  C
  C2       1.0000 0.09800  0.28470  0.97330  Biso   1.000  C
  H1       1.0000 0.79930  0.62450  0.99580  Biso   1.000  H
  H2       1.0000 0.20070  0.37550  0.00420  Biso   1.000  H
  C3       1.0000 0.04800  0.77860  0.98660  Biso   1.000  C
  C4       1.0000 0.95200  0.22140  0.01340  Biso   1.000  C
  H3       1.0000 0.04680  0.73180  0.92960  Biso   1.000  H
  H4       1.0000 0.95320  0.26820  0.07040  Biso   1.000  H
  C5       1.0000 0.19750  0.91260  0.03120  Biso   1.000  C
  C6       1.0000 0.80250  0.08740  0.96880  Biso   1.000  C
  H5       1.0000 0.30060  0.95880  0.00520  Biso   1.000  H
  H6       1.0000 0.69940  0.04120  0.99480  Biso   1.000  H
  C7       1.0000 0.19430  0.97790  0.11390  Biso   1.000  C
  C8       1.0000 0.80570  0.02210  0.88610  Biso   1.000  C
  H7       1.0000 0.29460  0.07010  0.14560  Biso   1.000  H
  H8       1.0000 0.70540  0.92990  0.85440  Biso   1.000  H
  C9       1.0000 0.04020  0.90510  0.14950  Biso   1.000  C
  C10      1.0000 0.95980  0.09490  0.85050  Biso   1.000  C
  H9       1.0000 0.03740  0.95020  0.20620  Biso   1.000  H
  H10      1.0000 0.96260  0.04980  0.79380  Biso   1.000  H
  C11      1.0000 0.32760  0.64180  0.19760  Biso   1.000  C
  C12      1.0000 0.67240  0.35820  0.80240  Biso   1.000  C
  H11      1.0000 0.35210  0.73130  0.16150  Biso   1.000  H
  H12      1.0000 0.64790  0.26870  0.83850  Biso   1.000  H
  C13      1.0000 0.16940  0.57860  0.22880  Biso   1.000  C
  C14      1.0000 0.83060  0.42140  0.77120  Biso   1.000  C
  H13      1.0000 0.08700  0.62340  0.21400  Biso   1.000  H
  H14      1.0000 0.91300  0.37660  0.78600  Biso   1.000  H
  C15      1.0000 0.13340  0.44920  0.28190  Biso   1.000  C
  C16      1.0000 0.86660  0.55080  0.71810  Biso   1.000  C
  H15      1.0000 0.02610  0.40380  0.30440  Biso   1.000  H
  H16      1.0000 0.97390  0.59620  0.69560  Biso   1.000  H
  C17      1.0000 0.25670  0.38670  0.30170  Biso   1.000  C
  C18      1.0000 0.74330  0.61330  0.69830  Biso   1.000  C
  H17      1.0000 0.23580  0.29840  0.33840  Biso   1.000  H
  H18      1.0000 0.76420  0.70160  0.66160  Biso   1.000  H
  C19      1.0000 0.41160  0.45560  0.26690  Biso   1.000  C
  C20      1.0000 0.58840  0.54440  0.73310  Biso   1.000  C
  H19      1.0000 0.49500  0.41110  0.27970  Biso   1.000  H
  H20      1.0000 0.50500  0.58890  0.72030  Biso   1.000  H
  C21      1.0000 0.47280  0.68140  0.98560  Biso   1.000  C
  C22      1.0000 0.52720  0.31860  0.01440  Biso   1.000  C
  C23      1.0000 0.85840  0.65110  0.34160  Biso   1.000  C
  C24      1.0000 0.14160  0.34890  0.65840  Biso   1.000  C
  Cu3      1.0000 0.00000  0.00000  0.50000  Biso   1.000  Cu
  S5       1.0000 0.73306  0.03226  0.22338  Biso   1.000  S
  S6       1.0000 0.26694  0.96774  0.77662  Biso   1.000  S
  N9       1.0000 0.24600  0.08300  0.46943  Biso   1.000  N
  N10      1.0000 0.75400  0.91700  0.53057  Biso   1.000  N
  N11      1.0000 0.91570  0.03410  0.38464  Biso   1.000  N
  N12      1.0000 0.08430  0.96590  0.61536  Biso   1.000  N
  C25      1.0000 0.27320  0.01580  0.39540  Biso   1.000  C
  C26      1.0000 0.72680  0.98420  0.60460  Biso   1.000  C
  H21      1.0000 0.17620  0.92870  0.35880  Biso   1.000  H
  H22      1.0000 0.82380  0.07130  0.64120  Biso   1.000  H
  C27      1.0000 0.43680  0.06850  0.37050  Biso   1.000  C
  C28      1.0000 0.56320  0.93150  0.62950  Biso   1.000  C
  H23      1.0000 0.45150  0.01770  0.31810  Biso   1.000  H
  H24      1.0000 0.54850  0.98230  0.68190  Biso   1.000  H
  C29      1.0000 0.57930  0.19690  0.42340  Biso   1.000  C
  C30      1.0000 0.42070  0.80310  0.57660  Biso   1.000  C
  H25      1.0000 0.69280  0.23700  0.40760  Biso   1.000  H
  H26      1.0000 0.30720  0.76300  0.59240  Biso   1.000  H
  C31      1.0000 0.55070  0.26470  0.50010  Biso   1.000  C
  C32      1.0000 0.44930  0.73530  0.49990  Biso   1.000  C
  H27      1.0000 0.64540  0.35240  0.53780  Biso   1.000  H
  H28      1.0000 0.35460  0.64760  0.46220  Biso   1.000  H
  C33      1.0000 0.38360  0.20400  0.52130  Biso   1.000  C
  C34      1.0000 0.61640  0.79600  0.47870  Biso   1.000  C
  H29      1.0000 0.36610  0.24980  0.57450  Biso   1.000  H
  H30      1.0000 0.63390  0.75020  0.42550  Biso   1.000  H
  C35      1.0000 0.83730  0.03120  0.31760  Biso   1.000  C
  C36      1.0000 0.16270  0.96880  0.68240  Biso   1.000  C
