data_image0
_cell_length_a       8.528
_cell_length_b       9.128
_cell_length_c       15.371
_cell_angle_alpha    91.737
_cell_angle_beta     97.043
_cell_angle_gamma    115.639

_symmetry_space_group_name_H-M    "P 1"
_symmetry_int_tables_number       1

loop_
  _symmetry_equiv_pos_as_xyz
  'x, y, z'

loop_
  _atom_site_label
  _atom_site_occupancy
  _atom_site_fract_x
  _atom_site_fract_y
  _atom_site_fract_z
  _atom_site_thermal_displace_type
  _atom_site_B_iso_or_equiv
  _atom_site_type_symbol
  Cu1      1.0000 0.17180  0.17671  0.16196  Biso   1.000  Cu
  Cu2      1.0000 0.82820  0.82329  0.83804  Biso   1.000  Cu
  Cu3      1.0000 0.50000  0.50000  0.50000  Biso   1.000  Cu
  S1       1.0000 0.56164  0.85022  0.55650  Biso   1.000  S
  S2       1.0000 0.43836  0.14978  0.44350  Biso   1.000  S
  S3       1.0000 0.13340  0.84056  0.11709  Biso   1.000  S
  S4       1.0000 0.86660  0.15944  0.88291  Biso   1.000  S
  S5       1.0000 0.22598  0.51965  0.21947  Biso   1.000  S
  S6       1.0000 0.77402  0.48035  0.78053  Biso   1.000  S
  N1       1.0000 0.69700  0.83300  0.72804  Biso   1.000  N
  N2       1.0000 0.30300  0.16700  0.27196  Biso   1.000  N
  N3       1.0000 0.95890  0.81360  0.94783  Biso   1.000  N
  N4       1.0000 0.04110  0.18640  0.05217  Biso   1.000  N
  N5       1.0000 0.94210  0.08060  0.21512  Biso   1.000  N
  N6       1.0000 0.05790  0.91940  0.78488  Biso   1.000  N
  N7       1.0000 0.39730  0.27570  0.10611  Biso   1.000  N
  N8       1.0000 0.60270  0.72430  0.89389  Biso   1.000  N
  N9       1.0000 0.41360  0.52980  0.38288  Biso   1.000  N
  N10      1.0000 0.58640  0.47020  0.61712  Biso   1.000  N
  N11      1.0000 0.25120  0.41490  0.53113  Biso   1.000  N
  N12      1.0000 0.74880  0.58510  0.46887  Biso   1.000  N
  C1       1.0000 0.64160  0.84120  0.65688  Biso   1.000  C
  C2       1.0000 0.35840  0.15880  0.34312  Biso   1.000  C
  C3       1.0000 0.03070  0.82540  0.01843  Biso   1.000  C
  C4       1.0000 0.96930  0.17460  0.98157  Biso   1.000  C
  C5       1.0000 0.90490  0.95950  0.26741  Biso   1.000  C
  C6       1.0000 0.09510  0.04050  0.73259  Biso   1.000  C
  H1       1.0000 0.98780  0.91990  0.28150  Biso   1.000  H
  H2       1.0000 0.01220  0.08010  0.71850  Biso   1.000  H
  C7       1.0000 0.75020  0.89090  0.30122  Biso   1.000  C
  C8       1.0000 0.24980  0.10910  0.69878  Biso   1.000  C
  H3       1.0000 0.72970  0.80700  0.33760  Biso   1.000  H
  H4       1.0000 0.27030  0.19300  0.66240  Biso   1.000  H
  C9       1.0000 0.62630  0.94650  0.28114  Biso   1.000  C
  C10      1.0000 0.37370  0.05350  0.71886  Biso   1.000  C
  H5       1.0000 0.52010  0.90110  0.30310  Biso   1.000  H
  H6       1.0000 0.47990  0.09890  0.69690  Biso   1.000  H
  C11      1.0000 0.66240  0.07040  0.22791  Biso   1.000  C
  C12      1.0000 0.33760  0.92960  0.77209  Biso   1.000  C
  H7       1.0000 0.58090  0.11130  0.21310  Biso   1.000  H
  H8       1.0000 0.41910  0.88870  0.78690  Biso   1.000  H
  C13      1.0000 0.82050  0.13430  0.19635  Biso   1.000  C
  C14      1.0000 0.17950  0.86570  0.80365  Biso   1.000  C
  H9       1.0000 0.84360  0.21890  0.16020  Biso   1.000  H
  H10      1.0000 0.15640  0.78110  0.83980  Biso   1.000  H
  C15      1.0000 0.54070  0.40260  0.14644  Biso   1.000  C
  C16      1.0000 0.45930  0.59740  0.85356  Biso   1.000  C
  H11      1.0000 0.53750  0.44550  0.20150  Biso   1.000  H
  H12      1.0000 0.46250  0.55450  0.79850  Biso   1.000  H
  C17      1.0000 0.69370  0.47350  0.11056  Biso   1.000  C
  C18      1.0000 0.30630  0.52650  0.88944  Biso   1.000  C
  H13      1.0000 0.79150  0.56210  0.14080  Biso   1.000  H
  H14      1.0000 0.20850  0.43790  0.85920  Biso   1.000  H
  C19      1.0000 0.69940  0.41110  0.02938  Biso   1.000  C
  C20      1.0000 0.30060  0.58890  0.97062  Biso   1.000  C
  H15      1.0000 0.80090  0.45680  0.00340  Biso   1.000  H
  H16      1.0000 0.19910  0.54320  0.99660  Biso   1.000  H
  C21      1.0000 0.55430  0.28160  0.98795  Biso   1.000  C
  C22      1.0000 0.44570  0.71840  0.01205  Biso   1.000  C
  H17      1.0000 0.55550  0.23660  0.93310  Biso   1.000  H
  H18      1.0000 0.44450  0.76340  0.06690  Biso   1.000  H
  C23      1.0000 0.40530  0.21700  0.02698  Biso   1.000  C
  C24      1.0000 0.59470  0.78300  0.97302  Biso   1.000  C
  H19      1.0000 0.30610  0.12890  0.99720  Biso   1.000  H
  H20      1.0000 0.69390  0.87110  0.00280  Biso   1.000  H
  C25      1.0000 0.33450  0.52460  0.31523  Biso   1.000  C
  C26      1.0000 0.66550  0.47540  0.68477  Biso   1.000  C
  C27      1.0000 0.22140  0.47510  0.60401  Biso   1.000  C
  C28      1.0000 0.77860  0.52490  0.39599  Biso   1.000  C
  H21      1.0000 0.31600  0.55770  0.64010  Biso   1.000  H
  H22      1.0000 0.68400  0.44230  0.35990  Biso   1.000  H
  C29      1.0000 0.05730  0.42060  0.62815  Biso   1.000  C
  C30      1.0000 0.94270  0.57940  0.37185  Biso   1.000  C
  H23      1.0000 0.04170  0.46620  0.67940  Biso   1.000  H
  H24      1.0000 0.95830  0.53380  0.32060  Biso   1.000  H
  C31      1.0000 0.91720  0.29890  0.57643  Biso   1.000  C
  C32      1.0000 0.08280  0.70110  0.42357  Biso   1.000  C
  H25      1.0000 0.80480  0.26000  0.59160  Biso   1.000  H
  H26      1.0000 0.19520  0.74000  0.40840  Biso   1.000  H
  C33      1.0000 0.94600  0.23580  0.50222  Biso   1.000  C
  C34      1.0000 0.05400  0.76420  0.49778  Biso   1.000  C
  H27      1.0000 0.85320  0.15170  0.46620  Biso   1.000  H
  H28      1.0000 0.14680  0.84830  0.53380  Biso   1.000  H
  C35      1.0000 0.11360  0.29720  0.48053  Biso   1.000  C
  C36      1.0000 0.88640  0.70280  0.51947  Biso   1.000  C
  H29      1.0000 0.13100  0.25490  0.42880  Biso   1.000  H
  H30      1.0000 0.86900  0.74510  0.57120  Biso   1.000  H
