data_image0
_cell_length_a       12.245
_cell_length_b       9.863
_cell_length_c       9.819
_cell_angle_alpha    101.18
_cell_angle_beta     105.78
_cell_angle_gamma    93.77

_symmetry_space_group_name_H-M    "P 1"
_symmetry_int_tables_number       1

loop_
  _symmetry_equiv_pos_as_xyz
  'x, y, z'

loop_
  _atom_site_label
  _atom_site_occupancy
  _atom_site_fract_x
  _atom_site_fract_y
  _atom_site_fract_z
  _atom_site_thermal_displace_type
  _atom_site_B_iso_or_equiv
  _atom_site_type_symbol
  Cu1      1.0000 0.01130  0.02570  0.25880  Biso   1.000  Cu
  Cu2      1.0000 0.98870  0.97430  0.74120  Biso   1.000  Cu
  P1       1.0000 0.13890  0.90620  0.52350  Biso   1.000  P
  P2       1.0000 0.86110  0.09380  0.47650  Biso   1.000  P
  P3       1.0000 0.15980  0.95200  0.03810  Biso   1.000  P
  P4       1.0000 0.84020  0.04800  0.96190  Biso   1.000  P
  O1       1.0000 0.10970  0.91420  0.36470  Biso   1.000  O
  O2       1.0000 0.89030  0.08580  0.63530  Biso   1.000  O
  O3       1.0000 0.96220  0.11640  0.42010  Biso   1.000  O
  O4       1.0000 0.03780  0.88360  0.57990  Biso   1.000  O
  O5       1.0000 0.10580  0.04520  0.13500  Biso   1.000  O
  O6       1.0000 0.89420  0.95480  0.86500  Biso   1.000  O
  O7       1.0000 0.86930  0.03190  0.11840  Biso   1.000  O
  O8       1.0000 0.13070  0.96810  0.88160  Biso   1.000  O
  C1       1.0000 0.21800  0.76010  0.53880  Biso   1.000  C
  C2       1.0000 0.78200  0.23990  0.46120  Biso   1.000  C
  C3       1.0000 0.15220  0.62600  0.45120  Biso   1.000  C
  C4       1.0000 0.84780  0.37400  0.54880  Biso   1.000  C
  C5       1.0000 0.22210  0.50150  0.45400  Biso   1.000  C
  C6       1.0000 0.77790  0.49850  0.54600  Biso   1.000  C
  C7       1.0000 0.15550  0.37110  0.36600  Biso   1.000  C
  C8       1.0000 0.84450  0.62890  0.63400  Biso   1.000  C
  C9       1.0000 0.23180  0.05820  0.63280  Biso   1.000  C
  C10      1.0000 0.76820  0.94180  0.36720  Biso   1.000  C
  C11      1.0000 0.33730  0.09620  0.58700  Biso   1.000  C
  C12      1.0000 0.66270  0.90380  0.41300  Biso   1.000  C
  C13      1.0000 0.41130  0.22360  0.67970  Biso   1.000  C
  C14      1.0000 0.58870  0.77640  0.32030  Biso   1.000  C
  C15      1.0000 0.51700  0.26110  0.63230  Biso   1.000  C
  C16      1.0000 0.48300  0.73890  0.36770  Biso   1.000  C
  H1       1.0000 0.25210  0.76390  0.64480  Biso   1.000  H
  H2       1.0000 0.74790  0.23610  0.35520  Biso   1.000  H
  H3       1.0000 0.28990  0.78050  0.51190  Biso   1.000  H
  H4       1.0000 0.71010  0.21950  0.48810  Biso   1.000  H
  H5       1.0000 0.09740  0.61750  0.35730  Biso   1.000  H
  H6       1.0000 0.90260  0.38250  0.64270  Biso   1.000  H
  H7       1.0000 0.08260  0.59730  0.48350  Biso   1.000  H
  H8       1.0000 0.91740  0.40270  0.51650  Biso   1.000  H
  H9       1.0000 0.28840  0.54140  0.41530  Biso   1.000  H
  H10      1.0000 0.71160  0.45860  0.58470  Biso   1.000  H
  H11      1.0000 0.25130  0.49230  0.57330  Biso   1.000  H
  H12      1.0000 0.74870  0.50770  0.42670  Biso   1.000  H
  H13      1.0000 0.07170  0.36330  0.31730  Biso   1.000  H
  H14      1.0000 0.92830  0.63670  0.68270  Biso   1.000  H
  H15      1.0000 0.19450  0.33830  0.29110  Biso   1.000  H
  H16      1.0000 0.80550  0.66170  0.70890  Biso   1.000  H
  H17      1.0000 0.16930  0.30050  0.42660  Biso   1.000  H
  H18      1.0000 0.83070  0.69950  0.57340  Biso   1.000  H
  H19      1.0000 0.18340  0.12230  0.62030  Biso   1.000  H
  H20      1.0000 0.81660  0.87770  0.37970  Biso   1.000  H
  H21      1.0000 0.26210  0.05480  0.73580  Biso   1.000  H
  H22      1.0000 0.73790  0.94520  0.26420  Biso   1.000  H
  H23      1.0000 0.37230  0.00000  0.57610  Biso   1.000  H
  H24      1.0000 0.62770  0.00000  0.42390  Biso   1.000  H
  H25      1.0000 0.32230  0.07120  0.48000  Biso   1.000  H
  H26      1.0000 0.67770  0.92880  0.52000  Biso   1.000  H
  H27      1.0000 0.38610  0.30610  0.73700  Biso   1.000  H
  H28      1.0000 0.61390  0.69390  0.26300  Biso   1.000  H
  H29      1.0000 0.45080  0.18260  0.76190  Biso   1.000  H
  H30      1.0000 0.54920  0.81740  0.23810  Biso   1.000  H
  H31      1.0000 0.47740  0.29810  0.55870  Biso   1.000  H
  H32      1.0000 0.52260  0.70190  0.44130  Biso   1.000  H
  H33      1.0000 0.56010  0.17530  0.63480  Biso   1.000  H
  H34      1.0000 0.43990  0.82470  0.36520  Biso   1.000  H
  H35      1.0000 0.56560  0.33950  0.70770  Biso   1.000  H
  H36      1.0000 0.43440  0.66050  0.29230  Biso   1.000  H
  C17      1.0000 0.31330  0.99580  0.10970  Biso   1.000  C
  C18      1.0000 0.68670  0.00420  0.89030  Biso   1.000  C
  C19      1.0000 0.34900  0.14580  0.11040  Biso   1.000  C
  C20      1.0000 0.65100  0.85420  0.88960  Biso   1.000  C
  C21      1.0000 0.47710  0.19010  0.16360  Biso   1.000  C
  C22      1.0000 0.52290  0.80990  0.83640  Biso   1.000  C
  C23      1.0000 0.50940  0.33950  0.16390  Biso   1.000  C
  C24      1.0000 0.49060  0.66050  0.83610  Biso   1.000  C
  C25      1.0000 0.12550  0.77320  0.04000  Biso   1.000  C
  C26      1.0000 0.87450  0.22680  0.96000  Biso   1.000  C
  C27      1.0000 0.17490  0.66840  0.94390  Biso   1.000  C
  C28      1.0000 0.82510  0.33160  0.05610  Biso   1.000  C
  C29      1.0000 0.14170  0.52120  0.94970  Biso   1.000  C
  C30      1.0000 0.85830  0.47880  0.05030  Biso   1.000  C
  C31      1.0000 0.18550  0.41330  0.85580  Biso   1.000  C
  C32      1.0000 0.81450  0.58670  0.14420  Biso   1.000  C
  H37      1.0000 0.33050  0.98280  0.21500  Biso   1.000  H
  H38      1.0000 0.66950  0.01720  0.78500  Biso   1.000  H
  H39      1.0000 0.34680  0.93240  0.05320  Biso   1.000  H
  H40      1.0000 0.65320  0.06760  0.94680  Biso   1.000  H
  H41      1.0000 0.33030  0.15860  0.00000  Biso   1.000  H
  H42      1.0000 0.66970  0.84140  0.00000  Biso   1.000  H
  H43      1.0000 0.33230  0.25550  0.17100  Biso   1.000  H
  H44      1.0000 0.66770  0.74450  0.82900  Biso   1.000  H
  H45      1.0000 0.48470  0.15070  0.25130  Biso   1.000  H
  H46      1.0000 0.51530  0.84930  0.74870  Biso   1.000  H
  H47      1.0000 0.51510  0.13160  0.10050  Biso   1.000  H
  H48      1.0000 0.48490  0.86840  0.89950  Biso   1.000  H
  H49      1.0000 0.46560  0.38610  0.23550  Biso   1.000  H
  H50      1.0000 0.53440  0.61390  0.76450  Biso   1.000  H
  H51      1.0000 0.49690  0.35920  0.07430  Biso   1.000  H
  H52      1.0000 0.50310  0.64080  0.92570  Biso   1.000  H
  H53      1.0000 0.61800  0.37030  0.20820  Biso   1.000  H
  H54      1.0000 0.38200  0.62970  0.79180  Biso   1.000  H
  H55      1.0000 0.05280  0.76900  0.00000  Biso   1.000  H
  H56      1.0000 0.94720  0.23100  0.00000  Biso   1.000  H
  H57      1.0000 0.15830  0.76340  0.14000  Biso   1.000  H
  H58      1.0000 0.84170  0.23660  0.86000  Biso   1.000  H
  H59      1.0000 0.14240  0.68760  0.84780  Biso   1.000  H
  H60      1.0000 0.85760  0.31240  0.15220  Biso   1.000  H
  H61      1.0000 0.25030  0.67840  0.98650  Biso   1.000  H
  H62      1.0000 0.74970  0.32160  0.01350  Biso   1.000  H
  H63      1.0000 0.05870  0.50140  0.92610  Biso   1.000  H
  H64      1.0000 0.94130  0.49860  0.07390  Biso   1.000  H
  H65      1.0000 0.17160  0.50740  0.04760  Biso   1.000  H
  H66      1.0000 0.82840  0.49260  0.95240  Biso   1.000  H
  H67      1.0000 0.26270  0.44270  0.89140  Biso   1.000  H
  H68      1.0000 0.73730  0.55730  0.10860  Biso   1.000  H
  H69      1.0000 0.12800  0.41840  0.74470  Biso   1.000  H
  H70      1.0000 0.87200  0.58160  0.25530  Biso   1.000  H
  H71      1.0000 0.16360  0.31880  0.86570  Biso   1.000  H
  H72      1.0000 0.83640  0.68120  0.13430  Biso   1.000  H
