data_image0
_cell_length_a       9.6824
_cell_length_b       14.4339
_cell_length_c       14.3591
_cell_angle_alpha    90
_cell_angle_beta     93.306
_cell_angle_gamma    90

_symmetry_space_group_name_H-M    "P 1"
_symmetry_int_tables_number       1

loop_
  _symmetry_equiv_pos_as_xyz
  'x, y, z'

loop_
  _atom_site_label
  _atom_site_occupancy
  _atom_site_fract_x
  _atom_site_fract_y
  _atom_site_fract_z
  _atom_site_thermal_displace_type
  _atom_site_B_iso_or_equiv
  _atom_site_type_symbol
  Cu1      1.0000 0.41043  0.97446  0.70141  Biso   1.000  Cu
  Cu2      1.0000 0.58957  0.47446  0.29859  Biso   1.000  Cu
  Cu3      1.0000 0.06620  0.27592  0.81631  Biso   1.000  Cu
  Cu4      1.0000 0.93380  0.77592  0.18369  Biso   1.000  Cu
  Cu5      1.0000 0.06136  0.63759  0.85157  Biso   1.000  Cu
  Cu6      1.0000 0.93864  0.13759  0.14843  Biso   1.000  Cu
  Cl1      1.0000 0.10096  0.48908  0.41559  Biso   1.000  Cl
  Cl2      1.0000 0.89904  0.98908  0.58441  Biso   1.000  Cl
  Cl3      1.0000 0.65032  0.48722  0.68787  Biso   1.000  Cl
  Cl4      1.0000 0.34968  0.98722  0.31213  Biso   1.000  Cl
  O1       1.0000 0.25120  0.04920  0.74900  Biso   1.000  O
  O2       1.0000 0.74880  0.54920  0.25100  Biso   1.000  O
  O3       1.0000 0.99940  0.12090  0.83770  Biso   1.000  O
  O4       1.0000 0.00060  0.62090  0.16230  Biso   1.000  O
  O5       1.0000 0.87400  0.96310  0.92770  Biso   1.000  O
  O6       1.0000 0.12600  0.46310  0.07230  Biso   1.000  O
  O7       1.0000 0.01870  0.79590  0.87990  Biso   1.000  O
  O8       1.0000 0.98130  0.29590  0.12010  Biso   1.000  O
  O9       1.0000 0.25520  0.85220  0.76730  Biso   1.000  O
  O10      1.0000 0.74480  0.35220  0.23270  Biso   1.000  O
  O11      1.0000 0.88830  0.29120  0.88020  Biso   1.000  O
  O12      1.0000 0.11170  0.79120  0.11980  Biso   1.000  O
  O13      1.0000 0.03640  0.46250  0.84170  Biso   1.000  O
  O14      1.0000 0.96360  0.96250  0.15830  Biso   1.000  O
  O15      1.0000 0.89670  0.61490  0.92840  Biso   1.000  O
  O16      1.0000 0.10330  0.11490  0.07160  Biso   1.000  O
  O17      1.0000 0.65330  0.53910  0.01900  Biso   1.000  O
  O18      1.0000 0.34670  0.03910  0.98100  Biso   1.000  O
  O19      1.0000 0.64890  0.33750  0.98390  Biso   1.000  O
  O20      1.0000 0.35110  0.83750  0.01610  Biso   1.000  O
  O21      1.0000 0.70350  0.15140  0.80560  Biso   1.000  O
  O22      1.0000 0.29650  0.65140  0.19440  Biso   1.000  O
  H1       1.0000 0.70500  0.20600  0.82800  Biso   1.000  H
  H2       1.0000 0.29500  0.70600  0.17200  Biso   1.000  H
  H3       1.0000 0.76600  0.11200  0.79900  Biso   1.000  H
  H4       1.0000 0.23400  0.61200  0.20100  Biso   1.000  H
  O23      1.0000 0.58760  0.11250  0.48750  Biso   1.000  O
  O24      1.0000 0.41240  0.61250  0.51250  Biso   1.000  O
  O25      1.0000 0.21050  0.47380  0.48320  Biso   1.000  O
  O26      1.0000 0.78950  0.97380  0.51680  Biso   1.000  O
  O27      1.0000 0.03760  0.40680  0.38470  Biso   1.000  O
  O28      1.0000 0.96240  0.90680  0.61530  Biso   1.000  O
  O29      1.0000 0.99060  0.52870  0.47170  Biso   1.000  O
  O30      1.0000 0.00940  0.02870  0.52830  Biso   1.000  O
  O31      1.0000 0.13610  0.55340  0.34730  Biso   1.000  O
  O32      1.0000 0.86390  0.05340  0.65270  Biso   1.000  O
  O33      1.0000 0.50780  0.11840  0.65950  Biso   1.000  O
  O34      1.0000 0.49220  0.61840  0.34050  Biso   1.000  O
  H5       1.0000 0.56500  0.10400  0.62000  Biso   1.000  H
  H6       1.0000 0.43500  0.60400  0.38000  Biso   1.000  H
  H7       1.0000 0.57700  0.14100  0.69100  Biso   1.000  H
  H8       1.0000 0.42300  0.64100  0.30900  Biso   1.000  H
  O35      1.0000 0.77580  0.44400  0.68190  Biso   1.000  O
  O36      1.0000 0.22420  0.94400  0.31810  Biso   1.000  O
  O37      1.0000 0.65730  0.55210  0.76140  Biso   1.000  O
  O38      1.0000 0.34270  0.05210  0.23860  Biso   1.000  O
  O39      1.0000 0.52490  0.44880  0.68320  Biso   1.000  O
  O40      1.0000 0.47510  0.94880  0.31680  Biso   1.000  O
  O41      1.0000 0.63320  0.55240  0.60050  Biso   1.000  O
  O42      1.0000 0.36680  0.05240  0.39950  Biso   1.000  O
  N1       1.0000 0.30740  0.95740  0.57840  Biso   1.000  N
  N2       1.0000 0.69260  0.45740  0.42160  Biso   1.000  N
  H9       1.0000 0.21490  0.96890  0.58460  Biso   1.000  H
  H10      1.0000 0.78510  0.46890  0.41540  Biso   1.000  H
  H11      1.0000 0.33920  0.99920  0.53630  Biso   1.000  H
  H12      1.0000 0.66080  0.49920  0.46370  Biso   1.000  H
  N3       1.0000 0.56280  0.88890  0.65690  Biso   1.000  N
  N4       1.0000 0.43720  0.38890  0.34310  Biso   1.000  N
  H13      1.0000 0.64690  0.91960  0.65420  Biso   1.000  H
  H14      1.0000 0.35310  0.41960  0.34580  Biso   1.000  H
  N5       1.0000 0.51350  0.97780  0.82440  Biso   1.000  N
  N6       1.0000 0.48650  0.47780  0.17560  Biso   1.000  N
  H15      1.0000 0.58010  0.02320  0.82380  Biso   1.000  H
  H16      1.0000 0.41990  0.52320  0.17620  Biso   1.000  H
  H17      1.0000 0.45360  0.99310  0.86940  Biso   1.000  H
  H18      1.0000 0.54640  0.49310  0.13060  Biso   1.000  H
  N7       1.0000 0.17510  0.27940  0.93920  Biso   1.000  N
  N8       1.0000 0.82490  0.77940  0.06080  Biso   1.000  N
  H19      1.0000 0.16650  0.33700  0.96580  Biso   1.000  H
  H20      1.0000 0.83350  0.83700  0.03420  Biso   1.000  H
  H21      1.0000 0.14040  0.23620  0.97870  Biso   1.000  H
  H22      1.0000 0.85960  0.73620  0.02130  Biso   1.000  H
  N9       1.0000 0.24790  0.26050  0.75810  Biso   1.000  N
  N10      1.0000 0.75210  0.76050  0.24190  Biso   1.000  N
  H23      1.0000 0.26030  0.19710  0.75010  Biso   1.000  H
  H24      1.0000 0.73970  0.69710  0.24990  Biso   1.000  H
  N11      1.0000 0.95670  0.27350  0.69360  Biso   1.000  N
  N12      1.0000 0.04330  0.77350  0.30640  Biso   1.000  N
  H25      1.0000 0.92590  0.21380  0.68400  Biso   1.000  H
  H26      1.0000 0.07410  0.71380  0.31600  Biso   1.000  H
  H27      1.0000 0.87980  0.30990  0.69950  Biso   1.000  H
  H28      1.0000 0.12020  0.80990  0.30050  Biso   1.000  H
  N13      1.0000 0.18900  0.63530  0.96490  Biso   1.000  N
  N14      1.0000 0.81100  0.13530  0.03510  Biso   1.000  N
  H29      1.0000 0.19440  0.69450  0.98870  Biso   1.000  H
  H30      1.0000 0.80560  0.19450  0.01130  Biso   1.000  H
  H31      1.0000 0.15000  0.59860  0.00870  Biso   1.000  H
  H32      1.0000 0.85000  0.09860  0.99130  Biso   1.000  H
  N15      1.0000 0.21560  0.65150  0.76750  Biso   1.000  N
  N16      1.0000 0.78440  0.15150  0.23250  Biso   1.000  N
  H33      1.0000 0.23910  0.71400  0.77080  Biso   1.000  H
  H34      1.0000 0.76090  0.21400  0.22920  Biso   1.000  H
  N17      1.0000 0.93320  0.65000  0.73870  Biso   1.000  N
  N18      1.0000 0.06680  0.15000  0.26130  Biso   1.000  N
  H35      1.0000 0.88300  0.59620  0.73080  Biso   1.000  H
  H36      1.0000 0.11700  0.09620  0.26920  Biso   1.000  H
  H37      1.0000 0.87200  0.69740  0.74800  Biso   1.000  H
  H38      1.0000 0.12800  0.19740  0.25200  Biso   1.000  H
  C1       1.0000 0.16340  0.00380  0.79180  Biso   1.000  C
  C2       1.0000 0.83660  0.50380  0.20820  Biso   1.000  C
  C3       1.0000 0.16570  0.90320  0.80160  Biso   1.000  C
  C4       1.0000 0.83430  0.40320  0.19840  Biso   1.000  C
  C5       1.0000 0.05100  0.87500  0.85620  Biso   1.000  C
  C6       1.0000 0.94900  0.37500  0.14380  Biso   1.000  C
  C7       1.0000 0.97470  0.95880  0.87920  Biso   1.000  C
  C8       1.0000 0.02530  0.45880  0.12080  Biso   1.000  C
  C9       1.0000 0.04280  0.03930  0.83510  Biso   1.000  C
  C10      1.0000 0.95720  0.53930  0.16490  Biso   1.000  C
  C11      1.0000 0.85470  0.37190  0.90520  Biso   1.000  C
  C12      1.0000 0.14530  0.87190  0.09480  Biso   1.000  C
  C13      1.0000 0.92970  0.45590  0.88630  Biso   1.000  C
  C14      1.0000 0.07030  0.95590  0.11370  Biso   1.000  C
  C15      1.0000 0.85750  0.53190  0.92960  Biso   1.000  C
  C16      1.0000 0.14250  0.03190  0.07040  Biso   1.000  C
  C17      1.0000 0.73520  0.49530  0.97460  Biso   1.000  C
  C18      1.0000 0.26480  0.99530  0.02540  Biso   1.000  C
  C19      1.0000 0.73450  0.39380  0.95740  Biso   1.000  C
  C20      1.0000 0.26550  0.89380  0.04260  Biso   1.000  C
  C21      1.0000 0.57930  0.88970  0.84860  Biso   1.000  C
  C22      1.0000 0.42070  0.38970  0.15140  Biso   1.000  C
  H39      1.0000 0.64550  0.90390  0.90180  Biso   1.000  H
  H40      1.0000 0.35450  0.40390  0.09820  Biso   1.000  H
  H41      1.0000 0.50570  0.85160  0.87450  Biso   1.000  H
  H42      1.0000 0.49430  0.35160  0.12550  Biso   1.000  H
  C23      1.0000 0.64790  0.83160  0.79380  Biso   1.000  C
  C24      1.0000 0.35210  0.33160  0.20620  Biso   1.000  C
  H43      1.0000 0.67010  0.77480  0.83030  Biso   1.000  H
  H44      1.0000 0.32990  0.27480  0.16970  Biso   1.000  H
  H45      1.0000 0.73680  0.86120  0.78060  Biso   1.000  H
  H46      1.0000 0.26320  0.36120  0.21940  Biso   1.000  H
  C25      1.0000 0.57790  0.80270  0.70260  Biso   1.000  C
  C26      1.0000 0.42210  0.30270  0.29740  Biso   1.000  C
  H47      1.0000 0.63640  0.75980  0.66820  Biso   1.000  H
  H48      1.0000 0.36360  0.25980  0.33180  Biso   1.000  H
  H49      1.0000 0.48720  0.77340  0.71130  Biso   1.000  H
  H50      1.0000 0.51280  0.27340  0.28870  Biso   1.000  H
  C27      1.0000 0.49650  0.85640  0.54790  Biso   1.000  C
  C28      1.0000 0.50350  0.35640  0.45210  Biso   1.000  C
  H51      1.0000 0.53260  0.89810  0.50020  Biso   1.000  H
  H52      1.0000 0.46740  0.39810  0.49980  Biso   1.000  H
  H53      1.0000 0.52670  0.79250  0.53430  Biso   1.000  H
  H54      1.0000 0.47330  0.29250  0.46570  Biso   1.000  H
  C29      1.0000 0.32520  0.86100  0.54240  Biso   1.000  C
  C30      1.0000 0.67480  0.36100  0.45760  Biso   1.000  C
  H55      1.0000 0.28540  0.85370  0.47780  Biso   1.000  H
  H56      1.0000 0.71460  0.35370  0.52220  Biso   1.000  H
  H57      1.0000 0.28480  0.81410  0.58320  Biso   1.000  H
  H58      1.0000 0.71520  0.31410  0.41680  Biso   1.000  H
  C31      1.0000 0.32090  0.26010  0.92700  Biso   1.000  C
  C32      1.0000 0.67910  0.76010  0.07300  Biso   1.000  C
  H59      1.0000 0.33830  0.19270  0.93330  Biso   1.000  H
  H60      1.0000 0.66170  0.69270  0.06670  Biso   1.000  H
  H61      1.0000 0.37890  0.29250  0.97580  Biso   1.000  H
  H62      1.0000 0.62110  0.79250  0.02420  Biso   1.000  H
  C33      1.0000 0.35830  0.29150  0.83410  Biso   1.000  C
  C34      1.0000 0.64170  0.79150  0.16590  Biso   1.000  C
  H63      1.0000 0.44940  0.26550  0.82010  Biso   1.000  H
  H64      1.0000 0.55060  0.76550  0.17990  Biso   1.000  H
  H65      1.0000 0.36590  0.35990  0.83380  Biso   1.000  H
  H66      1.0000 0.63410  0.85990  0.16620  Biso   1.000  H
  C35      1.0000 0.26820  0.30310  0.66840  Biso   1.000  C
  C36      1.0000 0.73180  0.80310  0.33160  Biso   1.000  C
  H67      1.0000 0.36200  0.28850  0.64850  Biso   1.000  H
  H68      1.0000 0.63800  0.78850  0.35150  Biso   1.000  H
  H69      1.0000 0.26000  0.37130  0.67360  Biso   1.000  H
  H70      1.0000 0.74000  0.87130  0.32640  Biso   1.000  H
  C37      1.0000 0.16340  0.26790  0.59890  Biso   1.000  C
  C38      1.0000 0.83660  0.76790  0.40110  Biso   1.000  C
  H71      1.0000 0.16220  0.19940  0.60260  Biso   1.000  H
  H72      1.0000 0.83780  0.69940  0.39740  Biso   1.000  H
  H73      1.0000 0.19170  0.28480  0.53600  Biso   1.000  H
  H74      1.0000 0.80830  0.78480  0.46400  Biso   1.000  H
  C39      1.0000 0.02060  0.30270  0.60940  Biso   1.000  C
  C40      1.0000 0.97940  0.80270  0.39060  Biso   1.000  C
  H75      1.0000 0.02250  0.37120  0.60800  Biso   1.000  H
  H76      1.0000 0.97750  0.87120  0.39200  Biso   1.000  H
  H77      1.0000 0.96140  0.28170  0.55480  Biso   1.000  H
  H78      1.0000 0.03860  0.78170  0.44520  Biso   1.000  H
  C41      1.0000 0.33090  0.60220  0.95380  Biso   1.000  C
  C42      1.0000 0.66910  0.10220  0.04620  Biso   1.000  C
  H79      1.0000 0.38950  0.62480  0.00790  Biso   1.000  H
  H80      1.0000 0.61050  0.12480  0.99210  Biso   1.000  H
  H81      1.0000 0.32960  0.53370  0.95770  Biso   1.000  H
  H82      1.0000 0.67040  0.03370  0.04230  Biso   1.000  H
  C43      1.0000 0.39630  0.62670  0.87230  Biso   1.000  C
  C44      1.0000 0.60370  0.12670  0.12770  Biso   1.000  C
  H83      1.0000 0.40860  0.69480  0.87400  Biso   1.000  H
  H84      1.0000 0.59140  0.19480  0.12600  Biso   1.000  H
  H85      1.0000 0.49010  0.59920  0.87770  Biso   1.000  H
  H86      1.0000 0.50990  0.09920  0.12230  Biso   1.000  H
  C45      1.0000 0.33990  0.60470  0.78330  Biso   1.000  C
  C46      1.0000 0.66010  0.10470  0.21670  Biso   1.000  C
  H87      1.0000 0.40500  0.62280  0.73580  Biso   1.000  H
  H88      1.0000 0.59500  0.12280  0.26420  Biso   1.000  H
  H89      1.0000 0.32410  0.53700  0.77840  Biso   1.000  H
  H90      1.0000 0.67590  0.03700  0.22160  Biso   1.000  H
  C47      1.0000 0.15150  0.63620  0.66160  Biso   1.000  C
  C48      1.0000 0.84850  0.13620  0.33840  Biso   1.000  C
  H91      1.0000 0.20460  0.67260  0.61740  Biso   1.000  H
  H92      1.0000 0.79540  0.17260  0.38260  Biso   1.000  H
  H93      1.0000 0.15680  0.57000  0.64430  Biso   1.000  H
  H94      1.0000 0.84320  0.07000  0.35570  Biso   1.000  H
  C49      1.0000 0.00200  0.66790  0.65710  Biso   1.000  C
  C50      1.0000 0.99800  0.16790  0.34290  Biso   1.000  C
  H95      1.0000 0.99900  0.73530  0.64460  Biso   1.000  H
  H96      1.0000 0.00100  0.23530  0.35540  Biso   1.000  H
  H97      1.0000 0.95160  0.63650  0.60400  Biso   1.000  H
  H98      1.0000 0.04840  0.13650  0.39600  Biso   1.000  H
  C51      1.0000 0.66730  0.88290  0.75420  Biso   1.000  C
  C52      1.0000 0.33270  0.38290  0.24580  Biso   1.000  C
  C53      1.0000 0.52690  0.80680  0.62840  Biso   1.000  C
  C54      1.0000 0.47310  0.30680  0.37160  Biso   1.000  C
  C55      1.0000 0.44450  0.82140  0.53310  Biso   1.000  C
  C56      1.0000 0.55550  0.32140  0.46690  Biso   1.000  C
  H99      1.0000 0.51170  0.83870  0.85310  Biso   1.000  H
  H100     1.0000 0.48830  0.33870  0.14690  Biso   1.000  H
  H101     1.0000 0.63980  0.89330  0.90640  Biso   1.000  H
  H102     1.0000 0.36020  0.39330  0.09360  Biso   1.000  H
  H103     1.0000 0.71890  0.82360  0.75470  Biso   1.000  H
  H104     1.0000 0.28110  0.32360  0.24530  Biso   1.000  H
  H105     1.0000 0.73530  0.93400  0.75420  Biso   1.000  H
  H106     1.0000 0.26470  0.43400  0.24580  Biso   1.000  H
  H107     1.0000 0.46820  0.77640  0.67370  Biso   1.000  H
  H108     1.0000 0.53180  0.27640  0.32630  Biso   1.000  H
  H109     1.0000 0.60950  0.76780  0.62050  Biso   1.000  H
  H110     1.0000 0.39050  0.26780  0.37950  Biso   1.000  H
  H111     1.0000 0.50000  0.86010  0.49230  Biso   1.000  H
  H112     1.0000 0.50000  0.36010  0.50770  Biso   1.000  H
  H113     1.0000 0.42950  0.76060  0.50220  Biso   1.000  H
  H114     1.0000 0.57050  0.26060  0.49780  Biso   1.000  H
  H115     1.0000 0.27350  0.81990  0.58330  Biso   1.000  H
  H116     1.0000 0.72650  0.31990  0.41670  Biso   1.000  H
  H117     1.0000 0.27570  0.85900  0.48020  Biso   1.000  H
  H118     1.0000 0.72430  0.35900  0.51980  Biso   1.000  H
  H119     1.0000 0.60900  0.91870  0.61050  Biso   1.000  H
  H120     1.0000 0.39100  0.41870  0.38950  Biso   1.000  H
  O43      1.0000 0.02200  0.56660  0.41300  Biso   1.000  O
  O44      1.0000 0.97800  0.06660  0.58700  Biso   1.000  O
  O45      1.0000 0.17500  0.49630  0.32930  Biso   1.000  O
  O46      1.0000 0.82500  0.99630  0.67070  Biso   1.000  O
  O47      1.0000 0.77800  0.47750  0.64310  Biso   1.000  O
  O48      1.0000 0.22200  0.97750  0.35690  Biso   1.000  O
  O49      1.0000 0.54380  0.47890  0.62350  Biso   1.000  O
  O50      1.0000 0.45620  0.97890  0.37650  Biso   1.000  O
  O51      1.0000 0.65800  0.37340  0.72830  Biso   1.000  O
  O52      1.0000 0.34200  0.87340  0.27170  Biso   1.000  O
