data_image0
_cell_length_a       7.6635
_cell_length_b       16.6979
_cell_length_c       18.7534
_cell_angle_alpha    90
_cell_angle_beta     90.612
_cell_angle_gamma    90

_symmetry_space_group_name_H-M    "P 1"
_symmetry_int_tables_number       1

loop_
  _symmetry_equiv_pos_as_xyz
  'x, y, z'

loop_
  _atom_site_label
  _atom_site_occupancy
  _atom_site_fract_x
  _atom_site_fract_y
  _atom_site_fract_z
  _atom_site_thermal_displace_type
  _atom_site_B_iso_or_equiv
  _atom_site_type_symbol
  Cu1      1.0000 0.94995  0.14599  0.78966  Biso   1.000  Cu
  Cu2      1.0000 0.55005  0.64599  0.71034  Biso   1.000  Cu
  Cu3      1.0000 0.05005  0.85401  0.21034  Biso   1.000  Cu
  Cu4      1.0000 0.44995  0.35401  0.28966  Biso   1.000  Cu
  N1       1.0000 0.93025  0.03170  0.82219  Biso   1.000  N
  N2       1.0000 0.56975  0.53170  0.67781  Biso   1.000  N
  N3       1.0000 0.06975  0.96830  0.17781  Biso   1.000  N
  N4       1.0000 0.43025  0.46830  0.32219  Biso   1.000  N
  N5       1.0000 0.98200  0.97129  0.77815  Biso   1.000  N
  N6       1.0000 0.51800  0.47129  0.72185  Biso   1.000  N
  N7       1.0000 0.01800  0.02871  0.22185  Biso   1.000  N
  N8       1.0000 0.48200  0.52871  0.27815  Biso   1.000  N
  N9       1.0000 0.85425  0.11118  0.69256  Biso   1.000  N
  N10      1.0000 0.64575  0.61118  0.80744  Biso   1.000  N
  N11      1.0000 0.14575  0.88882  0.30744  Biso   1.000  N
  N12      1.0000 0.35425  0.38882  0.19256  Biso   1.000  N
  H1       1.0000 0.73690  0.10090  0.70070  Biso   1.000  H
  H2       1.0000 0.76310  0.60090  0.79930  Biso   1.000  H
  H3       1.0000 0.26310  0.89910  0.29930  Biso   1.000  H
  H4       1.0000 0.23690  0.39910  0.20070  Biso   1.000  H
  N13      1.0000 0.02625  0.28097  0.69123  Biso   1.000  N
  N14      1.0000 0.47375  0.78097  0.80877  Biso   1.000  N
  N15      1.0000 0.97375  0.71903  0.30877  Biso   1.000  N
  N16      1.0000 0.52625  0.21903  0.19123  Biso   1.000  N
  N17      1.0000 0.97602  0.26168  0.75902  Biso   1.000  N
  N18      1.0000 0.52398  0.76168  0.74098  Biso   1.000  N
  N19      1.0000 0.02398  0.73832  0.24098  Biso   1.000  N
  N20      1.0000 0.47602  0.23832  0.25902  Biso   1.000  N
  O1       1.0000 0.64537  0.16269  0.81510  Biso   1.000  O
  O2       1.0000 0.85463  0.66269  0.68490  Biso   1.000  O
  O3       1.0000 0.35463  0.83731  0.18490  Biso   1.000  O
  O4       1.0000 0.14537  0.33731  0.31510  Biso   1.000  O
  O5       1.0000 0.62943  0.22702  0.96291  Biso   1.000  O
  O6       1.0000 0.87057  0.72702  0.53709  Biso   1.000  O
  O7       1.0000 0.37057  0.77298  0.03709  Biso   1.000  O
  O8       1.0000 0.12943  0.27298  0.46291  Biso   1.000  O
  O9       1.0000 0.27991  0.13643  0.76757  Biso   1.000  O
  O10      1.0000 0.22009  0.63643  0.73243  Biso   1.000  O
  O11      1.0000 0.72009  0.86357  0.23243  Biso   1.000  O
  O12      1.0000 0.77991  0.36357  0.26757  Biso   1.000  O
  O13      1.0000 0.05307  0.17314  0.88410  Biso   1.000  O
  O14      1.0000 0.44693  0.67314  0.61590  Biso   1.000  O
  O15      1.0000 0.94693  0.82686  0.11590  Biso   1.000  O
  O16      1.0000 0.55307  0.32686  0.38410  Biso   1.000  O
  O17      1.0000 0.26581  0.22522  0.00629  Biso   1.000  O
  O18      1.0000 0.23419  0.72522  0.49371  Biso   1.000  O
  O19      1.0000 0.73419  0.77478  0.99371  Biso   1.000  O
  O20      1.0000 0.76581  0.27478  0.50629  Biso   1.000  O
  O21      1.0000 0.92968  0.26309  0.04977  Biso   1.000  O
  O22      1.0000 0.57032  0.76309  0.45023  Biso   1.000  O
  O23      1.0000 0.07032  0.73691  0.95023  Biso   1.000  O
  O24      1.0000 0.42968  0.23691  0.54977  Biso   1.000  O
  H5       1.0000 0.85000  0.25130  0.02080  Biso   1.000  H
  H6       1.0000 0.65000  0.75130  0.47920  Biso   1.000  H
  H7       1.0000 0.15000  0.74870  0.97920  Biso   1.000  H
  H8       1.0000 0.35000  0.24870  0.52080  Biso   1.000  H
  H9       1.0000 0.02300  0.25080  0.03200  Biso   1.000  H
  H10      1.0000 0.47700  0.75080  0.46800  Biso   1.000  H
  H11      1.0000 0.97700  0.74920  0.96800  Biso   1.000  H
  H12      1.0000 0.52300  0.24920  0.53200  Biso   1.000  H
  C1       1.0000 0.80240  0.04176  0.94360  Biso   1.000  C
  C2       1.0000 0.69760  0.54176  0.55640  Biso   1.000  C
  C3       1.0000 0.19760  0.95824  0.05640  Biso   1.000  C
  C4       1.0000 0.30240  0.45824  0.44360  Biso   1.000  C
  H13      1.0000 0.83830  0.09800  0.94020  Biso   1.000  H
  H14      1.0000 0.66170  0.59800  0.55980  Biso   1.000  H
  H15      1.0000 0.16170  0.90200  0.05980  Biso   1.000  H
  H16      1.0000 0.33830  0.40200  0.44020  Biso   1.000  H
  H17      1.0000 0.84710  0.01890  0.98830  Biso   1.000  H
  H18      1.0000 0.65290  0.51890  0.51170  Biso   1.000  H
  H19      1.0000 0.15290  0.98110  0.01170  Biso   1.000  H
  H20      1.0000 0.34710  0.48110  0.48830  Biso   1.000  H
  H21      1.0000 0.67480  0.03840  0.94260  Biso   1.000  H
  H22      1.0000 0.82520  0.53840  0.55740  Biso   1.000  H
  H23      1.0000 0.32520  0.96160  0.05740  Biso   1.000  H
  H24      1.0000 0.17480  0.46160  0.44260  Biso   1.000  H
  C5       1.0000 0.87456  0.99588  0.88198  Biso   1.000  C
  C6       1.0000 0.62544  0.49588  0.61802  Biso   1.000  C
  C7       1.0000 0.12544  0.00412  0.11802  Biso   1.000  C
  C8       1.0000 0.37456  0.50412  0.38198  Biso   1.000  C
  C9       1.0000 0.89246  0.91326  0.87564  Biso   1.000  C
  C10      1.0000 0.60754  0.41326  0.62436  Biso   1.000  C
  C11      1.0000 0.10754  0.08674  0.12436  Biso   1.000  C
  C12      1.0000 0.39246  0.58674  0.37564  Biso   1.000  C
  H25      1.0000 0.86310  0.87430  0.91040  Biso   1.000  H
  H26      1.0000 0.63690  0.37430  0.58960  Biso   1.000  H
  H27      1.0000 0.13690  0.12570  0.08960  Biso   1.000  H
  H28      1.0000 0.36310  0.62570  0.41040  Biso   1.000  H
  C13      1.0000 0.96109  0.89894  0.80915  Biso   1.000  C
  C14      1.0000 0.53891  0.39894  0.69085  Biso   1.000  C
  C15      1.0000 0.03891  0.10106  0.19085  Biso   1.000  C
  C16      1.0000 0.46109  0.60106  0.30915  Biso   1.000  C
  C17      1.0000 0.00590  0.82233  0.77330  Biso   1.000  C
  C18      1.0000 0.49410  0.32233  0.72670  Biso   1.000  C
  C19      1.0000 0.99410  0.17767  0.22670  Biso   1.000  C
  C20      1.0000 0.50590  0.67767  0.27330  Biso   1.000  C
  H29      1.0000 0.91440  0.80880  0.73840  Biso   1.000  H
  H30      1.0000 0.58560  0.30880  0.76160  Biso   1.000  H
  H31      1.0000 0.08560  0.19120  0.26160  Biso   1.000  H
  H32      1.0000 0.41440  0.69120  0.23840  Biso   1.000  H
  H33      1.0000 0.01520  0.77960  0.80900  Biso   1.000  H
  H34      1.0000 0.48480  0.27960  0.69100  Biso   1.000  H
  H35      1.0000 0.98480  0.22040  0.19100  Biso   1.000  H
  H36      1.0000 0.51520  0.72040  0.30900  Biso   1.000  H
  H37      1.0000 0.11760  0.82810  0.74890  Biso   1.000  H
  H38      1.0000 0.38240  0.32810  0.75110  Biso   1.000  H
  H39      1.0000 0.88240  0.17190  0.25110  Biso   1.000  H
  H40      1.0000 0.61760  0.67190  0.24890  Biso   1.000  H
  C21      1.0000 0.05200  0.99108  0.70895  Biso   1.000  C
  C22      1.0000 0.44800  0.49108  0.79105  Biso   1.000  C
  C23      1.0000 0.94800  0.00892  0.29105  Biso   1.000  C
  C24      1.0000 0.55200  0.50892  0.20895  Biso   1.000  C
  H41      1.0000 0.08870  0.94120  0.68480  Biso   1.000  H
  H42      1.0000 0.41130  0.44120  0.81520  Biso   1.000  H
  H43      1.0000 0.91130  0.05880  0.31520  Biso   1.000  H
  H44      1.0000 0.58870  0.55880  0.18480  Biso   1.000  H
  H45      1.0000 0.15670  0.02510  0.71550  Biso   1.000  H
  H46      1.0000 0.34330  0.52510  0.78450  Biso   1.000  H
  H47      1.0000 0.84330  0.97490  0.28450  Biso   1.000  H
  H48      1.0000 0.65670  0.47490  0.21550  Biso   1.000  H
  C25      1.0000 0.92190  0.03437  0.66214  Biso   1.000  C
  C26      1.0000 0.57810  0.53437  0.83786  Biso   1.000  C
  C27      1.0000 0.07810  0.96563  0.33786  Biso   1.000  C
  C28      1.0000 0.42190  0.46563  0.16214  Biso   1.000  C
  H49      1.0000 0.97720  0.04600  0.61580  Biso   1.000  H
  H50      1.0000 0.52280  0.54600  0.88420  Biso   1.000  H
  H51      1.0000 0.02280  0.95400  0.38420  Biso   1.000  H
  H52      1.0000 0.47720  0.45400  0.11580  Biso   1.000  H
  H53      1.0000 0.82180  0.99830  0.65270  Biso   1.000  H
  H54      1.0000 0.67820  0.49830  0.84730  Biso   1.000  H
  H55      1.0000 0.17820  0.00170  0.34730  Biso   1.000  H
  H56      1.0000 0.32180  0.50170  0.15270  Biso   1.000  H
  C29      1.0000 0.85222  0.17440  0.63723  Biso   1.000  C
  C30      1.0000 0.64778  0.67440  0.86277  Biso   1.000  C
  C31      1.0000 0.14778  0.82560  0.36277  Biso   1.000  C
  C32      1.0000 0.35222  0.32560  0.13723  Biso   1.000  C
  H57      1.0000 0.75610  0.21240  0.64680  Biso   1.000  H
  H58      1.0000 0.74390  0.71240  0.85320  Biso   1.000  H
  H59      1.0000 0.24390  0.78760  0.35320  Biso   1.000  H
  H60      1.0000 0.25610  0.28760  0.14680  Biso   1.000  H
  H61      1.0000 0.83010  0.14980  0.59000  Biso   1.000  H
  H62      1.0000 0.66990  0.64980  0.91000  Biso   1.000  H
  H63      1.0000 0.16990  0.85020  0.41000  Biso   1.000  H
  H64      1.0000 0.33010  0.35020  0.09000  Biso   1.000  H
  C33      1.0000 0.02379  0.21953  0.63586  Biso   1.000  C
  C34      1.0000 0.47621  0.71953  0.86414  Biso   1.000  C
  C35      1.0000 0.97621  0.78047  0.36414  Biso   1.000  C
  C36      1.0000 0.52379  0.28047  0.13586  Biso   1.000  C
  H65      1.0000 0.12160  0.18180  0.64380  Biso   1.000  H
  H66      1.0000 0.37840  0.68180  0.85620  Biso   1.000  H
  H67      1.0000 0.87840  0.81820  0.35620  Biso   1.000  H
  H68      1.0000 0.62160  0.31820  0.14380  Biso   1.000  H
  H69      1.0000 0.03880  0.24480  0.58860  Biso   1.000  H
  H70      1.0000 0.46120  0.74480  0.91140  Biso   1.000  H
  H71      1.0000 0.96120  0.75520  0.41140  Biso   1.000  H
  H72      1.0000 0.53880  0.25520  0.08860  Biso   1.000  H
  C37      1.0000 0.09930  0.39886  0.61524  Biso   1.000  C
  C38      1.0000 0.40070  0.89886  0.88476  Biso   1.000  C
  C39      1.0000 0.90070  0.60114  0.38476  Biso   1.000  C
  C40      1.0000 0.59930  0.10114  0.11524  Biso   1.000  C
  H73      1.0000 0.21010  0.37590  0.59940  Biso   1.000  H
  H74      1.0000 0.28990  0.87590  0.90060  Biso   1.000  H
  H75      1.0000 0.78990  0.62410  0.40060  Biso   1.000  H
  H76      1.0000 0.71010  0.12410  0.09940  Biso   1.000  H
  H77      1.0000 0.11310  0.45670  0.62240  Biso   1.000  H
  H78      1.0000 0.38690  0.95670  0.87760  Biso   1.000  H
  H79      1.0000 0.88690  0.54330  0.37760  Biso   1.000  H
  H80      1.0000 0.61310  0.04330  0.12240  Biso   1.000  H
  H81      1.0000 0.00890  0.38910  0.57890  Biso   1.000  H
  H82      1.0000 0.49110  0.88910  0.92110  Biso   1.000  H
  H83      1.0000 0.99110  0.61090  0.42110  Biso   1.000  H
  H84      1.0000 0.50890  0.11090  0.07890  Biso   1.000  H
  C41      1.0000 0.04729  0.36067  0.68370  Biso   1.000  C
  C42      1.0000 0.45271  0.86067  0.81630  Biso   1.000  C
  C43      1.0000 0.95271  0.63933  0.31630  Biso   1.000  C
  C44      1.0000 0.54729  0.13933  0.18370  Biso   1.000  C
  C45      1.0000 0.01275  0.39461  0.74909  Biso   1.000  C
  C46      1.0000 0.48725  0.89461  0.75091  Biso   1.000  C
  C47      1.0000 0.98725  0.60539  0.25091  Biso   1.000  C
  C48      1.0000 0.51275  0.10539  0.24909  Biso   1.000  C
  H85      1.0000 0.01820  0.44990  0.76100  Biso   1.000  H
  H86      1.0000 0.48180  0.94990  0.73900  Biso   1.000  H
  H87      1.0000 0.98180  0.55010  0.23900  Biso   1.000  H
  H88      1.0000 0.51820  0.05010  0.26100  Biso   1.000  H
  C49      1.0000 0.96814  0.33161  0.79440  Biso   1.000  C
  C50      1.0000 0.53186  0.83161  0.70560  Biso   1.000  C
  C51      1.0000 0.03186  0.66839  0.20560  Biso   1.000  C
  C52      1.0000 0.46814  0.16839  0.29440  Biso   1.000  C
  C53      1.0000 0.91630  0.33777  0.87062  Biso   1.000  C
  C54      1.0000 0.58370  0.83777  0.62938  Biso   1.000  C
  C55      1.0000 0.08370  0.66223  0.12938  Biso   1.000  C
  C56      1.0000 0.41630  0.16223  0.37062  Biso   1.000  C
  H89      1.0000 0.83680  0.29380  0.88220  Biso   1.000  H
  H90      1.0000 0.66320  0.79380  0.61780  Biso   1.000  H
  H91      1.0000 0.16320  0.70620  0.11780  Biso   1.000  H
  H92      1.0000 0.33680  0.20620  0.38220  Biso   1.000  H
  H93      1.0000 0.85740  0.38910  0.87850  Biso   1.000  H
  H94      1.0000 0.64260  0.88910  0.62150  Biso   1.000  H
  H95      1.0000 0.14260  0.61090  0.12150  Biso   1.000  H
  H96      1.0000 0.35740  0.11090  0.37850  Biso   1.000  H
  H97      1.0000 0.02050  0.33450  0.90120  Biso   1.000  H
  H98      1.0000 0.47950  0.83450  0.59880  Biso   1.000  H
  H99      1.0000 0.97950  0.66550  0.09880  Biso   1.000  H
  H100     1.0000 0.52050  0.16550  0.40120  Biso   1.000  H
  C57      1.0000 0.51340  0.17310  0.85139  Biso   1.000  C
  C58      1.0000 0.98660  0.67310  0.64861  Biso   1.000  C
  C59      1.0000 0.48660  0.82690  0.14861  Biso   1.000  C
  C60      1.0000 0.01340  0.32690  0.35139  Biso   1.000  C
  C61      1.0000 0.50538  0.20382  0.92557  Biso   1.000  C
  C62      1.0000 0.99462  0.70382  0.57443  Biso   1.000  C
  C63      1.0000 0.49462  0.79618  0.07443  Biso   1.000  C
  C64      1.0000 0.00538  0.29618  0.42557  Biso   1.000  C
  C65      1.0000 0.33235  0.15929  0.82760  Biso   1.000  C
  C66      1.0000 0.16765  0.65929  0.67240  Biso   1.000  C
  C67      1.0000 0.66765  0.84071  0.17240  Biso   1.000  C
  C68      1.0000 0.83235  0.34071  0.32760  Biso   1.000  C
  C69      1.0000 0.21702  0.17770  0.88632  Biso   1.000  C
  C70      1.0000 0.28298  0.67770  0.61368  Biso   1.000  C
  C71      1.0000 0.78298  0.82230  0.11368  Biso   1.000  C
  C72      1.0000 0.71702  0.32230  0.38632  Biso   1.000  C
  C73      1.0000 0.32047  0.20416  0.94739  Biso   1.000  C
  C74      1.0000 0.17953  0.70416  0.55261  Biso   1.000  C
  C75      1.0000 0.67953  0.79584  0.05261  Biso   1.000  C
  C76      1.0000 0.82047  0.29584  0.44739  Biso   1.000  C
