data_image0
_cell_length_a       8.3075
_cell_length_b       9.4725
_cell_length_c       10.019
_cell_angle_alpha    91.088
_cell_angle_beta     104.063
_cell_angle_gamma    101.88

_symmetry_space_group_name_H-M    "P 1"
_symmetry_int_tables_number       1

loop_
  _symmetry_equiv_pos_as_xyz
  'x, y, z'

loop_
  _atom_site_label
  _atom_site_occupancy
  _atom_site_fract_x
  _atom_site_fract_y
  _atom_site_fract_z
  _atom_site_thermal_displace_type
  _atom_site_B_iso_or_equiv
  _atom_site_type_symbol
  Cu1      1.0000 0.00000  0.00000  0.00000  Biso   1.000  Cu
  O1       1.0000 0.72870  0.04680  0.04510  Biso   1.000  O
  O2       1.0000 0.27130  0.95320  0.95490  Biso   1.000  O
  O3       1.0000 0.63900  0.21970  0.12560  Biso   1.000  O
  O4       1.0000 0.36100  0.78030  0.87440  Biso   1.000  O
  O5       1.0000 0.66790  0.03480  0.24430  Biso   1.000  O
  O6       1.0000 0.33210  0.96520  0.75570  Biso   1.000  O
  O7       1.0000 0.44580  0.78160  0.15140  Biso   1.000  O
  O8       1.0000 0.55420  0.21840  0.84860  Biso   1.000  O
  N1       1.0000 0.06870  0.20700  0.95510  Biso   1.000  N
  N2       1.0000 0.93130  0.79300  0.04490  Biso   1.000  N
  N3       1.0000 0.03860  0.41210  0.86450  Biso   1.000  N
  N4       1.0000 0.96140  0.58790  0.13550  Biso   1.000  N
  N5       1.0000 0.86840  0.95540  0.80300  Biso   1.000  N
  N6       1.0000 0.13160  0.04460  0.19700  Biso   1.000  N
  N7       1.0000 0.66640  0.88490  0.61380  Biso   1.000  N
  N8       1.0000 0.33360  0.11510  0.38620  Biso   1.000  N
  N9       1.0000 0.68030  0.10390  0.13760  Biso   1.000  N
  N10      1.0000 0.31970  0.89610  0.86240  Biso   1.000  N
  C1       1.0000 0.95940  0.28330  0.89540  Biso   1.000  C
  C2       1.0000 0.04060  0.71670  0.10460  Biso   1.000  C
  H1       1.0000 0.83950  0.25130  0.87650  Biso   1.000  H
  H2       1.0000 0.16050  0.74870  0.12350  Biso   1.000  H
  C3       1.0000 0.20910  0.41760  0.90580  Biso   1.000  C
  C4       1.0000 0.79090  0.58240  0.09420  Biso   1.000  C
  H3       1.0000 0.29800  0.49520  0.89720  Biso   1.000  H
  H4       1.0000 0.70200  0.50480  0.10280  Biso   1.000  H
  C5       1.0000 0.22680  0.29070  0.96150  Biso   1.000  C
  C6       1.0000 0.77320  0.70930  0.03850  Biso   1.000  C
  H5       1.0000 0.33190  0.26390  0.99900  Biso   1.000  H
  H6       1.0000 0.66810  0.73610  0.00100  Biso   1.000  H
  C7       1.0000 0.95880  0.51520  0.77990  Biso   1.000  C
  C8       1.0000 0.04120  0.48480  0.22010  Biso   1.000  C
  H7       1.0000 0.00960  0.61440  0.82300  Biso   1.000  H
  H8       1.0000 0.99040  0.38560  0.17700  Biso   1.000  H
  H9       1.0000 0.83590  0.49470  0.77610  Biso   1.000  H
  H10      1.0000 0.16410  0.50530  0.22390  Biso   1.000  H
  C9       1.0000 0.98140  0.50700  0.63480  Biso   1.000  C
  C10      1.0000 0.01860  0.49300  0.36520  Biso   1.000  C
  C11      1.0000 0.02150  0.63120  0.56970  Biso   1.000  C
  C12      1.0000 0.97850  0.36880  0.43030  Biso   1.000  C
  C13      1.0000 0.96040  0.37550  0.56350  Biso   1.000  C
  C14      1.0000 0.03960  0.62450  0.43650  Biso   1.000  C
  C15      1.0000 0.70730  0.89390  0.75190  Biso   1.000  C
  C16      1.0000 0.29270  0.10610  0.24810  Biso   1.000  C
  H11      1.0000 0.62980  0.86010  0.80600  Biso   1.000  H
  H12      1.0000 0.37020  0.13990  0.19400  Biso   1.000  H
  C17      1.0000 0.80950  0.94530  0.57450  Biso   1.000  C
  C18      1.0000 0.19050  0.05470  0.42550  Biso   1.000  C
  H13      1.0000 0.81980  0.95500  0.48260  Biso   1.000  H
  H14      1.0000 0.18020  0.04500  0.51740  Biso   1.000  H
  C19      1.0000 0.93390  0.98870  0.69100  Biso   1.000  C
  C20      1.0000 0.06610  0.01130  0.30900  Biso   1.000  C
  H15      1.0000 0.04820  0.03470  0.69510  Biso   1.000  H
  H16      1.0000 0.95180  0.96530  0.30490  Biso   1.000  H
  C21      1.0000 0.50290  0.80700  0.52430  Biso   1.000  C
  C22      1.0000 0.49710  0.19300  0.47570  Biso   1.000  C
  H17      1.0000 0.48590  0.84590  0.43210  Biso   1.000  H
  H18      1.0000 0.51410  0.15410  0.56790  Biso   1.000  H
  H19      1.0000 0.40910  0.82200  0.56410  Biso   1.000  H
  H20      1.0000 0.59090  0.17800  0.43590  Biso   1.000  H
  C23      1.0000 0.49860  0.64650  0.50990  Biso   1.000  C
  C24      1.0000 0.50140  0.35350  0.49010  Biso   1.000  C
  C25      1.0000 0.45340  0.55870  0.60760  Biso   1.000  C
  C26      1.0000 0.54660  0.44130  0.39240  Biso   1.000  C
  C27      1.0000 0.54560  0.58770  0.40140  Biso   1.000  C
  C28      1.0000 0.45440  0.41230  0.59860  Biso   1.000  C
  H21      1.0000 0.41800  0.59700  0.67600  Biso   1.000  H
  H22      1.0000 0.58200  0.40300  0.32400  Biso   1.000  H
  H23      1.0000 0.57800  0.65000  0.33200  Biso   1.000  H
  H24      1.0000 0.42200  0.35000  0.66800  Biso   1.000  H
  H25      1.0000 0.03300  0.71900  0.61700  Biso   1.000  H
  H26      1.0000 0.96700  0.28100  0.38300  Biso   1.000  H
  H27      1.0000 0.93200  0.29100  0.60500  Biso   1.000  H
  H28      1.0000 0.06800  0.70900  0.39500  Biso   1.000  H
