data_image0
_cell_length_a       16.4146
_cell_length_b       13.1199
_cell_length_c       18.3187
_cell_angle_alpha    90
_cell_angle_beta     90
_cell_angle_gamma    90

_symmetry_space_group_name_H-M    "P 1"
_symmetry_int_tables_number       1

loop_
  _symmetry_equiv_pos_as_xyz
  'x, y, z'

loop_
  _atom_site_label
  _atom_site_occupancy
  _atom_site_fract_x
  _atom_site_fract_y
  _atom_site_fract_z
  _atom_site_thermal_displace_type
  _atom_site_B_iso_or_equiv
  _atom_site_type_symbol
  Cu1      1.0000 0.34040  0.24154  0.44276  Biso   1.000  Cu
  Cu2      1.0000 0.65960  0.75846  0.94276  Biso   1.000  Cu
  Cu3      1.0000 0.84040  0.75846  0.44276  Biso   1.000  Cu
  Cu4      1.0000 0.15960  0.24154  0.94276  Biso   1.000  Cu
  S1       1.0000 0.16097  0.20415  0.62591  Biso   1.000  S
  S2       1.0000 0.83903  0.79585  0.12591  Biso   1.000  S
  S3       1.0000 0.66097  0.79585  0.62591  Biso   1.000  S
  S4       1.0000 0.33903  0.20415  0.12591  Biso   1.000  S
  S5       1.0000 0.18541  0.44858  0.60408  Biso   1.000  S
  S6       1.0000 0.81459  0.55142  0.10408  Biso   1.000  S
  S7       1.0000 0.68541  0.55142  0.60408  Biso   1.000  S
  S8       1.0000 0.31459  0.44858  0.10408  Biso   1.000  S
  S9       1.0000 0.19509  0.02247  0.28049  Biso   1.000  S
  S10      1.0000 0.80491  0.97753  0.78049  Biso   1.000  S
  S11      1.0000 0.69509  0.97753  0.28049  Biso   1.000  S
  S12      1.0000 0.30491  0.02247  0.78049  Biso   1.000  S
  S13      1.0000 0.16430  0.26630  0.25648  Biso   1.000  S
  S14      1.0000 0.83570  0.73370  0.75648  Biso   1.000  S
  S15      1.0000 0.66430  0.73370  0.25648  Biso   1.000  S
  S16      1.0000 0.33570  0.26630  0.75648  Biso   1.000  S
  O1       1.0000 0.16690  0.41310  0.67816  Biso   1.000  O
  O2       1.0000 0.83310  0.58690  0.17816  Biso   1.000  O
  O3       1.0000 0.66690  0.58690  0.67816  Biso   1.000  O
  O4       1.0000 0.33310  0.41310  0.17816  Biso   1.000  O
  N1       1.0000 0.25640  0.27090  0.36860  Biso   1.000  N
  N2       1.0000 0.74360  0.72910  0.86860  Biso   1.000  N
  N3       1.0000 0.75640  0.72910  0.36860  Biso   1.000  N
  N4       1.0000 0.24360  0.27090  0.86860  Biso   1.000  N
  O5       1.0000 0.24160  0.93000  0.28770  Biso   1.000  O
  O6       1.0000 0.75840  0.07000  0.78770  Biso   1.000  O
  O7       1.0000 0.74160  0.07000  0.28770  Biso   1.000  O
  O8       1.0000 0.25840  0.93000  0.78770  Biso   1.000  O
  N5       1.0000 0.43340  0.24510  0.51480  Biso   1.000  N
  N6       1.0000 0.56660  0.75490  0.01480  Biso   1.000  N
  N7       1.0000 0.93340  0.75490  0.51480  Biso   1.000  N
  N8       1.0000 0.06660  0.24510  0.01480  Biso   1.000  N
  O9       1.0000 0.17720  0.05660  0.20720  Biso   1.000  O
  O10      1.0000 0.82280  0.94340  0.70720  Biso   1.000  O
  O11      1.0000 0.67720  0.94340  0.20720  Biso   1.000  O
  O12      1.0000 0.32280  0.05660  0.70720  Biso   1.000  O
  N9       1.0000 0.43100  0.26800  0.37090  Biso   1.000  N
  N10      1.0000 0.56900  0.73200  0.87090  Biso   1.000  N
  N11      1.0000 0.93100  0.73200  0.37090  Biso   1.000  N
  N12      1.0000 0.06900  0.26800  0.87090  Biso   1.000  N
  O13      1.0000 0.22940  0.54340  0.59980  Biso   1.000  O
  O14      1.0000 0.77060  0.45660  0.09980  Biso   1.000  O
  O15      1.0000 0.72940  0.45660  0.59980  Biso   1.000  O
  O16      1.0000 0.27060  0.54340  0.09980  Biso   1.000  O
  N13      1.0000 0.23870  0.10270  0.52970  Biso   1.000  N
  N14      1.0000 0.76130  0.89730  0.02970  Biso   1.000  N
  N15      1.0000 0.73870  0.89730  0.52970  Biso   1.000  N
  N16      1.0000 0.26130  0.10270  0.02970  Biso   1.000  N
  N17      1.0000 0.24360  0.10510  0.32690  Biso   1.000  N
  N18      1.0000 0.75640  0.89490  0.82690  Biso   1.000  N
  N19      1.0000 0.74360  0.89490  0.32690  Biso   1.000  N
  N20      1.0000 0.25640  0.10510  0.82690  Biso   1.000  N
  N21      1.0000 0.25780  0.20400  0.51850  Biso   1.000  N
  N22      1.0000 0.74220  0.79600  0.01850  Biso   1.000  N
  N23      1.0000 0.75780  0.79600  0.51850  Biso   1.000  N
  N24      1.0000 0.24220  0.20400  0.01850  Biso   1.000  N
  N25      1.0000 0.23470  0.37190  0.35550  Biso   1.000  N
  N26      1.0000 0.76530  0.62810  0.85550  Biso   1.000  N
  N27      1.0000 0.73470  0.62810  0.35550  Biso   1.000  N
  N28      1.0000 0.26530  0.37190  0.85550  Biso   1.000  N
  C1       1.0000 0.50670  0.25900  0.48150  Biso   1.000  C
  C2       1.0000 0.49330  0.74100  0.98150  Biso   1.000  C
  C3       1.0000 0.00670  0.74100  0.48150  Biso   1.000  C
  C4       1.0000 0.99330  0.25900  0.98150  Biso   1.000  C
  N29      1.0000 0.87920  0.94790  0.43000  Biso   1.000  N
  N30      1.0000 0.12080  0.05210  0.93000  Biso   1.000  N
  N31      1.0000 0.37920  0.05210  0.43000  Biso   1.000  N
  N32      1.0000 0.62080  0.94790  0.93000  Biso   1.000  N
  H1       1.0000 0.87320  0.98390  0.46960  Biso   1.000  H
  H2       1.0000 0.12680  0.01610  0.96960  Biso   1.000  H
  H3       1.0000 0.37320  0.01610  0.46960  Biso   1.000  H
  H4       1.0000 0.62680  0.98390  0.96960  Biso   1.000  H
  H5       1.0000 0.83860  0.96140  0.40110  Biso   1.000  H
  H6       1.0000 0.16140  0.03860  0.90110  Biso   1.000  H
  H7       1.0000 0.33860  0.03860  0.40110  Biso   1.000  H
  H8       1.0000 0.66140  0.96140  0.90110  Biso   1.000  H
  C5       1.0000 0.58080  0.26300  0.51830  Biso   1.000  C
  C6       1.0000 0.41920  0.73700  0.01830  Biso   1.000  C
  C7       1.0000 0.08080  0.73700  0.51830  Biso   1.000  C
  C8       1.0000 0.91920  0.26300  0.01830  Biso   1.000  C
  N33      1.0000 0.23700  0.36900  0.55820  Biso   1.000  N
  N34      1.0000 0.76300  0.63100  0.05820  Biso   1.000  N
  N35      1.0000 0.73700  0.63100  0.55820  Biso   1.000  N
  N36      1.0000 0.26300  0.36900  0.05820  Biso   1.000  N
  C9       1.0000 0.02110  0.48090  0.59960  Biso   1.000  C
  C10      1.0000 0.97890  0.51910  0.09960  Biso   1.000  C
  C11      1.0000 0.52110  0.51910  0.59960  Biso   1.000  C
  C12      1.0000 0.47890  0.48090  0.09960  Biso   1.000  C
  H9       1.0000 0.02340  0.47840  0.65030  Biso   1.000  H
  H10      1.0000 0.97660  0.52160  0.15030  Biso   1.000  H
  H11      1.0000 0.52340  0.52160  0.65030  Biso   1.000  H
  H12      1.0000 0.47660  0.47840  0.15030  Biso   1.000  H
  N37      1.0000 0.87090  0.52880  0.45510  Biso   1.000  N
  N38      1.0000 0.12910  0.47120  0.95510  Biso   1.000  N
  N39      1.0000 0.37090  0.47120  0.45510  Biso   1.000  N
  N40      1.0000 0.62910  0.52880  0.95510  Biso   1.000  N
  H13      1.0000 0.87300  0.50870  0.41020  Biso   1.000  H
  H14      1.0000 0.12700  0.49130  0.91020  Biso   1.000  H
  H15      1.0000 0.37300  0.49130  0.41020  Biso   1.000  H
  H16      1.0000 0.62700  0.50870  0.91020  Biso   1.000  H
  H17      1.0000 0.83050  0.49860  0.47640  Biso   1.000  H
  H18      1.0000 0.16950  0.50140  0.97640  Biso   1.000  H
  H19      1.0000 0.33050  0.50140  0.47640  Biso   1.000  H
  H20      1.0000 0.66950  0.49860  0.97640  Biso   1.000  H
  C13      1.0000 0.94770  0.50070  0.56530  Biso   1.000  C
  C14      1.0000 0.05230  0.49930  0.06530  Biso   1.000  C
  C15      1.0000 0.44770  0.49930  0.56530  Biso   1.000  C
  C16      1.0000 0.55230  0.50070  0.06530  Biso   1.000  C
  H21      1.0000 0.90100  0.51140  0.59300  Biso   1.000  H
  H22      1.0000 0.09900  0.48860  0.09300  Biso   1.000  H
  H23      1.0000 0.40100  0.48860  0.59300  Biso   1.000  H
  H24      1.0000 0.59900  0.51140  0.09300  Biso   1.000  H
  C17      1.0000 0.49830  0.28130  0.25520  Biso   1.000  C
  C18      1.0000 0.50170  0.71870  0.75520  Biso   1.000  C
  C19      1.0000 0.99830  0.71870  0.25520  Biso   1.000  C
  C20      1.0000 0.00170  0.28130  0.75520  Biso   1.000  C
  H25      1.0000 0.49380  0.28570  0.20460  Biso   1.000  H
  H26      1.0000 0.50620  0.71430  0.70460  Biso   1.000  H
  H27      1.0000 0.99380  0.71430  0.20460  Biso   1.000  H
  H28      1.0000 0.00620  0.28570  0.70460  Biso   1.000  H
  C21      1.0000 0.42780  0.27610  0.29800  Biso   1.000  C
  C22      1.0000 0.57220  0.72390  0.79800  Biso   1.000  C
  C23      1.0000 0.92780  0.72390  0.29800  Biso   1.000  C
  C24      1.0000 0.07220  0.27610  0.79800  Biso   1.000  C
  H29      1.0000 0.37720  0.27820  0.27520  Biso   1.000  H
  H30      1.0000 0.62280  0.72180  0.77520  Biso   1.000  H
  H31      1.0000 0.87720  0.72180  0.27520  Biso   1.000  H
  H32      1.0000 0.12280  0.27820  0.77520  Biso   1.000  H
  C25      1.0000 0.95170  0.97110  0.39490  Biso   1.000  C
  C26      1.0000 0.04830  0.02890  0.89490  Biso   1.000  C
  C27      1.0000 0.45170  0.02890  0.39490  Biso   1.000  C
  C28      1.0000 0.54830  0.97110  0.89490  Biso   1.000  C
  C29      1.0000 0.43250  0.23370  0.58650  Biso   1.000  C
  C30      1.0000 0.56750  0.76630  0.08650  Biso   1.000  C
  C31      1.0000 0.93250  0.76630  0.58650  Biso   1.000  C
  C32      1.0000 0.06750  0.23370  0.08650  Biso   1.000  C
  H33      1.0000 0.38310  0.22180  0.60990  Biso   1.000  H
  H34      1.0000 0.61690  0.77820  0.10990  Biso   1.000  H
  H35      1.0000 0.88310  0.77820  0.60990  Biso   1.000  H
  H36      1.0000 0.11690  0.22180  0.10990  Biso   1.000  H
  C33      1.0000 0.08740  0.46900  0.48320  Biso   1.000  C
  C34      1.0000 0.91260  0.53100  0.98320  Biso   1.000  C
  C35      1.0000 0.58740  0.53100  0.48320  Biso   1.000  C
  C36      1.0000 0.41260  0.46900  0.98320  Biso   1.000  C
  H37      1.0000 0.13420  0.45850  0.45570  Biso   1.000  H
  H38      1.0000 0.86580  0.54150  0.95570  Biso   1.000  H
  H39      1.0000 0.63420  0.54150  0.45570  Biso   1.000  H
  H40      1.0000 0.36580  0.45850  0.95570  Biso   1.000  H
  C37      1.0000 0.57690  0.25420  0.59550  Biso   1.000  C
  C38      1.0000 0.42310  0.74580  0.09550  Biso   1.000  C
  C39      1.0000 0.07690  0.74580  0.59550  Biso   1.000  C
  C40      1.0000 0.92310  0.25420  0.09550  Biso   1.000  C
  H41      1.0000 0.62420  0.25870  0.62330  Biso   1.000  H
  H42      1.0000 0.37580  0.74130  0.12330  Biso   1.000  H
  H43      1.0000 0.12420  0.74130  0.62330  Biso   1.000  H
  H44      1.0000 0.87580  0.25870  0.12330  Biso   1.000  H
  C41      1.0000 0.65360  0.27690  0.40440  Biso   1.000  C
  C42      1.0000 0.34640  0.72310  0.90440  Biso   1.000  C
  C43      1.0000 0.15360  0.72310  0.40440  Biso   1.000  C
  C44      1.0000 0.84640  0.27690  0.90440  Biso   1.000  C
  H45      1.0000 0.70250  0.28040  0.37910  Biso   1.000  H
  H46      1.0000 0.29750  0.71960  0.87910  Biso   1.000  H
  H47      1.0000 0.20250  0.71960  0.37910  Biso   1.000  H
  H48      1.0000 0.79750  0.28040  0.87910  Biso   1.000  H
  C45      1.0000 0.57330  0.27990  0.28690  Biso   1.000  C
  C46      1.0000 0.42670  0.72010  0.78690  Biso   1.000  C
  C47      1.0000 0.07330  0.72010  0.28690  Biso   1.000  C
  C48      1.0000 0.92670  0.27990  0.78690  Biso   1.000  C
  H49      1.0000 0.62020  0.28210  0.25850  Biso   1.000  H
  H50      1.0000 0.37980  0.71790  0.75850  Biso   1.000  H
  H51      1.0000 0.12020  0.71790  0.25850  Biso   1.000  H
  H52      1.0000 0.87980  0.28210  0.75850  Biso   1.000  H
  C49      1.0000 0.95590  0.97870  0.31840  Biso   1.000  C
  C50      1.0000 0.04410  0.02130  0.81840  Biso   1.000  C
  C51      1.0000 0.45590  0.02130  0.31840  Biso   1.000  C
  C52      1.0000 0.54410  0.97870  0.81840  Biso   1.000  C
  H53      1.0000 0.90860  0.97140  0.29090  Biso   1.000  H
  H54      1.0000 0.09140  0.02860  0.79090  Biso   1.000  H
  H55      1.0000 0.40860  0.02860  0.29090  Biso   1.000  H
  H56      1.0000 0.59140  0.97140  0.79090  Biso   1.000  H
  C53      1.0000 0.94330  0.50460  0.48910  Biso   1.000  C
  C54      1.0000 0.05670  0.49540  0.98910  Biso   1.000  C
  C55      1.0000 0.44330  0.49540  0.48910  Biso   1.000  C
  C56      1.0000 0.55670  0.50460  0.98910  Biso   1.000  C
  C57      1.0000 0.10060  0.00510  0.32390  Biso   1.000  C
  C58      1.0000 0.89940  0.99490  0.82390  Biso   1.000  C
  C59      1.0000 0.60060  0.99490  0.32390  Biso   1.000  C
  C60      1.0000 0.39940  0.00510  0.82390  Biso   1.000  C
  C61      1.0000 0.02410  0.98140  0.43530  Biso   1.000  C
  C62      1.0000 0.97590  0.01860  0.93530  Biso   1.000  C
  C63      1.0000 0.52410  0.01860  0.43530  Biso   1.000  C
  C64      1.0000 0.47590  0.98140  0.93530  Biso   1.000  C
  H57      1.0000 0.02250  0.97670  0.48600  Biso   1.000  H
  H58      1.0000 0.97750  0.02330  0.98600  Biso   1.000  H
  H59      1.0000 0.52250  0.02330  0.48600  Biso   1.000  H
  H60      1.0000 0.47750  0.97670  0.98600  Biso   1.000  H
  C65      1.0000 0.09090  0.46490  0.55950  Biso   1.000  C
  C66      1.0000 0.90910  0.53510  0.05950  Biso   1.000  C
  C67      1.0000 0.59090  0.53510  0.55950  Biso   1.000  C
  C68      1.0000 0.40910  0.46490  0.05950  Biso   1.000  C
  C69      1.0000 0.09790  0.99870  0.40050  Biso   1.000  C
  C70      1.0000 0.90210  0.00130  0.90050  Biso   1.000  C
  C71      1.0000 0.59790  0.00130  0.40050  Biso   1.000  C
  C72      1.0000 0.40210  0.99870  0.90050  Biso   1.000  C
  H61      1.0000 0.14540  0.00600  0.42770  Biso   1.000  H
  H62      1.0000 0.85460  0.99400  0.92770  Biso   1.000  H
  H63      1.0000 0.64540  0.99400  0.42770  Biso   1.000  H
  H64      1.0000 0.35460  0.00600  0.92770  Biso   1.000  H
  C73      1.0000 0.02870  0.99660  0.28350  Biso   1.000  C
  C74      1.0000 0.97130  0.00340  0.78350  Biso   1.000  C
  C75      1.0000 0.52870  0.00340  0.28350  Biso   1.000  C
  C76      1.0000 0.47130  0.99660  0.78350  Biso   1.000  C
  H65      1.0000 0.03010  0.00310  0.23300  Biso   1.000  H
  H66      1.0000 0.96990  0.99690  0.73300  Biso   1.000  H
  H67      1.0000 0.53010  0.99690  0.23300  Biso   1.000  H
  H68      1.0000 0.46990  0.00310  0.73300  Biso   1.000  H
  C77      1.0000 0.22310  0.26960  0.56310  Biso   1.000  C
  C78      1.0000 0.77690  0.73040  0.06310  Biso   1.000  C
  C79      1.0000 0.72310  0.73040  0.56310  Biso   1.000  C
  C80      1.0000 0.27690  0.26960  0.06310  Biso   1.000  C
  C81      1.0000 0.01460  0.48840  0.44910  Biso   1.000  C
  C82      1.0000 0.98540  0.51160  0.94910  Biso   1.000  C
  C83      1.0000 0.51460  0.51160  0.44910  Biso   1.000  C
  C84      1.0000 0.48540  0.48840  0.94910  Biso   1.000  C
  H69      1.0000 0.01270  0.49090  0.39840  Biso   1.000  H
  H70      1.0000 0.98730  0.50910  0.89840  Biso   1.000  H
  H71      1.0000 0.51270  0.50910  0.39840  Biso   1.000  H
  H72      1.0000 0.48730  0.49090  0.89840  Biso   1.000  H
  C85      1.0000 0.18810  0.09130  0.58270  Biso   1.000  C
  C86      1.0000 0.81190  0.90870  0.08270  Biso   1.000  C
  C87      1.0000 0.68810  0.90870  0.58270  Biso   1.000  C
  C88      1.0000 0.31190  0.09130  0.08270  Biso   1.000  C
  C89      1.0000 0.50400  0.23920  0.62830  Biso   1.000  C
  C90      1.0000 0.49600  0.76080  0.12830  Biso   1.000  C
  C91      1.0000 0.00400  0.76080  0.62830  Biso   1.000  C
  C92      1.0000 0.99600  0.23920  0.12830  Biso   1.000  C
  H73      1.0000 0.50130  0.23260  0.67880  Biso   1.000  H
  H74      1.0000 0.49870  0.76740  0.17880  Biso   1.000  H
  H75      1.0000 0.00130  0.76740  0.67880  Biso   1.000  H
  H76      1.0000 0.99870  0.23260  0.17880  Biso   1.000  H
  C93      1.0000 0.18620  0.38110  0.29910  Biso   1.000  C
  C94      1.0000 0.81380  0.61890  0.79910  Biso   1.000  C
  C95      1.0000 0.68620  0.61890  0.29910  Biso   1.000  C
  C96      1.0000 0.31380  0.38110  0.79910  Biso   1.000  C
  C97      1.0000 0.22520  0.20460  0.32170  Biso   1.000  C
  C98      1.0000 0.77480  0.79540  0.82170  Biso   1.000  C
  C99      1.0000 0.72520  0.79540  0.32170  Biso   1.000  C
  C100     1.0000 0.27480  0.20460  0.82170  Biso   1.000  C
  C101     1.0000 0.65490  0.27360  0.47860  Biso   1.000  C
  C102     1.0000 0.34510  0.72640  0.97860  Biso   1.000  C
  C103     1.0000 0.15490  0.72640  0.47860  Biso   1.000  C
  C104     1.0000 0.84510  0.27360  0.97860  Biso   1.000  C
  H77      1.0000 0.70420  0.27830  0.50340  Biso   1.000  H
  H78      1.0000 0.29580  0.72170  0.00340  Biso   1.000  H
  H79      1.0000 0.20420  0.72170  0.50340  Biso   1.000  H
  H80      1.0000 0.79580  0.27830  0.00340  Biso   1.000  H
  C105     1.0000 0.57830  0.27500  0.36430  Biso   1.000  C
  C106     1.0000 0.42170  0.72500  0.86430  Biso   1.000  C
  C107     1.0000 0.07830  0.72500  0.36430  Biso   1.000  C
  C108     1.0000 0.92170  0.27500  0.86430  Biso   1.000  C
  C109     1.0000 0.50550  0.26800  0.40320  Biso   1.000  C
  C110     1.0000 0.49450  0.73200  0.90320  Biso   1.000  C
  C111     1.0000 0.00550  0.73200  0.40320  Biso   1.000  C
  C112     1.0000 0.99450  0.26800  0.90320  Biso   1.000  C
  C113     1.0000 0.15660  0.98980  0.60710  Biso   1.000  C
  C114     1.0000 0.84340  0.01020  0.10710  Biso   1.000  C
  C115     1.0000 0.65660  0.01020  0.60710  Biso   1.000  C
  C116     1.0000 0.34340  0.98980  0.10710  Biso   1.000  C
  H81      1.0000 0.17840  0.97390  0.65430  Biso   1.000  H
  H82      1.0000 0.82160  0.02610  0.15430  Biso   1.000  H
  H83      1.0000 0.67840  0.02610  0.65430  Biso   1.000  H
  H84      1.0000 0.32160  0.97390  0.15430  Biso   1.000  H
  H85      1.0000 0.17290  0.93840  0.57280  Biso   1.000  H
  H86      1.0000 0.82710  0.06160  0.07280  Biso   1.000  H
  H87      1.0000 0.67290  0.06160  0.57280  Biso   1.000  H
  H88      1.0000 0.32710  0.93840  0.07280  Biso   1.000  H
  H89      1.0000 0.09820  0.99210  0.60970  Biso   1.000  H
  H90      1.0000 0.90180  0.00790  0.10970  Biso   1.000  H
  H91      1.0000 0.59820  0.00790  0.60970  Biso   1.000  H
  H92      1.0000 0.40180  0.99210  0.10970  Biso   1.000  H
  C117     1.0000 0.15400  0.47990  0.27320  Biso   1.000  C
  C118     1.0000 0.84600  0.52010  0.77320  Biso   1.000  C
  C119     1.0000 0.65400  0.52010  0.27320  Biso   1.000  C
  C120     1.0000 0.34600  0.47990  0.77320  Biso   1.000  C
  H93      1.0000 0.17720  0.49550  0.22640  Biso   1.000  H
  H94      1.0000 0.82280  0.50450  0.72640  Biso   1.000  H
  H95      1.0000 0.67720  0.50450  0.22640  Biso   1.000  H
  H96      1.0000 0.32280  0.49550  0.72640  Biso   1.000  H
  H97      1.0000 0.16820  0.53240  0.30740  Biso   1.000  H
  H98      1.0000 0.83180  0.46760  0.80740  Biso   1.000  H
  H99      1.0000 0.66820  0.46760  0.30740  Biso   1.000  H
  H100     1.0000 0.33180  0.53240  0.80740  Biso   1.000  H
  H101     1.0000 0.09580  0.47580  0.26900  Biso   1.000  H
  H102     1.0000 0.90420  0.52420  0.76900  Biso   1.000  H
  H103     1.0000 0.59580  0.52420  0.26900  Biso   1.000  H
  H104     1.0000 0.40420  0.47580  0.76900  Biso   1.000  H
  O17      1.0000 0.20110  0.73390  0.75130  Biso   1.000  O
  O18      1.0000 0.79890  0.26610  0.25130  Biso   1.000  O
  O19      1.0000 0.70110  0.26610  0.75130  Biso   1.000  O
  O20      1.0000 0.29890  0.73390  0.25130  Biso   1.000  O
  H105     1.0000 0.23640  0.72700  0.71770  Biso   1.000  H
  H106     1.0000 0.76360  0.27300  0.21770  Biso   1.000  H
  H107     1.0000 0.73640  0.27300  0.71770  Biso   1.000  H
  H108     1.0000 0.26360  0.72700  0.21770  Biso   1.000  H
  H109     1.0000 0.20760  0.79130  0.77200  Biso   1.000  H
  H110     1.0000 0.79240  0.20870  0.27200  Biso   1.000  H
  H111     1.0000 0.70760  0.20870  0.77200  Biso   1.000  H
  H112     1.0000 0.29240  0.79130  0.27200  Biso   1.000  H
  O21      1.0000 0.45250  0.77980  0.57160  Biso   1.000  O
  O22      1.0000 0.54750  0.22020  0.07160  Biso   1.000  O
  O23      1.0000 0.95250  0.22020  0.57160  Biso   1.000  O
  O24      1.0000 0.04750  0.77980  0.07160  Biso   1.000  O
  N41      1.0000 0.45260  0.76370  0.44650  Biso   1.000  N
  N42      1.0000 0.54740  0.23630  0.94650  Biso   1.000  N
  N43      1.0000 0.95260  0.23630  0.44650  Biso   1.000  N
  N44      1.0000 0.04740  0.76370  0.94650  Biso   1.000  N
  C121     1.0000 0.48840  0.76840  0.51000  Biso   1.000  C
  C122     1.0000 0.51160  0.23160  0.01000  Biso   1.000  C
  C123     1.0000 0.98840  0.23160  0.51000  Biso   1.000  C
  C124     1.0000 0.01160  0.76840  0.01000  Biso   1.000  C
  H113     1.0000 0.54490  0.76310  0.51070  Biso   1.000  H
  H114     1.0000 0.45510  0.23690  0.01070  Biso   1.000  H
  H115     1.0000 0.04490  0.23690  0.51070  Biso   1.000  H
  H116     1.0000 0.95510  0.76310  0.01070  Biso   1.000  H
  C125     1.0000 0.36510  0.77170  0.44070  Biso   1.000  C
  C126     1.0000 0.63490  0.22830  0.94070  Biso   1.000  C
  C127     1.0000 0.86510  0.22830  0.44070  Biso   1.000  C
  C128     1.0000 0.13490  0.77170  0.94070  Biso   1.000  C
  H117     1.0000 0.34230  0.70530  0.43280  Biso   1.000  H
  H118     1.0000 0.65770  0.29470  0.93280  Biso   1.000  H
  H119     1.0000 0.84230  0.29470  0.43280  Biso   1.000  H
  H120     1.0000 0.15770  0.70530  0.93280  Biso   1.000  H
  H121     1.0000 0.35140  0.81530  0.40050  Biso   1.000  H
  H122     1.0000 0.64860  0.18470  0.90050  Biso   1.000  H
  H123     1.0000 0.85140  0.18470  0.40050  Biso   1.000  H
  H124     1.0000 0.14860  0.81530  0.90050  Biso   1.000  H
  H125     1.0000 0.34360  0.79990  0.48510  Biso   1.000  H
  H126     1.0000 0.65640  0.20010  0.98510  Biso   1.000  H
  H127     1.0000 0.84360  0.20010  0.48510  Biso   1.000  H
  H128     1.0000 0.15640  0.79990  0.98510  Biso   1.000  H
  C129     1.0000 0.49940  0.75040  0.37920  Biso   1.000  C
  C130     1.0000 0.50060  0.24960  0.87920  Biso   1.000  C
  C131     1.0000 0.99940  0.24960  0.37920  Biso   1.000  C
  C132     1.0000 0.00060  0.75040  0.87920  Biso   1.000  C
  H129     1.0000 0.49070  0.80790  0.34770  Biso   1.000  H
  H130     1.0000 0.50930  0.19210  0.84770  Biso   1.000  H
  H131     1.0000 0.99070  0.19210  0.34770  Biso   1.000  H
  H132     1.0000 0.00930  0.80790  0.84770  Biso   1.000  H
  H133     1.0000 0.48200  0.68930  0.35490  Biso   1.000  H
  H134     1.0000 0.51800  0.31070  0.85490  Biso   1.000  H
  H135     1.0000 0.98200  0.31070  0.35490  Biso   1.000  H
  H136     1.0000 0.01800  0.68930  0.85490  Biso   1.000  H
  H137     1.0000 0.55630  0.74520  0.39080  Biso   1.000  H
  H138     1.0000 0.44370  0.25480  0.89080  Biso   1.000  H
  H139     1.0000 0.05630  0.25480  0.39080  Biso   1.000  H
  H140     1.0000 0.94370  0.74520  0.89080  Biso   1.000  H
  O25      1.0000 0.41620  0.98860  0.58660  Biso   1.000  O
  O26      1.0000 0.58380  0.01140  0.08660  Biso   1.000  O
  O27      1.0000 0.91620  0.01140  0.58660  Biso   1.000  O
  O28      1.0000 0.08380  0.98860  0.08660  Biso   1.000  O
  H141     1.0000 0.40830  0.92480  0.58200  Biso   1.000  H
  H142     1.0000 0.59170  0.07520  0.08200  Biso   1.000  H
  H143     1.0000 0.90830  0.07520  0.58200  Biso   1.000  H
  H144     1.0000 0.09170  0.92480  0.08200  Biso   1.000  H
  H145     1.0000 0.39620  0.02040  0.63040  Biso   1.000  H
  H146     1.0000 0.60380  0.97960  0.13040  Biso   1.000  H
  H147     1.0000 0.89620  0.97960  0.63040  Biso   1.000  H
  H148     1.0000 0.10380  0.02040  0.13040  Biso   1.000  H
  O29      1.0000 0.11400  0.55100  0.79400  Biso   1.000  O
  O30      1.0000 0.88600  0.44900  0.29400  Biso   1.000  O
  O31      1.0000 0.61400  0.44900  0.79400  Biso   1.000  O
  O32      1.0000 0.38600  0.55100  0.29400  Biso   1.000  O
  H149     1.0000 0.14340  0.60430  0.79550  Biso   1.000  H
  H150     1.0000 0.85660  0.39570  0.29550  Biso   1.000  H
  H151     1.0000 0.64340  0.39570  0.79550  Biso   1.000  H
  H152     1.0000 0.35660  0.60430  0.29550  Biso   1.000  H
  H153     1.0000 0.13620  0.50720  0.76620  Biso   1.000  H
  H154     1.0000 0.86380  0.49280  0.26620  Biso   1.000  H
  H155     1.0000 0.63620  0.49280  0.76620  Biso   1.000  H
  H156     1.0000 0.36380  0.50720  0.26620  Biso   1.000  H
  O33      1.0000 0.30520  0.72110  0.63260  Biso   1.000  O
  O34      1.0000 0.69480  0.27890  0.13260  Biso   1.000  O
  O35      1.0000 0.80520  0.27890  0.63260  Biso   1.000  O
  O36      1.0000 0.19480  0.72110  0.13260  Biso   1.000  O
  H157     1.0000 0.34310  0.74460  0.60580  Biso   1.000  H
  H158     1.0000 0.65690  0.25540  0.10580  Biso   1.000  H
  H159     1.0000 0.84310  0.25540  0.60580  Biso   1.000  H
  H160     1.0000 0.15690  0.74460  0.10580  Biso   1.000  H
  H161     1.0000 0.29220  0.66190  0.61800  Biso   1.000  H
  H162     1.0000 0.70780  0.33810  0.11800  Biso   1.000  H
  H163     1.0000 0.79220  0.33810  0.61800  Biso   1.000  H
  H164     1.0000 0.20780  0.66190  0.11800  Biso   1.000  H
