data_image0
_cell_length_a       11.288
_cell_length_b       14.507
_cell_length_c       11.978
_cell_angle_alpha    90
_cell_angle_beta     94.17
_cell_angle_gamma    90

_symmetry_space_group_name_H-M    "P 1"
_symmetry_int_tables_number       1

loop_
  _symmetry_equiv_pos_as_xyz
  'x, y, z'

loop_
  _atom_site_label
  _atom_site_occupancy
  _atom_site_fract_x
  _atom_site_fract_y
  _atom_site_fract_z
  _atom_site_thermal_displace_type
  _atom_site_B_iso_or_equiv
  _atom_site_type_symbol
  C1       1.0000 0.11820  0.24190  0.79940  Biso   1.000  C
  C2       1.0000 0.38180  0.74190  0.70060  Biso   1.000  C
  C3       1.0000 0.88180  0.75810  0.20060  Biso   1.000  C
  C4       1.0000 0.61820  0.25810  0.29940  Biso   1.000  C
  Cu1      1.0000 0.12260  0.24452  0.36153  Biso   1.000  Cu
  Cu2      1.0000 0.37740  0.74452  0.13847  Biso   1.000  Cu
  Cu3      1.0000 0.87740  0.75548  0.63847  Biso   1.000  Cu
  Cu4      1.0000 0.62260  0.25548  0.86153  Biso   1.000  Cu
  O1       1.0000 0.25500  0.33000  0.38330  Biso   1.000  O
  O2       1.0000 0.24500  0.83000  0.11670  Biso   1.000  O
  O3       1.0000 0.74500  0.67000  0.61670  Biso   1.000  O
  O4       1.0000 0.75500  0.17000  0.88330  Biso   1.000  O
  O5       1.0000 0.98940  0.15880  0.34250  Biso   1.000  O
  O6       1.0000 0.51060  0.65880  0.15750  Biso   1.000  O
  O7       1.0000 0.01060  0.84120  0.65750  Biso   1.000  O
  O8       1.0000 0.48940  0.34120  0.84250  Biso   1.000  O
  N1       1.0000 0.12650  0.24550  0.15740  Biso   1.000  N
  N2       1.0000 0.37350  0.74550  0.34260  Biso   1.000  N
  N3       1.0000 0.87350  0.75450  0.84260  Biso   1.000  N
  N4       1.0000 0.62650  0.25450  0.65740  Biso   1.000  N
  C5       1.0000 0.99700  0.07290  0.34650  Biso   1.000  C
  C6       1.0000 0.50300  0.57290  0.15350  Biso   1.000  C
  C7       1.0000 0.00300  0.92710  0.65350  Biso   1.000  C
  C8       1.0000 0.49700  0.42710  0.84650  Biso   1.000  C
  C9       1.0000 0.21610  0.06280  0.38910  Biso   1.000  C
  C10      1.0000 0.28390  0.56280  0.11090  Biso   1.000  C
  C11      1.0000 0.78390  0.93720  0.61090  Biso   1.000  C
  C12      1.0000 0.71610  0.43720  0.88910  Biso   1.000  C
  C13      1.0000 0.92540  0.49460  0.32610  Biso   1.000  C
  C14      1.0000 0.57460  0.99460  0.17390  Biso   1.000  C
  C15      1.0000 0.07460  0.50540  0.67390  Biso   1.000  C
  C16      1.0000 0.42540  0.00540  0.82610  Biso   1.000  C
  C17      1.0000 0.14250  0.46370  0.37840  Biso   1.000  C
  C18      1.0000 0.35750  0.96370  0.12160  Biso   1.000  C
  C19      1.0000 0.85750  0.53630  0.62160  Biso   1.000  C
  C20      1.0000 0.64250  0.03630  0.87840  Biso   1.000  C
  C21      1.0000 0.36500  0.46360  0.42700  Biso   1.000  C
  C22      1.0000 0.13500  0.96360  0.07300  Biso   1.000  C
  C23      1.0000 0.63500  0.53640  0.57300  Biso   1.000  C
  C24      1.0000 0.86500  0.03640  0.92700  Biso   1.000  C
  C25      1.0000 0.22210  0.25630  0.74440  Biso   1.000  C
  C26      1.0000 0.27790  0.75630  0.75560  Biso   1.000  C
  C27      1.0000 0.77790  0.74370  0.25560  Biso   1.000  C
  C28      1.0000 0.72210  0.24370  0.24440  Biso   1.000  C
  C29      1.0000 0.01230  0.22890  0.73420  Biso   1.000  C
  C30      1.0000 0.48770  0.72890  0.76580  Biso   1.000  C
  C31      1.0000 0.98770  0.77110  0.26580  Biso   1.000  C
  C32      1.0000 0.51230  0.27110  0.23420  Biso   1.000  C
  C33      1.0000 0.12020  0.24320  0.92400  Biso   1.000  C
  C34      1.0000 0.37980  0.74320  0.57600  Biso   1.000  C
  C35      1.0000 0.87980  0.75680  0.07600  Biso   1.000  C
  C36      1.0000 0.62020  0.25680  0.42400  Biso   1.000  C
  C37      1.0000 0.03180  0.27720  0.09410  Biso   1.000  C
  C38      1.0000 0.46820  0.77720  0.40590  Biso   1.000  C
  C39      1.0000 0.96820  0.72280  0.90590  Biso   1.000  C
  C40      1.0000 0.53180  0.22280  0.59410  Biso   1.000  C
  C41      1.0000 0.22090  0.21080  0.98860  Biso   1.000  C
  C42      1.0000 0.27910  0.71080  0.51140  Biso   1.000  C
  C43      1.0000 0.77910  0.78920  0.01140  Biso   1.000  C
  C44      1.0000 0.72090  0.28920  0.48860  Biso   1.000  C
  O9       1.0000 0.23990  0.14600  0.37930  Biso   1.000  O
  O10      1.0000 0.26010  0.64600  0.12070  Biso   1.000  O
  O11      1.0000 0.76010  0.85400  0.62070  Biso   1.000  O
  O12      1.0000 0.73990  0.35400  0.87930  Biso   1.000  O
  O13      1.0000 0.00570  0.34510  0.34400  Biso   1.000  O
  O14      1.0000 0.49430  0.84510  0.15600  Biso   1.000  O
  O15      1.0000 0.99430  0.65490  0.65600  Biso   1.000  O
  O16      1.0000 0.50570  0.15490  0.84400  Biso   1.000  O
  N5       1.0000 0.11390  0.24210  0.56550  Biso   1.000  N
  N6       1.0000 0.38610  0.74210  0.93450  Biso   1.000  N
  N7       1.0000 0.88610  0.75790  0.43450  Biso   1.000  N
  N8       1.0000 0.61390  0.25790  0.06550  Biso   1.000  N
  C45      1.0000 0.88220  0.02120  0.32080  Biso   1.000  C
  C46      1.0000 0.61780  0.52120  0.17920  Biso   1.000  C
  C47      1.0000 0.11780  0.97880  0.67920  Biso   1.000  C
  C48      1.0000 0.38220  0.47880  0.82080  Biso   1.000  C
  C49      1.0000 0.10400  0.02470  0.37290  Biso   1.000  C
  C50      1.0000 0.39600  0.52470  0.12710  Biso   1.000  C
  C51      1.0000 0.89600  0.97530  0.62710  Biso   1.000  C
  C52      1.0000 0.60400  0.47530  0.87290  Biso   1.000  C
  C53      1.0000 0.32130  0.00180  0.41990  Biso   1.000  C
  C54      1.0000 0.17870  0.50180  0.08010  Biso   1.000  C
  C55      1.0000 0.67870  0.99820  0.58010  Biso   1.000  C
  C56      1.0000 0.82130  0.49820  0.91990  Biso   1.000  C
  C57      1.0000 0.02950  0.42800  0.35090  Biso   1.000  C
  C58      1.0000 0.47050  0.92800  0.14910  Biso   1.000  C
  C59      1.0000 0.97050  0.57200  0.64910  Biso   1.000  C
  C60      1.0000 0.52950  0.07200  0.85090  Biso   1.000  C
  C61      1.0000 0.24830  0.41440  0.39410  Biso   1.000  C
  C62      1.0000 0.25170  0.91440  0.10590  Biso   1.000  C
  C63      1.0000 0.75170  0.58560  0.60590  Biso   1.000  C
  C64      1.0000 0.74830  0.08560  0.89410  Biso   1.000  C
  C65      1.0000 0.21360  0.25690  0.62910  Biso   1.000  C
  C66      1.0000 0.28640  0.75690  0.87090  Biso   1.000  C
  C67      1.0000 0.78640  0.74310  0.37090  Biso   1.000  C
  C68      1.0000 0.71360  0.24310  0.12910  Biso   1.000  C
  C69      1.0000 0.01380  0.22790  0.61720  Biso   1.000  C
  C70      1.0000 0.48620  0.72790  0.88280  Biso   1.000  C
  C71      1.0000 0.98620  0.77210  0.38280  Biso   1.000  C
  C72      1.0000 0.51380  0.27210  0.11720  Biso   1.000  C
  C73      1.0000 0.02220  0.27620  0.97890  Biso   1.000  C
  C74      1.0000 0.47780  0.77620  0.52110  Biso   1.000  C
  C75      1.0000 0.97780  0.72380  0.02110  Biso   1.000  C
  C76      1.0000 0.52220  0.22380  0.47890  Biso   1.000  C
  C77      1.0000 0.21910  0.21250  0.10530  Biso   1.000  C
  C78      1.0000 0.28090  0.71250  0.39470  Biso   1.000  C
  C79      1.0000 0.78090  0.78750  0.89470  Biso   1.000  C
  C80      1.0000 0.71910  0.28750  0.60530  Biso   1.000  C
