data_image0
_cell_length_a       11.2162
_cell_length_b       14.3523
_cell_length_c       11.9411
_cell_angle_alpha    90
_cell_angle_beta     92.987
_cell_angle_gamma    90

_symmetry_space_group_name_H-M    "P 1"
_symmetry_int_tables_number       1

loop_
  _symmetry_equiv_pos_as_xyz
  'x, y, z'

loop_
  _atom_site_label
  _atom_site_occupancy
  _atom_site_fract_x
  _atom_site_fract_y
  _atom_site_fract_z
  _atom_site_thermal_displace_type
  _atom_site_B_iso_or_equiv
  _atom_site_type_symbol
  C1       1.0000 0.96970  0.93010  0.64210  Biso   1.000  C
  C2       1.0000 0.53030  0.43010  0.85790  Biso   1.000  C
  C3       1.0000 0.03030  0.06990  0.35790  Biso   1.000  C
  C4       1.0000 0.46970  0.56990  0.14210  Biso   1.000  C
  C5       1.0000 0.85620  0.97180  0.62590  Biso   1.000  C
  C6       1.0000 0.64380  0.47180  0.87410  Biso   1.000  C
  C7       1.0000 0.14380  0.02820  0.37410  Biso   1.000  C
  C8       1.0000 0.35620  0.52820  0.12590  Biso   1.000  C
  H1       1.0000 0.85120  0.03620  0.63300  Biso   1.000  H
  H2       1.0000 0.64880  0.53620  0.86700  Biso   1.000  H
  H3       1.0000 0.14880  0.96380  0.36700  Biso   1.000  H
  H4       1.0000 0.35120  0.46380  0.13300  Biso   1.000  H
  C9       1.0000 0.74970  0.92230  0.59970  Biso   1.000  C
  C10      1.0000 0.75030  0.42230  0.90030  Biso   1.000  C
  C11      1.0000 0.25030  0.07770  0.40030  Biso   1.000  C
  C12      1.0000 0.24970  0.57770  0.09970  Biso   1.000  C
  C13      1.0000 0.99950  0.57610  0.63980  Biso   1.000  C
  C14      1.0000 0.50050  0.07610  0.86020  Biso   1.000  C
  C15      1.0000 0.00050  0.42390  0.36020  Biso   1.000  C
  C16      1.0000 0.49950  0.92390  0.13980  Biso   1.000  C
  C17      1.0000 0.89540  0.52630  0.62540  Biso   1.000  C
  C18      1.0000 0.60460  0.02630  0.87460  Biso   1.000  C
  C19      1.0000 0.10460  0.47370  0.37460  Biso   1.000  C
  C20      1.0000 0.39540  0.97370  0.12540  Biso   1.000  C
  H5       1.0000 0.90130  0.46180  0.63110  Biso   1.000  H
  H6       1.0000 0.59870  0.96180  0.86890  Biso   1.000  H
  H7       1.0000 0.09870  0.53820  0.36890  Biso   1.000  H
  H8       1.0000 0.40130  0.03820  0.13110  Biso   1.000  H
  C21      1.0000 0.77840  0.56430  0.60240  Biso   1.000  C
  C22      1.0000 0.72160  0.06430  0.89760  Biso   1.000  C
  C23      1.0000 0.22160  0.43570  0.39760  Biso   1.000  C
  C24      1.0000 0.27840  0.93570  0.10240  Biso   1.000  C
  C25      1.0000 0.76870  0.73290  0.87460  Biso   1.000  C
  C26      1.0000 0.73130  0.23290  0.62540  Biso   1.000  C
  C27      1.0000 0.23130  0.26710  0.12540  Biso   1.000  C
  C28      1.0000 0.26870  0.76710  0.37460  Biso   1.000  C
  H9       1.0000 0.69620  0.72370  0.83480  Biso   1.000  H
  H10      1.0000 0.80380  0.22370  0.66520  Biso   1.000  H
  H11      1.0000 0.30380  0.27630  0.16520  Biso   1.000  H
  H12      1.0000 0.19620  0.77630  0.33480  Biso   1.000  H
  C29      1.0000 0.78120  0.76090  0.34890  Biso   1.000  C
  C30      1.0000 0.71880  0.26090  0.15110  Biso   1.000  C
  C31      1.0000 0.21880  0.23910  0.65110  Biso   1.000  C
  C32      1.0000 0.28120  0.73910  0.84890  Biso   1.000  C
  H13      1.0000 0.71140  0.77160  0.38570  Biso   1.000  H
  H14      1.0000 0.78860  0.27160  0.11430  Biso   1.000  H
  H15      1.0000 0.28860  0.22840  0.61430  Biso   1.000  H
  H16      1.0000 0.21140  0.72840  0.88570  Biso   1.000  H
  C33      1.0000 0.77310  0.76090  0.23080  Biso   1.000  C
  C34      1.0000 0.72690  0.26090  0.26920  Biso   1.000  C
  C35      1.0000 0.22690  0.23910  0.76920  Biso   1.000  C
  C36      1.0000 0.27310  0.73910  0.73080  Biso   1.000  C
  H17      1.0000 0.69970  0.77010  0.19260  Biso   1.000  H
  H18      1.0000 0.80030  0.27010  0.30740  Biso   1.000  H
  H19      1.0000 0.30030  0.22990  0.80740  Biso   1.000  H
  H20      1.0000 0.19970  0.72990  0.69260  Biso   1.000  H
  C37      1.0000 0.87040  0.74780  0.17410  Biso   1.000  C
  C38      1.0000 0.62960  0.24780  0.32590  Biso   1.000  C
  C39      1.0000 0.12960  0.25220  0.82590  Biso   1.000  C
  C40      1.0000 0.37040  0.75220  0.67410  Biso   1.000  C
  C41      1.0000 0.97600  0.71860  0.24410  Biso   1.000  C
  C42      1.0000 0.52400  0.21860  0.25590  Biso   1.000  C
  C43      1.0000 0.02400  0.28140  0.75590  Biso   1.000  C
  C44      1.0000 0.47600  0.78140  0.74410  Biso   1.000  C
  H21      1.0000 0.04490  0.70020  0.21000  Biso   1.000  H
  H22      1.0000 0.45510  0.20020  0.29000  Biso   1.000  H
  H23      1.0000 0.95510  0.29980  0.79000  Biso   1.000  H
  H24      1.0000 0.54490  0.79980  0.71000  Biso   1.000  H
  C45      1.0000 0.97380  0.71820  0.35960  Biso   1.000  C
  C46      1.0000 0.52620  0.21820  0.14040  Biso   1.000  C
  C47      1.0000 0.02620  0.28180  0.64040  Biso   1.000  C
  C48      1.0000 0.47380  0.78180  0.85960  Biso   1.000  C
  H25      1.0000 0.03990  0.69770  0.40300  Biso   1.000  H
  H26      1.0000 0.46010  0.19770  0.09700  Biso   1.000  H
  H27      1.0000 0.96010  0.30230  0.59700  Biso   1.000  H
  H28      1.0000 0.53990  0.80230  0.90300  Biso   1.000  H
  C49      1.0000 0.86880  0.74850  0.04900  Biso   1.000  C
  C50      1.0000 0.63120  0.24850  0.45100  Biso   1.000  C
  C51      1.0000 0.13120  0.25150  0.95100  Biso   1.000  C
  C52      1.0000 0.36880  0.75150  0.54900  Biso   1.000  C
  C53      1.0000 0.76610  0.73110  0.98890  Biso   1.000  C
  C54      1.0000 0.73390  0.23110  0.51110  Biso   1.000  C
  C55      1.0000 0.23390  0.26890  0.01110  Biso   1.000  C
  C56      1.0000 0.26610  0.76890  0.48890  Biso   1.000  C
  H29      1.0000 0.69580  0.71840  0.02410  Biso   1.000  H
  H30      1.0000 0.80420  0.21840  0.47590  Biso   1.000  H
  H31      1.0000 0.30420  0.28160  0.97590  Biso   1.000  H
  H32      1.0000 0.19580  0.78160  0.52410  Biso   1.000  H
  C57      1.0000 0.97250  0.76370  0.99590  Biso   1.000  C
  C58      1.0000 0.52750  0.26370  0.50410  Biso   1.000  C
  C59      1.0000 0.02750  0.23630  0.00410  Biso   1.000  C
  C60      1.0000 0.47250  0.73630  0.49590  Biso   1.000  C
  H33      1.0000 0.04430  0.77480  0.03620  Biso   1.000  H
  H34      1.0000 0.45570  0.27480  0.46380  Biso   1.000  H
  H35      1.0000 0.95570  0.22520  0.96380  Biso   1.000  H
  H36      1.0000 0.54430  0.72520  0.53620  Biso   1.000  H
  C61      1.0000 0.96600  0.76170  0.87960  Biso   1.000  C
  C62      1.0000 0.53400  0.26170  0.62040  Biso   1.000  C
  C63      1.0000 0.03400  0.23830  0.12040  Biso   1.000  C
  C64      1.0000 0.46600  0.73830  0.37960  Biso   1.000  C
  H37      1.0000 0.03640  0.77150  0.84340  Biso   1.000  H
  H38      1.0000 0.46360  0.27150  0.65660  Biso   1.000  H
  H39      1.0000 0.96360  0.22850  0.15660  Biso   1.000  H
  H40      1.0000 0.53640  0.72850  0.34340  Biso   1.000  H
  C65      1.0000 0.07230  0.99790  0.66960  Biso   1.000  C
  C66      1.0000 0.42770  0.49790  0.83040  Biso   1.000  C
  C67      1.0000 0.92770  0.00210  0.33040  Biso   1.000  C
  C68      1.0000 0.57230  0.50210  0.16960  Biso   1.000  C
  H41      1.0000 0.14490  0.96350  0.68360  Biso   1.000  H
  H42      1.0000 0.35510  0.46350  0.81640  Biso   1.000  H
  H43      1.0000 0.85510  0.03650  0.31640  Biso   1.000  H
  H44      1.0000 0.64490  0.53650  0.18360  Biso   1.000  H
  H45      1.0000 0.05530  0.03330  0.73500  Biso   1.000  H
  H46      1.0000 0.44470  0.53330  0.76500  Biso   1.000  H
  H47      1.0000 0.94470  0.96670  0.26500  Biso   1.000  H
  H48      1.0000 0.55530  0.46670  0.23500  Biso   1.000  H
  H49      1.0000 0.08100  0.03930  0.60740  Biso   1.000  H
  H50      1.0000 0.41900  0.53930  0.89260  Biso   1.000  H
  H51      1.0000 0.91900  0.96070  0.39260  Biso   1.000  H
  H52      1.0000 0.58100  0.46070  0.10740  Biso   1.000  H
  C69      1.0000 0.63480  0.97340  0.57600  Biso   1.000  C
  C70      1.0000 0.86520  0.47340  0.92400  Biso   1.000  C
  C71      1.0000 0.36520  0.02660  0.42400  Biso   1.000  C
  C72      1.0000 0.13480  0.52660  0.07600  Biso   1.000  C
  H53      1.0000 0.57300  0.92970  0.55440  Biso   1.000  H
  H54      1.0000 0.92700  0.42970  0.94560  Biso   1.000  H
  H55      1.0000 0.42700  0.07030  0.44560  Biso   1.000  H
  H56      1.0000 0.07300  0.57030  0.05440  Biso   1.000  H
  H57      1.0000 0.64430  0.01720  0.51630  Biso   1.000  H
  H58      1.0000 0.85570  0.51720  0.98370  Biso   1.000  H
  H59      1.0000 0.35570  0.98280  0.48370  Biso   1.000  H
  H60      1.0000 0.14430  0.48280  0.01630  Biso   1.000  H
  H61      1.0000 0.61350  0.00610  0.64220  Biso   1.000  H
  H62      1.0000 0.88650  0.50610  0.85780  Biso   1.000  H
  H63      1.0000 0.38650  0.99390  0.35780  Biso   1.000  H
  H64      1.0000 0.11350  0.49390  0.14220  Biso   1.000  H
  C73      1.0000 0.11550  0.52760  0.67470  Biso   1.000  C
  C74      1.0000 0.38450  0.02760  0.82530  Biso   1.000  C
  C75      1.0000 0.88450  0.47240  0.32530  Biso   1.000  C
  C76      1.0000 0.61550  0.97240  0.17470  Biso   1.000  C
  H65      1.0000 0.18020  0.57130  0.67270  Biso   1.000  H
  H66      1.0000 0.31980  0.07130  0.82730  Biso   1.000  H
  H67      1.0000 0.81980  0.42870  0.32730  Biso   1.000  H
  H68      1.0000 0.68020  0.92870  0.17270  Biso   1.000  H
  H69      1.0000 0.12880  0.47720  0.62400  Biso   1.000  H
  H70      1.0000 0.37120  0.97720  0.87600  Biso   1.000  H
  H71      1.0000 0.87120  0.52280  0.37600  Biso   1.000  H
  H72      1.0000 0.62880  0.02280  0.12400  Biso   1.000  H
  H73      1.0000 0.11090  0.50360  0.74940  Biso   1.000  H
  H74      1.0000 0.38910  0.00360  0.75060  Biso   1.000  H
  H75      1.0000 0.88910  0.49640  0.25060  Biso   1.000  H
  H76      1.0000 0.61090  0.99640  0.24940  Biso   1.000  H
  C77      1.0000 0.67230  0.50110  0.57830  Biso   1.000  C
  C78      1.0000 0.82770  0.00110  0.92170  Biso   1.000  C
  C79      1.0000 0.32770  0.49890  0.42170  Biso   1.000  C
  C80      1.0000 0.17230  0.99890  0.07830  Biso   1.000  C
  H77      1.0000 0.60250  0.53810  0.56120  Biso   1.000  H
  H78      1.0000 0.89750  0.03810  0.93880  Biso   1.000  H
  H79      1.0000 0.39750  0.46190  0.43880  Biso   1.000  H
  H80      1.0000 0.10250  0.96190  0.06120  Biso   1.000  H
  H81      1.0000 0.65990  0.46320  0.64290  Biso   1.000  H
  H82      1.0000 0.84010  0.96320  0.85710  Biso   1.000  H
  H83      1.0000 0.34010  0.53680  0.35710  Biso   1.000  H
  H84      1.0000 0.15990  0.03680  0.14290  Biso   1.000  H
  H85      1.0000 0.68730  0.46180  0.51550  Biso   1.000  H
  H86      1.0000 0.81270  0.96180  0.98450  Biso   1.000  H
  H87      1.0000 0.31270  0.53820  0.48450  Biso   1.000  H
  H88      1.0000 0.18730  0.03820  0.01550  Biso   1.000  H
  O1       1.0000 0.99210  0.84540  0.63000  Biso   1.000  O
  O2       1.0000 0.50790  0.34540  0.87000  Biso   1.000  O
  O3       1.0000 0.00790  0.15460  0.37000  Biso   1.000  O
  O4       1.0000 0.49210  0.65460  0.13000  Biso   1.000  O
  O5       1.0000 0.74190  0.83670  0.59640  Biso   1.000  O
  O6       1.0000 0.75810  0.33670  0.90360  Biso   1.000  O
  O7       1.0000 0.25810  0.16330  0.40360  Biso   1.000  O
  O8       1.0000 0.24190  0.66330  0.09640  Biso   1.000  O
  O9       1.0000 0.00640  0.66020  0.63020  Biso   1.000  O
  O10      1.0000 0.49360  0.16020  0.86980  Biso   1.000  O
  O11      1.0000 0.99360  0.33980  0.36980  Biso   1.000  O
  O12      1.0000 0.50640  0.83980  0.13020  Biso   1.000  O
  O13      1.0000 0.75250  0.64990  0.59650  Biso   1.000  O
  O14      1.0000 0.74750  0.14990  0.90350  Biso   1.000  O
  O15      1.0000 0.24750  0.35010  0.40350  Biso   1.000  O
  O16      1.0000 0.25250  0.85010  0.09650  Biso   1.000  O
  Cu1      1.0000 0.87270  0.74723  0.61058  Biso   1.000  Cu
  Cu2      1.0000 0.62730  0.24723  0.88942  Biso   1.000  Cu
  Cu3      1.0000 0.12730  0.25277  0.38942  Biso   1.000  Cu
  Cu4      1.0000 0.37270  0.75277  0.11058  Biso   1.000  Cu
  N1       1.0000 0.86410  0.74640  0.81370  Biso   1.000  N
  N2       1.0000 0.63590  0.24640  0.68630  Biso   1.000  N
  N3       1.0000 0.13590  0.25360  0.18630  Biso   1.000  N
  N4       1.0000 0.36410  0.75360  0.31370  Biso   1.000  N
  N5       1.0000 0.87610  0.74750  0.40890  Biso   1.000  N
  N6       1.0000 0.62390  0.24750  0.09110  Biso   1.000  N
  N7       1.0000 0.12390  0.25250  0.59110  Biso   1.000  N
  N8       1.0000 0.37610  0.75250  0.90890  Biso   1.000  N
