data_image0
_cell_length_a       7.947
_cell_length_b       10.133
_cell_length_c       13.004
_cell_angle_alpha    86.778
_cell_angle_beta     75.335
_cell_angle_gamma    78.856

_symmetry_space_group_name_H-M    "P 1"
_symmetry_int_tables_number       1

loop_
  _symmetry_equiv_pos_as_xyz
  'x, y, z'

loop_
  _atom_site_label
  _atom_site_occupancy
  _atom_site_fract_x
  _atom_site_fract_y
  _atom_site_fract_z
  _atom_site_thermal_displace_type
  _atom_site_B_iso_or_equiv
  _atom_site_type_symbol
  Cu1      1.0000 0.81508  0.37604  0.55672  Biso   1.000  Cu
  Cu2      1.0000 0.18492  0.62396  0.44328  Biso   1.000  Cu
  O1       1.0000 0.81290  0.17590  0.55720  Biso   1.000  O
  O2       1.0000 0.18710  0.82410  0.44280  Biso   1.000  O
  O3       1.0000 0.53680  0.28050  0.60420  Biso   1.000  O
  O4       1.0000 0.46320  0.71950  0.39580  Biso   1.000  O
  O5       1.0000 0.69910  0.56470  0.58330  Biso   1.000  O
  O6       1.0000 0.30090  0.43530  0.41670  Biso   1.000  O
  O7       1.0000 0.88710  0.67670  0.47180  Biso   1.000  O
  O8       1.0000 0.11290  0.32330  0.52820  Biso   1.000  O
  N1       1.0000 0.83870  0.38210  0.40060  Biso   1.000  N
  N2       1.0000 0.16130  0.61790  0.59940  Biso   1.000  N
  N3       1.0000 0.93520  0.31520  0.23250  Biso   1.000  N
  N4       1.0000 0.06480  0.68480  0.76750  Biso   1.000  N
  N5       1.0000 0.81650  0.43510  0.24050  Biso   1.000  N
  N6       1.0000 0.18350  0.56490  0.75950  Biso   1.000  N
  N7       1.0000 0.82010  0.36670  0.70980  Biso   1.000  N
  N8       1.0000 0.17990  0.63330  0.29020  Biso   1.000  N
  N9       1.0000 0.80060  0.42150  0.87220  Biso   1.000  N
  N10      1.0000 0.19940  0.57850  0.12780  Biso   1.000  N
  N11      1.0000 0.90040  0.29390  0.85980  Biso   1.000  N
  N12      1.0000 0.09960  0.70610  0.14020  Biso   1.000  N
  C1       1.0000 0.94050  0.28870  0.33110  Biso   1.000  C
  C2       1.0000 0.05950  0.71130  0.66890  Biso   1.000  C
  H1       1.0000 0.00920  0.21160  0.35150  Biso   1.000  H
  H2       1.0000 0.99080  0.78840  0.64850  Biso   1.000  H
  C3       1.0000 0.75830  0.47260  0.34250  Biso   1.000  C
  C4       1.0000 0.24170  0.52740  0.65750  Biso   1.000  C
  H3       1.0000 0.67560  0.54910  0.36820  Biso   1.000  H
  H4       1.0000 0.32440  0.45090  0.63180  Biso   1.000  H
  C5       1.0000 0.76390  0.49930  0.15070  Biso   1.000  C
  C6       1.0000 0.23610  0.50070  0.84930  Biso   1.000  C
  C7       1.0000 0.66880  0.62710  0.15990  Biso   1.000  C
  C8       1.0000 0.33120  0.37290  0.84010  Biso   1.000  C
  H5       1.0000 0.63900  0.67180  0.22440  Biso   1.000  H
  H6       1.0000 0.36100  0.32820  0.77560  Biso   1.000  H
  C9       1.0000 0.61680  0.69030  0.07250  Biso   1.000  C
  C10      1.0000 0.38320  0.30970  0.92750  Biso   1.000  C
  H7       1.0000 0.55120  0.77730  0.07840  Biso   1.000  H
  H8       1.0000 0.44880  0.22270  0.92160  Biso   1.000  H
  C11      1.0000 0.66340  0.62270  0.97540  Biso   1.000  C
  C12      1.0000 0.33660  0.37730  0.02460  Biso   1.000  C
  H9       1.0000 0.63280  0.66480  0.91560  Biso   1.000  H
  H10      1.0000 0.36720  0.33520  0.08440  Biso   1.000  H
  C13      1.0000 0.75620  0.49140  0.97050  Biso   1.000  C
  C14      1.0000 0.24380  0.50860  0.02950  Biso   1.000  C
  C15      1.0000 0.80860  0.42590  0.05620  Biso   1.000  C
  C16      1.0000 0.19140  0.57410  0.94380  Biso   1.000  C
  H11      1.0000 0.87040  0.33770  0.05160  Biso   1.000  H
  H12      1.0000 0.12960  0.66230  0.94840  Biso   1.000  H
  C17      1.0000 0.75810  0.46170  0.77950  Biso   1.000  C
  C18      1.0000 0.24190  0.53830  0.22050  Biso   1.000  C
  H13      1.0000 0.69360  0.54550  0.76750  Biso   1.000  H
  H14      1.0000 0.30640  0.45450  0.23250  Biso   1.000  H
  C19      1.0000 0.90870  0.26830  0.75990  Biso   1.000  C
  C20      1.0000 0.09130  0.73170  0.24010  Biso   1.000  C
  H15      1.0000 0.97120  0.18830  0.72680  Biso   1.000  H
  H16      1.0000 0.02880  0.81170  0.27320  Biso   1.000  H
  C21      1.0000 0.65200  0.17470  0.58820  Biso   1.000  C
  C22      1.0000 0.34800  0.82530  0.41180  Biso   1.000  C
  C23      1.0000 0.59010  0.04150  0.61040  Biso   1.000  C
  C24      1.0000 0.40990  0.95850  0.38960  Biso   1.000  C
  C25      1.0000 0.42200  0.03810  0.67380  Biso   1.000  C
  C26      1.0000 0.57800  0.96190  0.32620  Biso   1.000  C
  H17      1.0000 0.34720  0.11700  0.70170  Biso   1.000  H
  H18      1.0000 0.65280  0.88300  0.29830  Biso   1.000  H
  C27      1.0000 0.36740  0.91680  0.69480  Biso   1.000  C
  C28      1.0000 0.63260  0.08320  0.30520  Biso   1.000  C
  H19      1.0000 0.25400  0.91510  0.73660  Biso   1.000  H
  H20      1.0000 0.74600  0.08490  0.26340  Biso   1.000  H
  C29      1.0000 0.47300  0.79950  0.65690  Biso   1.000  C
  C30      1.0000 0.52700  0.20050  0.34310  Biso   1.000  C
  H21      1.0000 0.43410  0.71850  0.67520  Biso   1.000  H
  H22      1.0000 0.56590  0.28150  0.32480  Biso   1.000  H
  C31      1.0000 0.63890  0.80100  0.59080  Biso   1.000  C
  C32      1.0000 0.36110  0.19900  0.40920  Biso   1.000  C
  C33      1.0000 0.69780  0.92180  0.56810  Biso   1.000  C
  C34      1.0000 0.30220  0.07820  0.43190  Biso   1.000  C
  H23      1.0000 0.80990  0.92310  0.52430  Biso   1.000  H
  H24      1.0000 0.19010  0.07690  0.47570  Biso   1.000  H
  C35      1.0000 0.75190  0.67300  0.54280  Biso   1.000  C
  C36      1.0000 0.24810  0.32700  0.45720  Biso   1.000  C
