data_image0
_cell_length_a       15.2527
_cell_length_b       11.7246
_cell_length_c       12.2323
_cell_angle_alpha    90
_cell_angle_beta     101.856
_cell_angle_gamma    90

_symmetry_space_group_name_H-M    "P 1"
_symmetry_int_tables_number       1

loop_
  _symmetry_equiv_pos_as_xyz
  'x, y, z'

loop_
  _atom_site_label
  _atom_site_occupancy
  _atom_site_fract_x
  _atom_site_fract_y
  _atom_site_fract_z
  _atom_site_thermal_displace_type
  _atom_site_B_iso_or_equiv
  _atom_site_type_symbol
  Cu1      1.0000 0.52551  0.17030  0.24430  Biso   1.000  Cu
  Cu2      1.0000 0.47449  0.67030  0.25570  Biso   1.000  Cu
  Cu3      1.0000 0.47449  0.82970  0.75570  Biso   1.000  Cu
  Cu4      1.0000 0.52551  0.32970  0.74430  Biso   1.000  Cu
  S1       1.0000 0.67079  0.05582  0.09962  Biso   1.000  S
  S2       1.0000 0.32921  0.55582  0.40038  Biso   1.000  S
  S3       1.0000 0.32921  0.94418  0.90038  Biso   1.000  S
  S4       1.0000 0.67079  0.44418  0.59962  Biso   1.000  S
  O1       1.0000 0.11336  0.18660  0.18700  Biso   1.000  O
  O2       1.0000 0.88664  0.68660  0.31300  Biso   1.000  O
  O3       1.0000 0.88664  0.81340  0.81300  Biso   1.000  O
  O4       1.0000 0.11336  0.31340  0.68700  Biso   1.000  O
  O5       1.0000 0.07241  0.79870  0.18670  Biso   1.000  O
  O6       1.0000 0.92759  0.29870  0.31330  Biso   1.000  O
  O7       1.0000 0.92759  0.20130  0.81330  Biso   1.000  O
  O8       1.0000 0.07241  0.70130  0.68670  Biso   1.000  O
  O9       1.0000 0.63490  0.94430  0.06400  Biso   1.000  O
  O10      1.0000 0.36510  0.44430  0.43600  Biso   1.000  O
  O11      1.0000 0.36510  0.05570  0.93600  Biso   1.000  O
  O12      1.0000 0.63490  0.55570  0.56400  Biso   1.000  O
  O13      1.0000 0.64970  0.14350  0.01730  Biso   1.000  O
  O14      1.0000 0.35030  0.64350  0.48270  Biso   1.000  O
  O15      1.0000 0.35030  0.85650  0.98270  Biso   1.000  O
  O16      1.0000 0.64970  0.35650  0.51730  Biso   1.000  O
  O17      1.0000 0.64911  0.08620  0.20640  Biso   1.000  O
  O18      1.0000 0.35089  0.58620  0.29360  Biso   1.000  O
  O19      1.0000 0.35089  0.91380  0.79360  Biso   1.000  O
  O20      1.0000 0.64911  0.41380  0.70640  Biso   1.000  O
  N1       1.0000 0.46539  0.02300  0.25240  Biso   1.000  N
  N2       1.0000 0.53461  0.52300  0.24760  Biso   1.000  N
  N3       1.0000 0.53461  0.97700  0.74760  Biso   1.000  N
  N4       1.0000 0.46539  0.47700  0.75240  Biso   1.000  N
  N5       1.0000 0.44450  0.83270  0.25720  Biso   1.000  N
  N6       1.0000 0.55550  0.33270  0.24280  Biso   1.000  N
  N7       1.0000 0.55550  0.16730  0.74280  Biso   1.000  N
  N8       1.0000 0.44450  0.66730  0.75720  Biso   1.000  N
  N9       1.0000 0.06769  0.99730  0.18700  Biso   1.000  N
  N10      1.0000 0.93231  0.49730  0.31300  Biso   1.000  N
  N11      1.0000 0.93231  0.00270  0.81300  Biso   1.000  N
  N12      1.0000 0.06769  0.50270  0.68700  Biso   1.000  N
  C1       1.0000 0.50190  0.91970  0.26090  Biso   1.000  C
  C2       1.0000 0.49810  0.41970  0.23910  Biso   1.000  C
  C3       1.0000 0.49810  0.08030  0.73910  Biso   1.000  C
  C4       1.0000 0.50190  0.58030  0.76090  Biso   1.000  C
  H1       1.0000 0.56330  0.90850  0.26880  Biso   1.000  H
  H2       1.0000 0.43670  0.40850  0.23120  Biso   1.000  H
  H3       1.0000 0.43670  0.09150  0.73120  Biso   1.000  H
  H4       1.0000 0.56330  0.59150  0.76880  Biso   1.000  H
  C5       1.0000 0.37450  0.00370  0.24120  Biso   1.000  C
  C6       1.0000 0.62550  0.50370  0.25880  Biso   1.000  C
  C7       1.0000 0.62550  0.99630  0.75880  Biso   1.000  C
  C8       1.0000 0.37450  0.49630  0.74120  Biso   1.000  C
  C9       1.0000 0.36120  0.88420  0.24430  Biso   1.000  C
  C10      1.0000 0.63880  0.38420  0.25570  Biso   1.000  C
  C11      1.0000 0.63880  0.11580  0.75570  Biso   1.000  C
  C12      1.0000 0.36120  0.61580  0.74430  Biso   1.000  C
  C13      1.0000 0.30290  0.08050  0.22670  Biso   1.000  C
  C14      1.0000 0.69710  0.58050  0.27330  Biso   1.000  C
  C15      1.0000 0.69710  0.91950  0.77330  Biso   1.000  C
  C16      1.0000 0.30290  0.41950  0.72670  Biso   1.000  C
  H5       1.0000 0.31090  0.15910  0.22550  Biso   1.000  H
  H6       1.0000 0.68910  0.65910  0.27450  Biso   1.000  H
  H7       1.0000 0.68910  0.84090  0.77450  Biso   1.000  H
  H8       1.0000 0.31090  0.34090  0.72550  Biso   1.000  H
  C17      1.0000 0.27670  0.83560  0.23240  Biso   1.000  C
  C18      1.0000 0.72330  0.33560  0.26760  Biso   1.000  C
  C19      1.0000 0.72330  0.16440  0.76760  Biso   1.000  C
  C20      1.0000 0.27670  0.66440  0.73240  Biso   1.000  C
  H9       1.0000 0.26780  0.75730  0.23430  Biso   1.000  H
  H10      1.0000 0.73220  0.25730  0.26570  Biso   1.000  H
  H11      1.0000 0.73220  0.24270  0.76570  Biso   1.000  H
  H12      1.0000 0.26780  0.74270  0.73430  Biso   1.000  H
  C21      1.0000 0.21990  0.03070  0.21460  Biso   1.000  C
  C22      1.0000 0.78010  0.53070  0.28540  Biso   1.000  C
  C23      1.0000 0.78010  0.96930  0.78540  Biso   1.000  C
  C24      1.0000 0.21990  0.46930  0.71460  Biso   1.000  C
  C25      1.0000 0.20740  0.91260  0.21750  Biso   1.000  C
  C26      1.0000 0.79260  0.41260  0.28250  Biso   1.000  C
  C27      1.0000 0.79260  0.08740  0.78250  Biso   1.000  C
  C28      1.0000 0.20740  0.58740  0.71750  Biso   1.000  C
  C29      1.0000 0.13090  0.08660  0.19510  Biso   1.000  C
  C30      1.0000 0.86910  0.58660  0.30490  Biso   1.000  C
  C31      1.0000 0.86910  0.91340  0.80490  Biso   1.000  C
  C32      1.0000 0.13090  0.41340  0.69510  Biso   1.000  C
  C33      1.0000 0.11050  0.88860  0.19710  Biso   1.000  C
  C34      1.0000 0.88950  0.38860  0.30290  Biso   1.000  C
  C35      1.0000 0.88950  0.11140  0.80290  Biso   1.000  C
  C36      1.0000 0.11050  0.61140  0.69710  Biso   1.000  C
  C37      1.0000 0.97290  0.01180  0.16610  Biso   1.000  C
  C38      1.0000 0.02710  0.51180  0.33390  Biso   1.000  C
  C39      1.0000 0.02710  0.98820  0.83390  Biso   1.000  C
  C40      1.0000 0.97290  0.48820  0.66610  Biso   1.000  C
  C41      1.0000 0.92180  0.94470  0.22270  Biso   1.000  C
  C42      1.0000 0.07820  0.44470  0.27730  Biso   1.000  C
  C43      1.0000 0.07820  0.05530  0.77730  Biso   1.000  C
  C44      1.0000 0.92180  0.55530  0.72270  Biso   1.000  C
  H13      1.0000 0.94930  0.89080  0.27430  Biso   1.000  H
  H14      1.0000 0.05070  0.39080  0.22570  Biso   1.000  H
  H15      1.0000 0.05070  0.10920  0.72570  Biso   1.000  H
  H16      1.0000 0.94930  0.60920  0.77430  Biso   1.000  H
  C45      1.0000 0.93210  0.09270  0.08960  Biso   1.000  C
  C46      1.0000 0.06790  0.59270  0.41040  Biso   1.000  C
  C47      1.0000 0.06790  0.90730  0.91040  Biso   1.000  C
  C48      1.0000 0.93210  0.40730  0.58960  Biso   1.000  C
  H17      1.0000 0.96610  0.13750  0.05120  Biso   1.000  H
  H18      1.0000 0.03390  0.63750  0.44880  Biso   1.000  H
  H19      1.0000 0.03390  0.86250  0.94880  Biso   1.000  H
  H20      1.0000 0.96610  0.36250  0.55120  Biso   1.000  H
  C49      1.0000 0.83020  0.95850  0.20210  Biso   1.000  C
  C50      1.0000 0.16980  0.45850  0.29790  Biso   1.000  C
  C51      1.0000 0.16980  0.04150  0.79790  Biso   1.000  C
  C52      1.0000 0.83020  0.54150  0.70210  Biso   1.000  C
  H21      1.0000 0.79570  0.91260  0.23880  Biso   1.000  H
  H22      1.0000 0.20430  0.41260  0.26120  Biso   1.000  H
  H23      1.0000 0.20430  0.08740  0.76120  Biso   1.000  H
  H24      1.0000 0.79570  0.58740  0.73880  Biso   1.000  H
  C53      1.0000 0.83980  0.10580  0.07140  Biso   1.000  C
  C54      1.0000 0.16020  0.60580  0.42860  Biso   1.000  C
  C55      1.0000 0.16020  0.89420  0.92860  Biso   1.000  C
  C56      1.0000 0.83980  0.39420  0.57140  Biso   1.000  C
  H25      1.0000 0.81190  0.16000  0.02050  Biso   1.000  H
  H26      1.0000 0.18810  0.66000  0.47950  Biso   1.000  H
  H27      1.0000 0.18810  0.84000  0.97950  Biso   1.000  H
  H28      1.0000 0.81190  0.34000  0.52050  Biso   1.000  H
  C57      1.0000 0.78910  0.03990  0.12730  Biso   1.000  C
  C58      1.0000 0.21090  0.53990  0.37270  Biso   1.000  C
  C59      1.0000 0.21090  0.96010  0.87270  Biso   1.000  C
  C60      1.0000 0.78910  0.46010  0.62730  Biso   1.000  C
  O21      1.0000 0.45390  0.19200  0.09200  Biso   1.000  O
  O22      1.0000 0.54610  0.69200  0.40800  Biso   1.000  O
  O23      1.0000 0.54610  0.80800  0.90800  Biso   1.000  O
  O24      1.0000 0.45390  0.30800  0.59200  Biso   1.000  O
  H29      1.0000 0.42900  0.12800  0.07100  Biso   1.000  H
  H30      1.0000 0.57100  0.62800  0.42900  Biso   1.000  H
  H31      1.0000 0.57100  0.87200  0.92900  Biso   1.000  H
  H32      1.0000 0.42900  0.37200  0.57100  Biso   1.000  H
  H33      1.0000 0.44900  0.26290  0.08200  Biso   1.000  H
  H34      1.0000 0.55100  0.76290  0.41800  Biso   1.000  H
  H35      1.0000 0.55100  0.73710  0.91800  Biso   1.000  H
  H36      1.0000 0.44900  0.23710  0.58200  Biso   1.000  H
  O25      1.0000 0.58110  0.16360  0.40770  Biso   1.000  O
  O26      1.0000 0.41890  0.66360  0.09230  Biso   1.000  O
  O27      1.0000 0.41890  0.83640  0.59230  Biso   1.000  O
  O28      1.0000 0.58110  0.33640  0.90770  Biso   1.000  O
  H37      1.0000 0.60200  0.22900  0.42700  Biso   1.000  H
  H38      1.0000 0.39800  0.72900  0.07300  Biso   1.000  H
  H39      1.0000 0.39800  0.77100  0.57300  Biso   1.000  H
  H40      1.0000 0.60200  0.27100  0.92700  Biso   1.000  H
  H41      1.0000 0.62000  0.11200  0.41100  Biso   1.000  H
  H42      1.0000 0.38000  0.61200  0.08900  Biso   1.000  H
  H43      1.0000 0.38000  0.88800  0.58900  Biso   1.000  H
  H44      1.0000 0.62000  0.38800  0.91100  Biso   1.000  H
  N13      1.0000 0.81710  0.88910  0.51730  Biso   1.000  N
  N14      1.0000 0.18290  0.38910  0.98270  Biso   1.000  N
  N15      1.0000 0.18290  0.11090  0.48270  Biso   1.000  N
  N16      1.0000 0.81710  0.61090  0.01730  Biso   1.000  N
  O29      1.0000 0.68990  0.98790  0.47560  Biso   1.000  O
  O30      1.0000 0.31010  0.48790  0.02440  Biso   1.000  O
  O31      1.0000 0.31010  0.01210  0.52440  Biso   1.000  O
  O32      1.0000 0.68990  0.51210  0.97560  Biso   1.000  O
  C61      1.0000 0.76700  0.78450  0.52450  Biso   1.000  C
  C62      1.0000 0.23300  0.28450  0.97550  Biso   1.000  C
  C63      1.0000 0.23300  0.21550  0.47550  Biso   1.000  C
  C64      1.0000 0.76700  0.71550  0.02450  Biso   1.000  C
  H45      1.0000 0.70410  0.80130  0.51030  Biso   1.000  H
  H46      1.0000 0.29590  0.30130  0.98970  Biso   1.000  H
  H47      1.0000 0.29590  0.19870  0.48970  Biso   1.000  H
  H48      1.0000 0.70410  0.69870  0.01030  Biso   1.000  H
  H49      1.0000 0.78500  0.75240  0.59790  Biso   1.000  H
  H50      1.0000 0.21500  0.25240  0.90210  Biso   1.000  H
  H51      1.0000 0.21500  0.24760  0.40210  Biso   1.000  H
  H52      1.0000 0.78500  0.74760  0.09790  Biso   1.000  H
  H53      1.0000 0.77890  0.73090  0.47010  Biso   1.000  H
  H54      1.0000 0.22110  0.23090  0.02990  Biso   1.000  H
  H55      1.0000 0.22110  0.26910  0.52990  Biso   1.000  H
  H56      1.0000 0.77890  0.76910  0.97010  Biso   1.000  H
  C65      1.0000 0.77120  0.98470  0.49200  Biso   1.000  C
  C66      1.0000 0.22880  0.48470  0.00800  Biso   1.000  C
  C67      1.0000 0.22880  0.01530  0.50800  Biso   1.000  C
  C68      1.0000 0.77120  0.51530  0.99200  Biso   1.000  C
  C69      1.0000 0.91460  0.87880  0.53670  Biso   1.000  C
  C70      1.0000 0.08540  0.37880  0.96330  Biso   1.000  C
  C71      1.0000 0.08540  0.12120  0.46330  Biso   1.000  C
  C72      1.0000 0.91460  0.62120  0.03670  Biso   1.000  C
  H57      1.0000 0.94050  0.95240  0.52990  Biso   1.000  H
  H58      1.0000 0.05950  0.45240  0.97010  Biso   1.000  H
  H59      1.0000 0.05950  0.04760  0.47010  Biso   1.000  H
  H60      1.0000 0.94050  0.54760  0.02990  Biso   1.000  H
  H61      1.0000 0.93060  0.82780  0.48260  Biso   1.000  H
  H62      1.0000 0.06940  0.32780  0.01740  Biso   1.000  H
  H63      1.0000 0.06940  0.17220  0.51740  Biso   1.000  H
  H64      1.0000 0.93060  0.67220  0.98260  Biso   1.000  H
  H65      1.0000 0.93690  0.84930  0.61040  Biso   1.000  H
  H66      1.0000 0.06310  0.34930  0.88960  Biso   1.000  H
  H67      1.0000 0.06310  0.15070  0.38960  Biso   1.000  H
  H68      1.0000 0.93690  0.65070  0.11040  Biso   1.000  H
  C73      1.0000 0.82440  0.09290  0.48180  Biso   1.000  C
  C74      1.0000 0.17560  0.59290  0.01820  Biso   1.000  C
  C75      1.0000 0.17560  0.90710  0.51820  Biso   1.000  C
  C76      1.0000 0.82440  0.40710  0.98180  Biso   1.000  C
  H69      1.0000 0.78400  0.15600  0.46360  Biso   1.000  H
  H70      1.0000 0.21600  0.65600  0.03640  Biso   1.000  H
  H71      1.0000 0.21600  0.84400  0.53640  Biso   1.000  H
  H72      1.0000 0.78400  0.34400  0.96360  Biso   1.000  H
  H73      1.0000 0.85780  0.08310  0.42390  Biso   1.000  H
  H74      1.0000 0.14220  0.58310  0.07610  Biso   1.000  H
  H75      1.0000 0.14220  0.91690  0.57610  Biso   1.000  H
  H76      1.0000 0.85780  0.41690  0.92390  Biso   1.000  H
  H77      1.0000 0.86500  0.10760  0.55140  Biso   1.000  H
  H78      1.0000 0.13500  0.60760  0.94860  Biso   1.000  H
  H79      1.0000 0.13500  0.89240  0.44860  Biso   1.000  H
  H80      1.0000 0.86500  0.39240  0.05140  Biso   1.000  H
  O33      1.0000 0.56070  0.87640  0.51630  Biso   1.000  O
  O34      1.0000 0.43930  0.37640  0.98370  Biso   1.000  O
  O35      1.0000 0.43930  0.12360  0.48370  Biso   1.000  O
  O36      1.0000 0.56070  0.62360  0.01630  Biso   1.000  O
  H81      1.0000 0.53100  0.92800  0.47600  Biso   1.000  H
  H82      1.0000 0.46900  0.42800  0.02400  Biso   1.000  H
  H83      1.0000 0.46900  0.07200  0.52400  Biso   1.000  H
  H84      1.0000 0.53100  0.57200  0.97600  Biso   1.000  H
  H85      1.0000 0.54600  0.84200  0.57100  Biso   1.000  H
  H86      1.0000 0.45400  0.34200  0.92900  Biso   1.000  H
  H87      1.0000 0.45400  0.15800  0.42900  Biso   1.000  H
  H88      1.0000 0.54600  0.65800  0.07100  Biso   1.000  H
