data_image0
_cell_length_a       7.4646
_cell_length_b       11.4558
_cell_length_c       8.6518
_cell_angle_alpha    90
_cell_angle_beta     100.227
_cell_angle_gamma    90

_symmetry_space_group_name_H-M    "P 1"
_symmetry_int_tables_number       1

loop_
  _symmetry_equiv_pos_as_xyz
  'x, y, z'

loop_
  _atom_site_label
  _atom_site_occupancy
  _atom_site_fract_x
  _atom_site_fract_y
  _atom_site_fract_z
  _atom_site_thermal_displace_type
  _atom_site_B_iso_or_equiv
  _atom_site_type_symbol
  Cu1      1.0000 0.50000  0.50000  0.50000  Biso   1.000  Cu
  Cu2      1.0000 0.00000  0.00000  0.00000  Biso   1.000  Cu
  S1       1.0000 0.69826  0.33592  0.04314  Biso   1.000  S
  S2       1.0000 0.80174  0.83592  0.45686  Biso   1.000  S
  S3       1.0000 0.30174  0.66408  0.95686  Biso   1.000  S
  S4       1.0000 0.19826  0.16408  0.54314  Biso   1.000  S
  O1       1.0000 0.60360  0.41025  0.34250  Biso   1.000  O
  O2       1.0000 0.89640  0.91025  0.15750  Biso   1.000  O
  O3       1.0000 0.39640  0.58975  0.65750  Biso   1.000  O
  O4       1.0000 0.10360  0.08975  0.84250  Biso   1.000  O
  O5       1.0000 0.74020  0.43312  0.71390  Biso   1.000  O
  O6       1.0000 0.75980  0.93312  0.78610  Biso   1.000  O
  O7       1.0000 0.25980  0.56688  0.28610  Biso   1.000  O
  O8       1.0000 0.24020  0.06688  0.21390  Biso   1.000  O
  H1       1.0000 0.75940  0.37900  0.65340  Biso   1.000  H
  H2       1.0000 0.74060  0.87900  0.84660  Biso   1.000  H
  H3       1.0000 0.24060  0.62100  0.34660  Biso   1.000  H
  H4       1.0000 0.25940  0.12100  0.15340  Biso   1.000  H
  O9       1.0000 0.75660  0.26977  0.49440  Biso   1.000  O
  O10      1.0000 0.74340  0.76977  0.00560  Biso   1.000  O
  O11      1.0000 0.24340  0.73023  0.50560  Biso   1.000  O
  O12      1.0000 0.25660  0.23023  0.99440  Biso   1.000  O
  N1       1.0000 0.86120  0.13971  0.05370  Biso   1.000  N
  N2       1.0000 0.63880  0.63971  0.44630  Biso   1.000  N
  N3       1.0000 0.13880  0.86029  0.94630  Biso   1.000  N
  N4       1.0000 0.36120  0.36029  0.55370  Biso   1.000  N
  C1       1.0000 0.74760  0.26590  0.22090  Biso   1.000  C
  C2       1.0000 0.75240  0.76590  0.27910  Biso   1.000  C
  C3       1.0000 0.25240  0.73410  0.77910  Biso   1.000  C
  C4       1.0000 0.24760  0.23410  0.72090  Biso   1.000  C
  C5       1.0000 0.83380  0.16220  0.20560  Biso   1.000  C
  C6       1.0000 0.66620  0.66220  0.29440  Biso   1.000  C
  C7       1.0000 0.16620  0.83780  0.79440  Biso   1.000  C
  C8       1.0000 0.33380  0.33780  0.70560  Biso   1.000  C
  H5       1.0000 0.87590  0.10420  0.30100  Biso   1.000  H
  H6       1.0000 0.62410  0.60420  0.19900  Biso   1.000  H
  H7       1.0000 0.12410  0.89580  0.69900  Biso   1.000  H
  H8       1.0000 0.37590  0.39580  0.80100  Biso   1.000  H
  C9       1.0000 0.69950  0.31760  0.36600  Biso   1.000  C
  C10      1.0000 0.80050  0.81760  0.13400  Biso   1.000  C
  C11      1.0000 0.30050  0.68240  0.63400  Biso   1.000  C
  C12      1.0000 0.19950  0.18240  0.86600  Biso   1.000  C
  C13      1.0000 0.79710  0.22481  0.95840  Biso   1.000  C
  C14      1.0000 0.70290  0.72481  0.54160  Biso   1.000  C
  C15      1.0000 0.20290  0.77519  0.04160  Biso   1.000  C
  C16      1.0000 0.29710  0.27519  0.45840  Biso   1.000  C
  H9       1.0000 0.80500  0.22450  0.85400  Biso   1.000  H
  H10      1.0000 0.69500  0.72450  0.64600  Biso   1.000  H
  H11      1.0000 0.19500  0.77550  0.14600  Biso   1.000  H
  H12      1.0000 0.30500  0.27550  0.35400  Biso   1.000  H
  C17      1.0000 0.90520  0.49560  0.76590  Biso   1.000  C
  C18      1.0000 0.59480  0.99560  0.73410  Biso   1.000  C
  C19      1.0000 0.09480  0.50440  0.23410  Biso   1.000  C
  C20      1.0000 0.40520  0.00440  0.26590  Biso   1.000  C
  H13      1.0000 0.96040  0.51670  0.67510  Biso   1.000  H
  H14      1.0000 0.53960  0.01670  0.82490  Biso   1.000  H
  H15      1.0000 0.03960  0.48330  0.32490  Biso   1.000  H
  H16      1.0000 0.46040  0.98330  0.17510  Biso   1.000  H
  H17      1.0000 0.98970  0.44630  0.83740  Biso   1.000  H
  H18      1.0000 0.51030  0.94630  0.66260  Biso   1.000  H
  H19      1.0000 0.01030  0.55370  0.16260  Biso   1.000  H
  H20      1.0000 0.48970  0.05370  0.33740  Biso   1.000  H
  H21      1.0000 0.87890  0.56660  0.82090  Biso   1.000  H
  H22      1.0000 0.62110  0.06660  0.67910  Biso   1.000  H
  H23      1.0000 0.12110  0.43340  0.17910  Biso   1.000  H
  H24      1.0000 0.37890  0.93340  0.32090  Biso   1.000  H
