data_image0
_cell_length_a       12.171
_cell_length_b       23.252
_cell_length_c       12.7039
_cell_angle_alpha    90
_cell_angle_beta     116.025
_cell_angle_gamma    90

_symmetry_space_group_name_H-M    "P 1"
_symmetry_int_tables_number       1

loop_
  _symmetry_equiv_pos_as_xyz
  'x, y, z'

loop_
  _atom_site_label
  _atom_site_occupancy
  _atom_site_fract_x
  _atom_site_fract_y
  _atom_site_fract_z
  _atom_site_thermal_displace_type
  _atom_site_B_iso_or_equiv
  _atom_site_type_symbol
  Cu1      1.0000 0.50000  0.82520  0.25000  Biso   1.000  Cu
  Cu2      1.0000 0.00000  0.32520  0.25000  Biso   1.000  Cu
  Cu3      1.0000 0.50000  0.17480  0.75000  Biso   1.000  Cu
  Cu4      1.0000 1.00000  0.67480  0.75000  Biso   1.000  Cu
  Cu5      1.0000 0.50000  0.62496  0.75000  Biso   1.000  Cu
  Cu6      1.0000 1.00000  0.12496  0.75000  Biso   1.000  Cu
  Cu7      1.0000 0.50000  0.37504  0.25000  Biso   1.000  Cu
  Cu8      1.0000 0.00000  0.87504  0.25000  Biso   1.000  Cu
  S1       1.0000 0.24612  0.71475  0.33512  Biso   1.000  S
  S2       1.0000 0.75388  0.71475  0.16488  Biso   1.000  S
  S3       1.0000 0.74612  0.21475  0.33512  Biso   1.000  S
  S4       1.0000 0.25388  0.21475  0.16488  Biso   1.000  S
  S5       1.0000 0.75388  0.28525  0.66488  Biso   1.000  S
  S6       1.0000 0.24612  0.28525  0.83512  Biso   1.000  S
  S7       1.0000 0.25388  0.78525  0.66488  Biso   1.000  S
  S8       1.0000 0.74612  0.78525  0.83512  Biso   1.000  S
  O1       1.0000 0.52050  0.68229  0.64338  Biso   1.000  O
  O2       1.0000 0.47950  0.68229  0.85662  Biso   1.000  O
  O3       1.0000 0.02050  0.18229  0.64338  Biso   1.000  O
  O4       1.0000 0.97950  0.18229  0.85662  Biso   1.000  O
  O5       1.0000 0.47950  0.31771  0.35662  Biso   1.000  O
  O6       1.0000 0.52050  0.31771  0.14338  Biso   1.000  O
  O7       1.0000 0.97950  0.81771  0.35662  Biso   1.000  O
  O8       1.0000 0.02050  0.81771  0.14338  Biso   1.000  O
  N1       1.0000 0.43740  0.89165  0.31326  Biso   1.000  N
  N2       1.0000 0.56260  0.89165  0.18674  Biso   1.000  N
  N3       1.0000 0.93740  0.39165  0.31326  Biso   1.000  N
  N4       1.0000 0.06260  0.39165  0.18674  Biso   1.000  N
  N5       1.0000 0.56260  0.10835  0.68674  Biso   1.000  N
  N6       1.0000 0.43740  0.10835  0.81326  Biso   1.000  N
  N7       1.0000 0.06260  0.60835  0.68674  Biso   1.000  N
  N8       1.0000 0.93740  0.60835  0.81326  Biso   1.000  N
  N9       1.0000 0.41820  0.76664  0.30994  Biso   1.000  N
  N10      1.0000 0.58180  0.76664  0.19006  Biso   1.000  N
  N11      1.0000 0.91820  0.26664  0.30994  Biso   1.000  N
  N12      1.0000 0.08180  0.26664  0.19006  Biso   1.000  N
  N13      1.0000 0.58180  0.23336  0.69006  Biso   1.000  N
  N14      1.0000 0.41820  0.23336  0.80994  Biso   1.000  N
  N15      1.0000 0.08180  0.73336  0.69006  Biso   1.000  N
  N16      1.0000 0.91820  0.73336  0.80994  Biso   1.000  N
  O9       1.0000 0.32860  0.65058  0.55818  Biso   1.000  O
  O10      1.0000 0.67140  0.65058  0.94182  Biso   1.000  O
  O11      1.0000 0.82860  0.15058  0.55818  Biso   1.000  O
  O12      1.0000 0.17140  0.15058  0.94182  Biso   1.000  O
  O13      1.0000 0.67140  0.34942  0.44182  Biso   1.000  O
  O14      1.0000 0.32860  0.34942  0.05818  Biso   1.000  O
  O15      1.0000 0.17140  0.84942  0.44182  Biso   1.000  O
  O16      1.0000 0.82860  0.84942  0.05818  Biso   1.000  O
  N17      1.0000 0.56070  0.55958  0.68560  Biso   1.000  N
  N18      1.0000 0.43930  0.55958  0.81440  Biso   1.000  N
  N19      1.0000 0.06070  0.05958  0.68560  Biso   1.000  N
  N20      1.0000 0.93930  0.05958  0.81440  Biso   1.000  N
  N21      1.0000 0.43930  0.44042  0.31440  Biso   1.000  N
  N22      1.0000 0.56070  0.44042  0.18560  Biso   1.000  N
  N23      1.0000 0.93930  0.94042  0.31440  Biso   1.000  N
  N24      1.0000 0.06070  0.94042  0.18560  Biso   1.000  N
  N25      1.0000 0.31200  0.85616  0.98820  Biso   1.000  N
  N26      1.0000 0.68800  0.85616  0.51180  Biso   1.000  N
  N27      1.0000 0.81200  0.35616  0.98820  Biso   1.000  N
  N28      1.0000 0.18800  0.35616  0.51180  Biso   1.000  N
  N29      1.0000 0.68800  0.14384  0.01180  Biso   1.000  N
  N30      1.0000 0.31200  0.14384  0.48820  Biso   1.000  N
  N31      1.0000 0.18800  0.64384  0.01180  Biso   1.000  N
  N32      1.0000 0.81200  0.64384  0.48820  Biso   1.000  N
  O17      1.0000 0.31680  0.82145  0.06618  Biso   1.000  O
  O18      1.0000 0.68320  0.82145  0.43382  Biso   1.000  O
  O19      1.0000 0.81680  0.32145  0.06618  Biso   1.000  O
  O20      1.0000 0.18320  0.32145  0.43382  Biso   1.000  O
  O21      1.0000 0.68320  0.17855  0.93382  Biso   1.000  O
  O22      1.0000 0.31680  0.17855  0.56618  Biso   1.000  O
  O23      1.0000 0.18320  0.67855  0.93382  Biso   1.000  O
  O24      1.0000 0.81680  0.67855  0.56618  Biso   1.000  O
  C1       1.0000 0.47030  0.74267  0.42070  Biso   1.000  C
  C2       1.0000 0.52970  0.74267  0.07930  Biso   1.000  C
  C3       1.0000 0.97030  0.24267  0.42070  Biso   1.000  C
  C4       1.0000 0.02970  0.24267  0.07930  Biso   1.000  C
  C5       1.0000 0.52970  0.25733  0.57930  Biso   1.000  C
  C6       1.0000 0.47030  0.25733  0.92070  Biso   1.000  C
  C7       1.0000 0.02970  0.75733  0.57930  Biso   1.000  C
  C8       1.0000 0.97030  0.75733  0.92070  Biso   1.000  C
  H1       1.0000 0.55470  0.74640  0.47240  Biso   1.000  H
  H2       1.0000 0.44530  0.74640  0.02760  Biso   1.000  H
  H3       1.0000 0.05470  0.24640  0.47240  Biso   1.000  H
  H4       1.0000 0.94530  0.24640  0.02760  Biso   1.000  H
  H5       1.0000 0.44530  0.25360  0.52760  Biso   1.000  H
  H6       1.0000 0.55470  0.25360  0.97240  Biso   1.000  H
  H7       1.0000 0.94530  0.75360  0.52760  Biso   1.000  H
  H8       1.0000 0.05470  0.75360  0.97240  Biso   1.000  H
  C9       1.0000 0.46650  0.94410  0.28440  Biso   1.000  C
  C10      1.0000 0.53350  0.94410  0.21560  Biso   1.000  C
  C11      1.0000 0.96650  0.44410  0.28440  Biso   1.000  C
  C12      1.0000 0.03350  0.44410  0.21560  Biso   1.000  C
  C13      1.0000 0.53350  0.05590  0.71560  Biso   1.000  C
  C14      1.0000 0.46650  0.05590  0.78440  Biso   1.000  C
  C15      1.0000 0.03350  0.55590  0.71560  Biso   1.000  C
  C16      1.0000 0.96650  0.55590  0.78440  Biso   1.000  C
  C17      1.0000 0.36930  0.99353  0.38670  Biso   1.000  C
  C18      1.0000 0.63070  0.99353  0.11330  Biso   1.000  C
  C19      1.0000 0.86930  0.49353  0.38670  Biso   1.000  C
  C20      1.0000 0.13070  0.49353  0.11330  Biso   1.000  C
  C21      1.0000 0.63070  0.00647  0.61330  Biso   1.000  C
  C22      1.0000 0.36930  0.00647  0.88670  Biso   1.000  C
  C23      1.0000 0.13070  0.50647  0.61330  Biso   1.000  C
  C24      1.0000 0.86930  0.50647  0.88670  Biso   1.000  C
  H9       1.0000 0.34570  0.02770  0.41230  Biso   1.000  H
  H10      1.0000 0.65430  0.02770  0.08770  Biso   1.000  H
  H11      1.0000 0.84570  0.52770  0.41230  Biso   1.000  H
  H12      1.0000 0.15430  0.52770  0.08770  Biso   1.000  H
  H13      1.0000 0.65430  0.97230  0.58770  Biso   1.000  H
  H14      1.0000 0.34570  0.97230  0.91230  Biso   1.000  H
  H15      1.0000 0.15430  0.47230  0.58770  Biso   1.000  H
  H16      1.0000 0.84570  0.47230  0.91230  Biso   1.000  H
  C25      1.0000 0.34030  0.94098  0.41520  Biso   1.000  C
  C26      1.0000 0.65970  0.94098  0.08480  Biso   1.000  C
  C27      1.0000 0.84030  0.44098  0.41520  Biso   1.000  C
  C28      1.0000 0.15970  0.44098  0.08480  Biso   1.000  C
  C29      1.0000 0.65970  0.05902  0.58480  Biso   1.000  C
  C30      1.0000 0.34030  0.05902  0.91520  Biso   1.000  C
  C31      1.0000 0.15970  0.55902  0.58480  Biso   1.000  C
  C32      1.0000 0.84030  0.55902  0.91520  Biso   1.000  C
  H17      1.0000 0.29560  0.93850  0.46030  Biso   1.000  H
  H18      1.0000 0.70440  0.93850  0.03970  Biso   1.000  H
  H19      1.0000 0.79560  0.43850  0.46030  Biso   1.000  H
  H20      1.0000 0.20440  0.43850  0.03970  Biso   1.000  H
  H21      1.0000 0.70440  0.06150  0.53970  Biso   1.000  H
  H22      1.0000 0.29560  0.06150  0.96030  Biso   1.000  H
  H23      1.0000 0.20440  0.56150  0.53970  Biso   1.000  H
  H24      1.0000 0.79560  0.56150  0.96030  Biso   1.000  H
  O25      1.0000 0.26360  0.90297  0.98150  Biso   1.000  O
  O26      1.0000 0.73640  0.90297  0.51850  Biso   1.000  O
  O27      1.0000 0.76360  0.40297  0.98150  Biso   1.000  O
  O28      1.0000 0.23640  0.40297  0.51850  Biso   1.000  O
  O29      1.0000 0.73640  0.09703  0.01850  Biso   1.000  O
  O30      1.0000 0.26360  0.09703  0.48150  Biso   1.000  O
  O31      1.0000 0.23640  0.59703  0.01850  Biso   1.000  O
  O32      1.0000 0.76360  0.59703  0.48150  Biso   1.000  O
  C33      1.0000 0.37630  0.89054  0.37830  Biso   1.000  C
  C34      1.0000 0.62370  0.89054  0.12170  Biso   1.000  C
  C35      1.0000 0.87630  0.39054  0.37830  Biso   1.000  C
  C36      1.0000 0.12370  0.39054  0.12170  Biso   1.000  C
  C37      1.0000 0.62370  0.10946  0.62170  Biso   1.000  C
  C38      1.0000 0.37630  0.10946  0.87830  Biso   1.000  C
  C39      1.0000 0.12370  0.60946  0.62170  Biso   1.000  C
  C40      1.0000 0.87630  0.60946  0.87830  Biso   1.000  C
  H25      1.0000 0.35650  0.85440  0.40050  Biso   1.000  H
  H26      1.0000 0.64350  0.85440  0.09950  Biso   1.000  H
  H27      1.0000 0.85650  0.35440  0.40050  Biso   1.000  H
  H28      1.0000 0.14350  0.35440  0.09950  Biso   1.000  H
  H29      1.0000 0.64350  0.14560  0.59950  Biso   1.000  H
  H30      1.0000 0.35650  0.14560  0.90050  Biso   1.000  H
  H31      1.0000 0.14350  0.64560  0.59950  Biso   1.000  H
  H32      1.0000 0.85650  0.64560  0.90050  Biso   1.000  H
  C41      1.0000 0.43470  0.99643  0.31860  Biso   1.000  C
  C42      1.0000 0.56530  0.99643  0.18140  Biso   1.000  C
  C43      1.0000 0.93470  0.49643  0.31860  Biso   1.000  C
  C44      1.0000 0.06530  0.49643  0.18140  Biso   1.000  C
  C45      1.0000 0.56530  0.00357  0.68140  Biso   1.000  C
  C46      1.0000 0.43470  0.00357  0.81860  Biso   1.000  C
  C47      1.0000 0.06530  0.50357  0.68140  Biso   1.000  C
  C48      1.0000 0.93470  0.50357  0.81860  Biso   1.000  C
  C49      1.0000 0.46880  0.04972  0.28320  Biso   1.000  C
  C50      1.0000 0.53120  0.04972  0.21680  Biso   1.000  C
  C51      1.0000 0.96880  0.54972  0.28320  Biso   1.000  C
  C52      1.0000 0.03120  0.54972  0.21680  Biso   1.000  C
  C53      1.0000 0.53120  0.95028  0.71680  Biso   1.000  C
  C54      1.0000 0.46880  0.95028  0.78320  Biso   1.000  C
  C55      1.0000 0.03120  0.45028  0.71680  Biso   1.000  C
  C56      1.0000 0.96880  0.45028  0.78320  Biso   1.000  C
  H33      1.0000 0.44760  0.08520  0.30650  Biso   1.000  H
  H34      1.0000 0.55240  0.08520  0.19350  Biso   1.000  H
  H35      1.0000 0.94760  0.58520  0.30650  Biso   1.000  H
  H36      1.0000 0.05240  0.58520  0.19350  Biso   1.000  H
  H37      1.0000 0.55240  0.91480  0.69350  Biso   1.000  H
  H38      1.0000 0.44760  0.91480  0.80650  Biso   1.000  H
  H39      1.0000 0.05240  0.41480  0.69350  Biso   1.000  H
  H40      1.0000 0.94760  0.41480  0.80650  Biso   1.000  H
  O33      1.0000 0.35850  0.84494  0.92230  Biso   1.000  O
  O34      1.0000 0.64150  0.84494  0.57770  Biso   1.000  O
  O35      1.0000 0.85850  0.34494  0.92230  Biso   1.000  O
  O36      1.0000 0.14150  0.34494  0.57770  Biso   1.000  O
  O37      1.0000 0.64150  0.15506  0.07770  Biso   1.000  O
  O38      1.0000 0.35850  0.15506  0.42230  Biso   1.000  O
  O39      1.0000 0.14150  0.65506  0.07770  Biso   1.000  O
  O40      1.0000 0.85850  0.65506  0.42230  Biso   1.000  O
  C57      1.0000 0.39100  0.71327  0.44980  Biso   1.000  C
  C58      1.0000 0.60900  0.71327  0.05020  Biso   1.000  C
  C59      1.0000 0.89100  0.21327  0.44980  Biso   1.000  C
  C60      1.0000 0.10900  0.21327  0.05020  Biso   1.000  C
  C61      1.0000 0.60900  0.28673  0.55020  Biso   1.000  C
  C62      1.0000 0.39100  0.28673  0.94980  Biso   1.000  C
  C63      1.0000 0.10900  0.78673  0.55020  Biso   1.000  C
  C64      1.0000 0.89100  0.78673  0.94980  Biso   1.000  C
  C65      1.0000 0.53370  0.50686  0.71650  Biso   1.000  C
  C66      1.0000 0.46630  0.50686  0.78350  Biso   1.000  C
  C67      1.0000 0.03370  0.00686  0.71650  Biso   1.000  C
  C68      1.0000 0.96630  0.00686  0.78350  Biso   1.000  C
  C69      1.0000 0.46630  0.49314  0.28350  Biso   1.000  C
  C70      1.0000 0.53370  0.49314  0.21650  Biso   1.000  C
  C71      1.0000 0.96630  0.99314  0.28350  Biso   1.000  C
  C72      1.0000 0.03370  0.99314  0.21650  Biso   1.000  C
  C73      1.0000 0.66360  0.51070  0.58940  Biso   1.000  C
  C74      1.0000 0.33640  0.51070  0.91060  Biso   1.000  C
  C75      1.0000 0.16360  0.01070  0.58940  Biso   1.000  C
  C76      1.0000 0.83640  0.01070  0.91060  Biso   1.000  C
  C77      1.0000 0.33640  0.48930  0.41060  Biso   1.000  C
  C78      1.0000 0.66360  0.48930  0.08940  Biso   1.000  C
  C79      1.0000 0.83640  0.98930  0.41060  Biso   1.000  C
  C80      1.0000 0.16360  0.98930  0.08940  Biso   1.000  C
  H41      1.0000 0.70890  0.51320  0.54480  Biso   1.000  H
  H42      1.0000 0.29110  0.51320  0.95520  Biso   1.000  H
  H43      1.0000 0.20890  0.01320  0.54480  Biso   1.000  H
  H44      1.0000 0.79110  0.01320  0.95520  Biso   1.000  H
  H45      1.0000 0.29110  0.48680  0.45520  Biso   1.000  H
  H46      1.0000 0.70890  0.48680  0.04480  Biso   1.000  H
  H47      1.0000 0.79110  0.98680  0.45520  Biso   1.000  H
  H48      1.0000 0.20890  0.98680  0.04480  Biso   1.000  H
  C81      1.0000 0.62480  0.56146  0.62360  Biso   1.000  C
  C82      1.0000 0.37520  0.56146  0.87640  Biso   1.000  C
  C83      1.0000 0.12480  0.06146  0.62360  Biso   1.000  C
  C84      1.0000 0.87520  0.06146  0.87640  Biso   1.000  C
  C85      1.0000 0.37520  0.43854  0.37640  Biso   1.000  C
  C86      1.0000 0.62480  0.43854  0.12360  Biso   1.000  C
  C87      1.0000 0.87520  0.93854  0.37640  Biso   1.000  C
  C88      1.0000 0.12480  0.93854  0.12360  Biso   1.000  C
  H49      1.0000 0.64480  0.59770  0.60190  Biso   1.000  H
  H50      1.0000 0.35520  0.59770  0.89810  Biso   1.000  H
  H51      1.0000 0.14480  0.09770  0.60190  Biso   1.000  H
  H52      1.0000 0.85520  0.09770  0.89810  Biso   1.000  H
  H53      1.0000 0.35520  0.40230  0.39810  Biso   1.000  H
  H54      1.0000 0.64480  0.40230  0.10190  Biso   1.000  H
  H55      1.0000 0.85520  0.90230  0.39810  Biso   1.000  H
  H56      1.0000 0.14480  0.90230  0.10190  Biso   1.000  H
  C89      1.0000 0.41340  0.68003  0.55790  Biso   1.000  C
  C90      1.0000 0.58660  0.68003  0.94210  Biso   1.000  C
  C91      1.0000 0.91340  0.18003  0.55790  Biso   1.000  C
  C92      1.0000 0.08660  0.18003  0.94210  Biso   1.000  C
  C93      1.0000 0.58660  0.31997  0.44210  Biso   1.000  C
  C94      1.0000 0.41340  0.31997  0.05790  Biso   1.000  C
  C95      1.0000 0.08660  0.81997  0.44210  Biso   1.000  C
  C96      1.0000 0.91340  0.81997  0.05790  Biso   1.000  C
  C97      1.0000 0.53390  0.40204  0.71950  Biso   1.000  C
  C98      1.0000 0.46610  0.40204  0.78050  Biso   1.000  C
  C99      1.0000 0.03390  0.90204  0.71950  Biso   1.000  C
  C100     1.0000 0.96610  0.90204  0.78050  Biso   1.000  C
  C101     1.0000 0.46610  0.59796  0.28050  Biso   1.000  C
  C102     1.0000 0.53390  0.59796  0.21950  Biso   1.000  C
  C103     1.0000 0.96610  0.09796  0.28050  Biso   1.000  C
  C104     1.0000 0.03390  0.09796  0.21950  Biso   1.000  C
  H57      1.0000 0.55830  0.36650  0.69970  Biso   1.000  H
  H58      1.0000 0.44170  0.36650  0.80030  Biso   1.000  H
  H59      1.0000 0.05830  0.86650  0.69970  Biso   1.000  H
  H60      1.0000 0.94170  0.86650  0.80030  Biso   1.000  H
  H61      1.0000 0.44170  0.63350  0.30030  Biso   1.000  H
  H62      1.0000 0.55830  0.63350  0.19970  Biso   1.000  H
  H63      1.0000 0.94170  0.13350  0.30030  Biso   1.000  H
  H64      1.0000 0.05830  0.13350  0.19970  Biso   1.000  H
  C105     1.0000 0.30060  0.75475  0.25620  Biso   1.000  C
  C106     1.0000 0.69940  0.75475  0.24380  Biso   1.000  C
  C107     1.0000 0.80060  0.25475  0.25620  Biso   1.000  C
  C108     1.0000 0.19940  0.25475  0.24380  Biso   1.000  C
  C109     1.0000 0.69940  0.24525  0.74380  Biso   1.000  C
  C110     1.0000 0.30060  0.24525  0.75620  Biso   1.000  C
  C111     1.0000 0.19940  0.74525  0.74380  Biso   1.000  C
  C112     1.0000 0.80060  0.74525  0.75620  Biso   1.000  C
  H65      1.0000 0.24980  0.76760  0.17890  Biso   1.000  H
  H66      1.0000 0.75020  0.76760  0.32110  Biso   1.000  H
  H67      1.0000 0.74980  0.26760  0.17890  Biso   1.000  H
  H68      1.0000 0.25020  0.26760  0.32110  Biso   1.000  H
  H69      1.0000 0.75020  0.23240  0.82110  Biso   1.000  H
  H70      1.0000 0.24980  0.23240  0.67890  Biso   1.000  H
  H71      1.0000 0.25020  0.73240  0.82110  Biso   1.000  H
  H72      1.0000 0.74980  0.73240  0.67890  Biso   1.000  H
  C113     1.0000 0.56930  0.45470  0.68470  Biso   1.000  C
  C114     1.0000 0.43070  0.45470  0.81530  Biso   1.000  C
  C115     1.0000 0.06930  0.95470  0.68470  Biso   1.000  C
  C116     1.0000 0.93070  0.95470  0.81530  Biso   1.000  C
  C117     1.0000 0.43070  0.54530  0.31530  Biso   1.000  C
  C118     1.0000 0.56930  0.54530  0.18470  Biso   1.000  C
  C119     1.0000 0.93070  0.04530  0.31530  Biso   1.000  C
  C120     1.0000 0.06930  0.04530  0.18470  Biso   1.000  C
  C121     1.0000 0.63690  0.45808  0.61950  Biso   1.000  C
  C122     1.0000 0.36310  0.45808  0.88050  Biso   1.000  C
  C123     1.0000 0.13690  0.95808  0.61950  Biso   1.000  C
  C124     1.0000 0.86310  0.95808  0.88050  Biso   1.000  C
  C125     1.0000 0.36310  0.54192  0.38050  Biso   1.000  C
  C126     1.0000 0.63690  0.54192  0.11950  Biso   1.000  C
  C127     1.0000 0.86310  0.04192  0.38050  Biso   1.000  C
  C128     1.0000 0.13690  0.04192  0.11950  Biso   1.000  C
  H73      1.0000 0.66380  0.42400  0.59660  Biso   1.000  H
  H74      1.0000 0.33620  0.42400  0.90340  Biso   1.000  H
  H75      1.0000 0.16380  0.92400  0.59660  Biso   1.000  H
  H76      1.0000 0.83620  0.92400  0.90340  Biso   1.000  H
  H77      1.0000 0.33620  0.57600  0.40340  Biso   1.000  H
  H78      1.0000 0.66380  0.57600  0.09660  Biso   1.000  H
  H79      1.0000 0.83620  0.07600  0.40340  Biso   1.000  H
  H80      1.0000 0.16380  0.07600  0.09660  Biso   1.000  H
