data_image0
_cell_length_a       10.26
_cell_length_b       14.003
_cell_length_c       19.176
_cell_angle_alpha    94.8
_cell_angle_beta     99.73
_cell_angle_gamma    111.01

_symmetry_space_group_name_H-M    "P 1"
_symmetry_int_tables_number       1

loop_
  _symmetry_equiv_pos_as_xyz
  'x, y, z'

loop_
  _atom_site_label
  _atom_site_occupancy
  _atom_site_fract_x
  _atom_site_fract_y
  _atom_site_fract_z
  _atom_site_thermal_displace_type
  _atom_site_B_iso_or_equiv
  _atom_site_type_symbol
  Cu1      1.0000 0.53833  0.28170  0.35099  Biso   1.000  Cu
  Cu2      1.0000 0.46167  0.71830  0.64901  Biso   1.000  Cu
  Cu3      1.0000 0.50000  0.00000  0.50000  Biso   1.000  Cu
  P1       1.0000 0.32745  0.05482  0.36235  Biso   1.000  P
  P2       1.0000 0.67255  0.94518  0.63765  Biso   1.000  P
  P3       1.0000 0.30736  0.34076  0.24111  Biso   1.000  P
  P4       1.0000 0.69264  0.65924  0.75889  Biso   1.000  P
  Cl1      1.0000 0.30750  0.95079  0.99874  Biso   1.000  Cl
  Cl2      1.0000 0.69250  0.04921  0.00126  Biso   1.000  Cl
  Cl3      1.0000 0.41747  0.69082  0.99951  Biso   1.000  Cl
  Cl4      1.0000 0.58253  0.30918  0.00049  Biso   1.000  Cl
  O1       1.0000 0.37900  0.14901  0.32345  Biso   1.000  O
  O2       1.0000 0.62100  0.85099  0.67655  Biso   1.000  O
  O3       1.0000 0.43220  0.37465  0.30339  Biso   1.000  O
  O4       1.0000 0.56780  0.62535  0.69661  Biso   1.000  O
  O5       1.0000 0.45440  0.04128  0.40764  Biso   1.000  O
  O6       1.0000 0.54560  0.95872  0.59236  Biso   1.000  O
  O7       1.0000 0.25430  0.95516  0.29902  Biso   1.000  O
  O8       1.0000 0.74570  0.04484  0.70098  Biso   1.000  O
  O9       1.0000 0.21330  0.05505  0.40141  Biso   1.000  O
  O10      1.0000 0.78670  0.94495  0.59859  Biso   1.000  O
  O11      1.0000 0.36670  0.35282  0.16819  Biso   1.000  O
  O12      1.0000 0.63330  0.64718  0.83181  Biso   1.000  O
  O13      1.0000 0.22790  0.21965  0.22900  Biso   1.000  O
  O14      1.0000 0.77210  0.78035  0.77100  Biso   1.000  O
  H1       1.0000 0.26990  0.19460  0.25930  Biso   1.000  H
  H2       1.0000 0.73010  0.80540  0.74070  Biso   1.000  H
  O15      1.0000 0.20230  0.39148  0.24289  Biso   1.000  O
  O16      1.0000 0.79770  0.60852  0.75711  Biso   1.000  O
  N1       1.0000 0.72370  0.39470  0.38184  Biso   1.000  N
  N2       1.0000 0.27630  0.60530  0.61816  Biso   1.000  N
  N3       1.0000 0.62910  0.26790  0.26517  Biso   1.000  N
  N4       1.0000 0.37090  0.73210  0.73483  Biso   1.000  N
  N5       1.0000 0.33670  0.85810  0.47331  Biso   1.000  N
  N6       1.0000 0.66330  0.14190  0.52669  Biso   1.000  N
  N7       1.0000 0.52610  0.33100  0.45246  Biso   1.000  N
  N8       1.0000 0.47390  0.66900  0.54754  Biso   1.000  N
  C1       1.0000 0.74860  0.45800  0.44337  Biso   1.000  C
  C2       1.0000 0.25140  0.54200  0.55663  Biso   1.000  C
  C3       1.0000 0.63680  0.42080  0.48525  Biso   1.000  C
  C4       1.0000 0.36320  0.57920  0.51475  Biso   1.000  C
  C5       1.0000 0.76440  0.33690  0.27150  Biso   1.000  C
  C6       1.0000 0.23560  0.66310  0.72850  Biso   1.000  C
  C7       1.0000 0.16300  0.96780  0.17839  Biso   1.000  C
  C8       1.0000 0.83700  0.03220  0.82161  Biso   1.000  C
  C9       1.0000 0.64200  0.47100  0.55128  Biso   1.000  C
  C10      1.0000 0.35800  0.52900  0.44872  Biso   1.000  C
  H3       1.0000 0.72010  0.53340  0.57280  Biso   1.000  H
  H4       1.0000 0.27990  0.46660  0.42720  Biso   1.000  H
  C11      1.0000 0.39490  0.93350  0.13704  Biso   1.000  C
  C12      1.0000 0.60510  0.06650  0.86296  Biso   1.000  C
  H5       1.0000 0.47040  0.91940  0.12170  Biso   1.000  H
  H6       1.0000 0.52960  0.08060  0.87830  Biso   1.000  H
  C13      1.0000 0.27110  0.95520  0.22838  Biso   1.000  C
  C14      1.0000 0.72890  0.04480  0.77162  Biso   1.000  C
  C15      1.0000 0.50730  0.52080  0.14445  Biso   1.000  C
  C16      1.0000 0.49270  0.47920  0.85555  Biso   1.000  C
  C17      1.0000 0.09950  0.66920  0.43782  Biso   1.000  C
  C18      1.0000 0.90050  0.33080  0.56218  Biso   1.000  C
  C19      1.0000 0.03150  0.97520  0.20173  Biso   1.000  C
  C20      1.0000 0.96850  0.02480  0.79827  Biso   1.000  C
  H7       1.0000 0.06390  0.02190  0.24890  Biso   1.000  H
  H8       1.0000 0.93610  0.97810  0.75110  Biso   1.000  H
  C21      1.0000 0.87010  0.54800  0.46266  Biso   1.000  C
  C22      1.0000 0.12990  0.45200  0.53734  Biso   1.000  C
  H9       1.0000 0.88590  0.59350  0.50560  Biso   1.000  H
  H10      1.0000 0.11410  0.40650  0.49440  Biso   1.000  H
  C23      1.0000 0.41940  0.29110  0.48662  Biso   1.000  C
  C24      1.0000 0.58060  0.70890  0.51338  Biso   1.000  C
  H11      1.0000 0.34150  0.22890  0.46440  Biso   1.000  H
  H12      1.0000 0.65850  0.77110  0.53560  Biso   1.000  H
  C25      1.0000 0.94230  0.50310  0.35511  Biso   1.000  C
  C26      1.0000 0.05770  0.49690  0.64489  Biso   1.000  C
  H13      1.0000 0.00810  0.51670  0.32430  Biso   1.000  H
  H14      1.0000 0.99190  0.48330  0.67570  Biso   1.000  H
  C27      1.0000 0.38630  0.93680  0.20896  Biso   1.000  C
  C28      1.0000 0.61370  0.06320  0.79104  Biso   1.000  C
  C29      1.0000 0.84180  0.33560  0.21925  Biso   1.000  C
  C30      1.0000 0.15820  0.66440  0.78075  Biso   1.000  C
  H15      1.0000 0.93780  0.38310  0.22560  Biso   1.000  H
  H16      1.0000 0.06220  0.61690  0.77440  Biso   1.000  H
  C31      1.0000 0.81650  0.41450  0.33804  Biso   1.000  C
  C32      1.0000 0.18350  0.58550  0.66196  Biso   1.000  C
  C33      1.0000 0.56520  0.19960  0.20452  Biso   1.000  C
  C34      1.0000 0.43480  0.80040  0.79548  Biso   1.000  C
  H17      1.0000 0.46920  0.15270  0.19930  Biso   1.000  H
  H18      1.0000 0.53080  0.84730  0.80070  Biso   1.000  H
  C35      1.0000 0.96990  0.57180  0.41851  Biso   1.000  C
  C36      1.0000 0.03010  0.42820  0.58149  Biso   1.000  C
  C37      1.0000 0.25550  0.82190  0.52083  Biso   1.000  C
  C38      1.0000 0.74450  0.17810  0.47917  Biso   1.000  C
  H19      1.0000 0.28010  0.86170  0.56710  Biso   1.000  H
  H20      1.0000 0.71990  0.13830  0.43290  Biso   1.000  H
  C39      1.0000 0.13880  0.73020  0.50559  Biso   1.000  C
  C40      1.0000 0.86120  0.26980  0.49441  Biso   1.000  C
  H21      1.0000 0.08460  0.70810  0.54090  Biso   1.000  H
  H22      1.0000 0.91540  0.29190  0.45910  Biso   1.000  H
  C41      1.0000 0.17840  0.96730  0.10815  Biso   1.000  C
  C42      1.0000 0.82160  0.03270  0.89185  Biso   1.000  C
  H23      1.0000 0.10980  0.97850  0.07330  Biso   1.000  H
  H24      1.0000 0.89020  0.02150  0.92670  Biso   1.000  H
  C43      1.0000 0.49960  0.91970  0.26313  Biso   1.000  C
  C44      1.0000 0.50040  0.08030  0.73687  Biso   1.000  C
  H25      1.0000 0.47500  0.92770  0.31100  Biso   1.000  H
  H26      1.0000 0.52500  0.07230  0.68900  Biso   1.000  H
  C45      1.0000 0.77630  0.26330  0.15713  Biso   1.000  C
  C46      1.0000 0.22370  0.73670  0.84287  Biso   1.000  C
  H27      1.0000 0.82720  0.26030  0.12050  Biso   1.000  H
  H28      1.0000 0.17280  0.73970  0.87950  Biso   1.000  H
  C47      1.0000 0.30210  0.79870  0.40937  Biso   1.000  C
  C48      1.0000 0.69790  0.20130  0.59063  Biso   1.000  C
  H29      1.0000 0.36010  0.82210  0.37580  Biso   1.000  H
  H30      1.0000 0.63990  0.17790  0.62420  Biso   1.000  H
  C49      1.0000 0.18670  0.70530  0.38942  Biso   1.000  C
  C50      1.0000 0.81330  0.29470  0.61058  Biso   1.000  C
  H31      1.0000 0.16680  0.66620  0.34330  Biso   1.000  H
  H32      1.0000 0.83320  0.33380  0.65670  Biso   1.000  H
  C51      1.0000 0.37860  0.43380  0.12964  Biso   1.000  C
  C52      1.0000 0.62140  0.56620  0.87036  Biso   1.000  C
  C53      1.0000 0.63360  0.53020  0.20219  Biso   1.000  C
  C54      1.0000 0.36640  0.46980  0.79781  Biso   1.000  C
  H33      1.0000 0.60910  0.46360  0.22200  Biso   1.000  H
  H34      1.0000 0.39090  0.53640  0.77800  Biso   1.000  H
  C55      1.0000 0.63570  0.19580  0.14925  Biso   1.000  C
  C56      1.0000 0.36430  0.80420  0.85075  Biso   1.000  C
  H35      1.0000 0.58810  0.14750  0.10650  Biso   1.000  H
  H36      1.0000 0.41190  0.85250  0.89350  Biso   1.000  H
  C57      1.0000 0.53100  0.42840  0.58562  Biso   1.000  C
  C58      1.0000 0.46900  0.57160  0.41438  Biso   1.000  C
  H37      1.0000 0.53190  0.46160  0.63110  Biso   1.000  H
  H38      1.0000 0.46810  0.53840  0.36890  Biso   1.000  H
  C59      1.0000 0.29340  0.95070  0.08827  Biso   1.000  C
  C60      1.0000 0.70660  0.04930  0.91173  Biso   1.000  C
  C61      1.0000 0.51700  0.59960  0.10319  Biso   1.000  C
  C62      1.0000 0.48300  0.40040  0.89681  Biso   1.000  C
  H39      1.0000 0.60180  0.66030  0.11240  Biso   1.000  H
  H40      1.0000 0.39820  0.33970  0.88760  Biso   1.000  H
  C63      1.0000 0.41970  0.33800  0.55355  Biso   1.000  C
  C64      1.0000 0.58030  0.66200  0.44645  Biso   1.000  C
  H41      1.0000 0.34350  0.30770  0.57680  Biso   1.000  H
  H42      1.0000 0.65650  0.69230  0.42320  Biso   1.000  H
  C65      1.0000 0.26450  0.42220  0.07289  Biso   1.000  C
  C66      1.0000 0.73550  0.57780  0.92711  Biso   1.000  C
  C67      1.0000 0.76790  0.54690  0.17171  Biso   1.000  C
  C68      1.0000 0.23210  0.45310  0.82829  Biso   1.000  C
  H43      1.0000 0.74960  0.48790  0.13510  Biso   1.000  H
  H44      1.0000 0.25040  0.51210  0.86490  Biso   1.000  H
  H45      1.0000 0.84770  0.55310  0.21040  Biso   1.000  H
  H46      1.0000 0.15230  0.44690  0.78960  Biso   1.000  H
  H47      1.0000 0.79200  0.61050  0.15030  Biso   1.000  H
  H48      1.0000 0.20800  0.38950  0.84970  Biso   1.000  H
  C69      1.0000 0.93420  0.86700  0.21230  Biso   1.000  C
  C70      1.0000 0.06580  0.13300  0.78770  Biso   1.000  C
  H49      1.0000 0.90260  0.81970  0.16670  Biso   1.000  H
  H50      1.0000 0.09740  0.18030  0.83330  Biso   1.000  H
  H51      1.0000 0.85080  0.87140  0.22860  Biso   1.000  H
  H52      1.0000 0.14920  0.12860  0.77140  Biso   1.000  H
  H53      1.0000 0.98740  0.84100  0.24810  Biso   1.000  H
  H54      1.0000 0.01260  0.15900  0.75190  Biso   1.000  H
  C71      1.0000 0.13260  0.32130  0.05565  Biso   1.000  C
  C72      1.0000 0.86740  0.67870  0.94435  Biso   1.000  C
  H55      1.0000 0.10560  0.30320  0.10200  Biso   1.000  H
  H56      1.0000 0.89440  0.69680  0.89800  Biso   1.000  H
  C73      1.0000 0.66380  0.61720  0.26362  Biso   1.000  C
  C74      1.0000 0.33620  0.38280  0.73638  Biso   1.000  C
  H57      1.0000 0.69810  0.68410  0.24670  Biso   1.000  H
  H58      1.0000 0.30190  0.31590  0.75330  Biso   1.000  H
  H59      1.0000 0.73690  0.61510  0.30300  Biso   1.000  H
  H60      1.0000 0.26310  0.38490  0.69700  Biso   1.000  H
  H61      1.0000 0.57590  0.60810  0.28060  Biso   1.000  H
  H62      1.0000 0.42410  0.39190  0.71940  Biso   1.000  H
  C75      1.0000 0.27910  0.50170  0.03282  Biso   1.000  C
  C76      1.0000 0.72090  0.49830  0.96718  Biso   1.000  C
  H63      1.0000 0.20390  0.49590  0.99420  Biso   1.000  H
  H64      1.0000 0.79610  0.50410  0.00580  Biso   1.000  H
  C77      1.0000 0.40370  0.58960  0.04902  Biso   1.000  C
  C78      1.0000 0.59630  0.41040  0.95098  Biso   1.000  C
  C79      1.0000 0.94790  0.01900  0.14853  Biso   1.000  C
  C80      1.0000 0.05210  0.98100  0.85147  Biso   1.000  C
  H65      1.0000 0.01270  0.08500  0.13890  Biso   1.000  H
  H66      1.0000 0.98730  0.91500  0.86110  Biso   1.000  H
  H67      1.0000 0.87210  0.03020  0.16890  Biso   1.000  H
  H68      1.0000 0.12790  0.96980  0.83110  Biso   1.000  H
  H69      1.0000 0.90520  0.96990  0.10370  Biso   1.000  H
  H70      1.0000 0.09480  0.03010  0.89630  Biso   1.000  H
  C81      1.0000 0.00220  0.32970  0.00710  Biso   1.000  C
  C82      1.0000 0.99780  0.67030  0.99290  Biso   1.000  C
  H71      1.0000 0.98110  0.38680  0.02900  Biso   1.000  H
  H72      1.0000 0.01890  0.61320  0.97100  Biso   1.000  H
  H73      1.0000 0.91930  0.26470  0.00130  Biso   1.000  H
  H74      1.0000 0.08070  0.73530  0.99870  Biso   1.000  H
  H75      1.0000 0.02350  0.34310  0.96010  Biso   1.000  H
  H76      1.0000 0.97650  0.65690  0.03990  Biso   1.000  H
  C83      1.0000 0.64860  0.00210  0.26870  Biso   1.000  C
  C84      1.0000 0.35140  0.99790  0.73130  Biso   1.000  C
  H77      1.0000 0.67350  0.00150  0.22150  Biso   1.000  H
  H78      1.0000 0.32650  0.99850  0.77850  Biso   1.000  H
  H79      1.0000 0.71860  0.98700  0.30280  Biso   1.000  H
  H80      1.0000 0.28140  0.01300  0.69720  Biso   1.000  H
  H81      1.0000 0.64940  0.07040  0.28520  Biso   1.000  H
  H82      1.0000 0.35060  0.92960  0.71480  Biso   1.000  H
  C85      1.0000 0.16850  0.23320  0.02180  Biso   1.000  C
  C86      1.0000 0.83150  0.76680  0.97820  Biso   1.000  C
  H83      1.0000 0.19530  0.24870  0.97610  Biso   1.000  H
  H84      1.0000 0.80470  0.75130  0.02390  Biso   1.000  H
  H85      1.0000 0.08480  0.16820  0.01340  Biso   1.000  H
  H86      1.0000 0.91520  0.83180  0.98660  Biso   1.000  H
  H87      1.0000 0.24840  0.22640  0.05420  Biso   1.000  H
  H88      1.0000 0.75160  0.77360  0.94580  Biso   1.000  H
  C87      1.0000 0.49860  0.81070  0.24940  Biso   1.000  C
  C88      1.0000 0.50140  0.18930  0.75060  Biso   1.000  C
  H89      1.0000 0.40330  0.76000  0.24920  Biso   1.000  H
  H90      1.0000 0.59670  0.24000  0.75080  Biso   1.000  H
  H91      1.0000 0.56900  0.80240  0.28730  Biso   1.000  H
  H92      1.0000 0.43100  0.19760  0.71270  Biso   1.000  H
  H93      1.0000 0.52270  0.79950  0.20290  Biso   1.000  H
  H94      1.0000 0.47730  0.20050  0.79710  Biso   1.000  H
  O17      1.0000 0.67820  0.93530  0.45537  Biso   1.000  O
  O18      1.0000 0.32180  0.06470  0.54463  Biso   1.000  O
  H95      1.0000 0.71400  0.93600  0.50000  Biso   1.000  H
  H96      1.0000 0.28600  0.06400  0.50000  Biso   1.000  H
  H97      1.0000 0.74630  0.95220  0.43170  Biso   1.000  H
  H98      1.0000 0.25370  0.04780  0.56830  Biso   1.000  H
  O19      1.0000 0.15620  0.56790  0.23940  Biso   1.000  O
  O20      1.0000 0.84380  0.43210  0.76060  Biso   1.000  O
  H99      1.0000 0.17650  0.51490  0.23610  Biso   1.000  H
  H100     1.0000 0.82350  0.48510  0.76390  Biso   1.000  H
  C89      1.0000 0.13920  0.59940  0.17140  Biso   1.000  C
  C90      1.0000 0.86080  0.40060  0.82860  Biso   1.000  C
  H101     1.0000 0.06310  0.54300  0.13730  Biso   1.000  H
  H102     1.0000 0.93690  0.45700  0.86270  Biso   1.000  H
  H103     1.0000 0.22890  0.61660  0.15480  Biso   1.000  H
  H104     1.0000 0.77110  0.38340  0.84520  Biso   1.000  H
  H105     1.0000 0.11370  0.66040  0.17500  Biso   1.000  H
  H106     1.0000 0.88630  0.33960  0.82500  Biso   1.000  H
  O21      1.0000 0.07080  0.31950  0.36109  Biso   1.000  O
  O22      1.0000 0.92920  0.68050  0.63891  Biso   1.000  O
  H107     1.0000 0.11540  0.34450  0.32980  Biso   1.000  H
  H108     1.0000 0.88460  0.65550  0.67020  Biso   1.000  H
  C91      1.0000 0.01860  0.20990  0.34640  Biso   1.000  C
  C92      1.0000 0.98140  0.79010  0.65360  Biso   1.000  C
  H109     1.0000 0.98020  0.18690  0.29480  Biso   1.000  H
  H110     1.0000 0.01980  0.81310  0.70520  Biso   1.000  H
  H111     1.0000 0.94270  0.18050  0.37240  Biso   1.000  H
  H112     1.0000 0.05730  0.81950  0.62760  Biso   1.000  H
  H113     1.0000 0.09660  0.18650  0.36180  Biso   1.000  H
  H114     1.0000 0.90340  0.81350  0.63820  Biso   1.000  H
  O23      1.0000 0.92720  0.95700  0.39512  Biso   1.000  O
  O24      1.0000 0.07280  0.04300  0.60488  Biso   1.000  O
  H115     1.0000 0.00940  0.00230  0.39910  Biso   1.000  H
  H116     1.0000 0.99060  0.99770  0.60090  Biso   1.000  H
  C93      1.0000 0.93830  0.86380  0.41320  Biso   1.000  C
  C94      1.0000 0.06170  0.13620  0.58680  Biso   1.000  C
  H117     1.0000 0.85700  0.80460  0.38430  Biso   1.000  H
  H118     1.0000 0.14300  0.19540  0.61570  Biso   1.000  H
  H119     1.0000 0.93790  0.86180  0.46410  Biso   1.000  H
  H120     1.0000 0.06210  0.13820  0.53590  Biso   1.000  H
  H121     1.0000 0.02750  0.86050  0.40360  Biso   1.000  H
  H122     1.0000 0.97250  0.13950  0.59640  Biso   1.000  H
