data_image0
_cell_length_a       10.27
_cell_length_b       13.932
_cell_length_c       19.316
_cell_angle_alpha    95.074
_cell_angle_beta     99.545
_cell_angle_gamma    111.15

_symmetry_space_group_name_H-M    "P 1"
_symmetry_int_tables_number       1

loop_
  _symmetry_equiv_pos_as_xyz
  'x, y, z'

loop_
  _atom_site_label
  _atom_site_occupancy
  _atom_site_fract_x
  _atom_site_fract_y
  _atom_site_fract_z
  _atom_site_thermal_displace_type
  _atom_site_B_iso_or_equiv
  _atom_site_type_symbol
  C1       1.0000 0.58210  0.70800  0.51360  Biso   1.000  C
  C2       1.0000 0.41790  0.29200  0.48640  Biso   1.000  C
  H1       1.0000 0.66090  0.77010  0.53590  Biso   1.000  H
  H2       1.0000 0.33910  0.22990  0.46410  Biso   1.000  H
  C3       1.0000 0.58080  0.66160  0.44750  Biso   1.000  C
  C4       1.0000 0.41920  0.33840  0.55250  Biso   1.000  C
  H3       1.0000 0.65740  0.69210  0.42460  Biso   1.000  H
  H4       1.0000 0.34260  0.30790  0.57540  Biso   1.000  H
  C5       1.0000 0.46860  0.57100  0.41460  Biso   1.000  C
  C6       1.0000 0.53140  0.42900  0.58540  Biso   1.000  C
  H5       1.0000 0.46680  0.53800  0.36910  Biso   1.000  H
  H6       1.0000 0.53320  0.46200  0.63090  Biso   1.000  H
  C7       1.0000 0.35780  0.52880  0.44930  Biso   1.000  C
  C8       1.0000 0.64220  0.47120  0.55070  Biso   1.000  C
  H7       1.0000 0.27860  0.46640  0.42790  Biso   1.000  H
  H8       1.0000 0.72140  0.53360  0.57210  Biso   1.000  H
  C9       1.0000 0.36450  0.57850  0.51500  Biso   1.000  C
  C10      1.0000 0.63550  0.42150  0.48500  Biso   1.000  C
  C11      1.0000 0.25230  0.54250  0.55600  Biso   1.000  C
  C12      1.0000 0.74770  0.45750  0.44400  Biso   1.000  C
  C13      1.0000 0.13060  0.45260  0.53720  Biso   1.000  C
  C14      1.0000 0.86940  0.54740  0.46280  Biso   1.000  C
  H9       1.0000 0.11370  0.40660  0.49450  Biso   1.000  H
  H10      1.0000 0.88630  0.59340  0.50550  Biso   1.000  H
  C15      1.0000 0.03290  0.42990  0.58100  Biso   1.000  C
  C16      1.0000 0.96710  0.57010  0.41900  Biso   1.000  C
  C17      1.0000 0.06020  0.49990  0.64350  Biso   1.000  C
  C18      1.0000 0.93980  0.50010  0.35650  Biso   1.000  C
  H11      1.0000 0.99350  0.48720  0.67370  Biso   1.000  H
  H12      1.0000 0.00650  0.51280  0.32630  Biso   1.000  H
  C19      1.0000 0.18540  0.58780  0.66050  Biso   1.000  C
  C20      1.0000 0.81460  0.41220  0.33950  Biso   1.000  C
  C21      1.0000 0.23840  0.66620  0.72610  Biso   1.000  C
  C22      1.0000 0.76160  0.33380  0.27390  Biso   1.000  C
  C23      1.0000 0.16220  0.66860  0.77850  Biso   1.000  C
  C24      1.0000 0.83780  0.33140  0.22150  Biso   1.000  C
  H13      1.0000 0.06630  0.62070  0.77250  Biso   1.000  H
  H14      1.0000 0.93370  0.37930  0.22750  Biso   1.000  H
  C25      1.0000 0.22670  0.74080  0.83930  Biso   1.000  C
  C26      1.0000 0.77330  0.25920  0.16070  Biso   1.000  C
  H15      1.0000 0.17510  0.74480  0.87520  Biso   1.000  H
  H16      1.0000 0.82490  0.25520  0.12480  Biso   1.000  H
  C27      1.0000 0.36580  0.80700  0.84740  Biso   1.000  C
  C28      1.0000 0.63420  0.19300  0.15260  Biso   1.000  C
  H17      1.0000 0.41360  0.85550  0.89000  Biso   1.000  H
  H18      1.0000 0.58640  0.14450  0.11000  Biso   1.000  H
  C29      1.0000 0.43620  0.80220  0.79280  Biso   1.000  C
  C30      1.0000 0.56380  0.19780  0.20720  Biso   1.000  C
  H19      1.0000 0.53290  0.84840  0.79850  Biso   1.000  H
  H20      1.0000 0.46710  0.15160  0.20150  Biso   1.000  H
  C31      1.0000 0.90130  0.33220  0.56180  Biso   1.000  C
  C32      1.0000 0.09870  0.66780  0.43820  Biso   1.000  C
  C33      1.0000 0.86100  0.27110  0.49490  Biso   1.000  C
  C34      1.0000 0.13900  0.72890  0.50510  Biso   1.000  C
  H21      1.0000 0.91520  0.29330  0.45980  Biso   1.000  H
  H22      1.0000 0.08480  0.70670  0.54020  Biso   1.000  H
  C35      1.0000 0.74410  0.17950  0.47940  Biso   1.000  C
  C36      1.0000 0.25590  0.82050  0.52060  Biso   1.000  C
  H23      1.0000 0.71830  0.13990  0.43310  Biso   1.000  H
  H24      1.0000 0.28170  0.86010  0.56690  Biso   1.000  H
  C37      1.0000 0.69840  0.20250  0.58960  Biso   1.000  C
  C38      1.0000 0.30160  0.79750  0.41040  Biso   1.000  C
  H25      1.0000 0.64000  0.17960  0.62290  Biso   1.000  H
  H26      1.0000 0.36000  0.82040  0.37710  Biso   1.000  H
  C39      1.0000 0.81470  0.29620  0.60920  Biso   1.000  C
  C40      1.0000 0.18530  0.70380  0.39080  Biso   1.000  C
  H27      1.0000 0.83490  0.33570  0.65510  Biso   1.000  H
  H28      1.0000 0.16510  0.66430  0.34490  Biso   1.000  H
  C41      1.0000 0.62240  0.56880  0.86840  Biso   1.000  C
  C42      1.0000 0.37760  0.43120  0.13160  Biso   1.000  C
  C43      1.0000 0.73650  0.58010  0.92460  Biso   1.000  C
  C44      1.0000 0.26350  0.41990  0.07540  Biso   1.000  C
  C45      1.0000 0.71960  0.49960  0.96360  Biso   1.000  C
  C46      1.0000 0.28040  0.50040  0.03640  Biso   1.000  C
  H29      1.0000 0.79440  0.50460  0.00170  Biso   1.000  H
  H30      1.0000 0.20560  0.49540  0.99830  Biso   1.000  H
  C47      1.0000 0.59460  0.41190  0.94740  Biso   1.000  C
  C48      1.0000 0.40540  0.58810  0.05260  Biso   1.000  C
  C49      1.0000 0.48240  0.40300  0.89400  Biso   1.000  C
  C50      1.0000 0.51760  0.59700  0.10600  Biso   1.000  C
  H31      1.0000 0.39670  0.34250  0.88450  Biso   1.000  H
  H32      1.0000 0.60330  0.65750  0.11550  Biso   1.000  H
  C51      1.0000 0.49440  0.48320  0.85350  Biso   1.000  C
  C52      1.0000 0.50560  0.51680  0.14650  Biso   1.000  C
  C53      1.0000 0.86940  0.67890  0.94270  Biso   1.000  C
  C54      1.0000 0.13060  0.32110  0.05730  Biso   1.000  C
  H33      1.0000 0.89780  0.69680  0.89690  Biso   1.000  H
  H34      1.0000 0.10220  0.30320  0.10310  Biso   1.000  H
  C55      1.0000 0.83780  0.76980  0.97650  Biso   1.000  C
  C56      1.0000 0.16220  0.23020  0.02350  Biso   1.000  C
  H35      1.0000 0.75900  0.77780  0.94460  Biso   1.000  H
  H36      1.0000 0.24100  0.22220  0.05540  Biso   1.000  H
  H37      1.0000 0.92310  0.83420  0.98460  Biso   1.000  H
  H38      1.0000 0.07690  0.16580  0.01540  Biso   1.000  H
  H39      1.0000 0.81100  0.75530  0.02200  Biso   1.000  H
  H40      1.0000 0.18900  0.24470  0.97800  Biso   1.000  H
  C57      1.0000 0.99720  0.66820  0.99040  Biso   1.000  C
  C58      1.0000 0.00280  0.33180  0.00960  Biso   1.000  C
  H41      1.0000 0.97610  0.65670  0.03730  Biso   1.000  H
  H42      1.0000 0.02390  0.34330  0.96270  Biso   1.000  H
  H43      1.0000 0.08210  0.73230  0.99550  Biso   1.000  H
  H44      1.0000 0.91790  0.26770  0.00450  Biso   1.000  H
  H45      1.0000 0.01490  0.60900  0.96880  Biso   1.000  H
  H46      1.0000 0.98510  0.39100  0.03120  Biso   1.000  H
  C59      1.0000 0.36700  0.47420  0.79640  Biso   1.000  C
  C60      1.0000 0.63300  0.52580  0.20360  Biso   1.000  C
  H47      1.0000 0.39170  0.54160  0.77730  Biso   1.000  H
  H48      1.0000 0.60830  0.45840  0.22270  Biso   1.000  H
  C61      1.0000 0.33840  0.38780  0.73490  Biso   1.000  C
  C62      1.0000 0.66160  0.61220  0.26510  Biso   1.000  C
  H49      1.0000 0.42740  0.39710  0.71900  Biso   1.000  H
  H50      1.0000 0.57260  0.60290  0.28100  Biso   1.000  H
  H51      1.0000 0.26720  0.39080  0.69550  Biso   1.000  H
  H52      1.0000 0.73280  0.60920  0.30450  Biso   1.000  H
  H53      1.0000 0.30240  0.32000  0.75080  Biso   1.000  H
  H54      1.0000 0.69760  0.68000  0.24920  Biso   1.000  H
  C63      1.0000 0.23550  0.45780  0.82720  Biso   1.000  C
  C64      1.0000 0.76450  0.54220  0.17280  Biso   1.000  C
  H55      1.0000 0.20860  0.39200  0.84620  Biso   1.000  H
  H56      1.0000 0.79140  0.60800  0.15380  Biso   1.000  H
  H57      1.0000 0.15650  0.45520  0.78980  Biso   1.000  H
  H58      1.0000 0.84350  0.54480  0.21020  Biso   1.000  H
  H59      1.0000 0.25630  0.51560  0.86560  Biso   1.000  H
  H60      1.0000 0.74370  0.48440  0.13440  Biso   1.000  H
  C65      1.0000 0.73290  0.04730  0.76900  Biso   1.000  C
  C66      1.0000 0.26710  0.95270  0.23100  Biso   1.000  C
  C67      1.0000 0.61840  0.06590  0.78940  Biso   1.000  C
  C68      1.0000 0.38160  0.93410  0.21060  Biso   1.000  C
  C69      1.0000 0.61260  0.06730  0.86080  Biso   1.000  C
  C70      1.0000 0.38740  0.93270  0.13920  Biso   1.000  C
  H61      1.0000 0.53870  0.08170  0.87760  Biso   1.000  H
  H62      1.0000 0.46130  0.91830  0.12240  Biso   1.000  H
  C71      1.0000 0.71400  0.04780  0.90720  Biso   1.000  C
  C72      1.0000 0.28600  0.95220  0.09280  Biso   1.000  C
  C73      1.0000 0.82770  0.03280  0.88670  Biso   1.000  C
  C74      1.0000 0.17230  0.96720  0.11330  Biso   1.000  C
  H63      1.0000 0.89690  0.02140  0.92050  Biso   1.000  H
  H64      1.0000 0.10310  0.97860  0.07950  Biso   1.000  H
  C75      1.0000 0.84170  0.03410  0.81620  Biso   1.000  C
  C76      1.0000 0.15830  0.96590  0.18380  Biso   1.000  C
  C77      1.0000 0.50530  0.08370  0.73670  Biso   1.000  C
  C78      1.0000 0.49470  0.91630  0.26330  Biso   1.000  C
  H65      1.0000 0.52970  0.07730  0.68900  Biso   1.000  H
  H66      1.0000 0.47030  0.92270  0.31100  Biso   1.000  H
  C79      1.0000 0.50800  0.19230  0.75330  Biso   1.000  C
  C80      1.0000 0.49200  0.80770  0.24670  Biso   1.000  C
  H67      1.0000 0.48820  0.20260  0.80070  Biso   1.000  H
  H68      1.0000 0.51180  0.79740  0.19930  Biso   1.000  H
  H69      1.0000 0.43520  0.20160  0.71780  Biso   1.000  H
  H70      1.0000 0.56480  0.79840  0.28220  Biso   1.000  H
  H71      1.0000 0.60250  0.24350  0.75210  Biso   1.000  H
  H72      1.0000 0.39750  0.75650  0.24790  Biso   1.000  H
  C81      1.0000 0.35840  0.00270  0.73090  Biso   1.000  C
  C82      1.0000 0.64160  0.99730  0.26910  Biso   1.000  C
  H73      1.0000 0.35810  0.93340  0.71630  Biso   1.000  H
  H74      1.0000 0.64190  0.06660  0.28370  Biso   1.000  H
  H75      1.0000 0.28990  0.01640  0.69550  Biso   1.000  H
  H76      1.0000 0.71010  0.98360  0.30450  Biso   1.000  H
  H77      1.0000 0.33150  0.00550  0.77720  Biso   1.000  H
  H78      1.0000 0.66850  0.99450  0.22280  Biso   1.000  H
  C83      1.0000 0.97150  0.02920  0.79220  Biso   1.000  C
  C84      1.0000 0.02850  0.97080  0.20780  Biso   1.000  C
  H79      1.0000 0.93870  0.98270  0.74510  Biso   1.000  H
  H80      1.0000 0.06130  0.01730  0.25490  Biso   1.000  H
  C85      1.0000 0.06670  0.13700  0.78220  Biso   1.000  C
  C86      1.0000 0.93330  0.86300  0.21780  Biso   1.000  C
  H81      1.0000 0.01340  0.16260  0.74660  Biso   1.000  H
  H82      1.0000 0.98660  0.83740  0.25340  Biso   1.000  H
  H83      1.0000 0.15050  0.13320  0.76590  Biso   1.000  H
  H84      1.0000 0.84950  0.86680  0.23410  Biso   1.000  H
  H85      1.0000 0.09780  0.18470  0.82750  Biso   1.000  H
  H86      1.0000 0.90220  0.81530  0.17250  Biso   1.000  H
  C87      1.0000 0.05780  0.98490  0.84360  Biso   1.000  C
  C88      1.0000 0.94220  0.01510  0.15640  Biso   1.000  C
  H87      1.0000 0.09790  0.03230  0.88910  Biso   1.000  H
  H88      1.0000 0.90210  0.96770  0.11090  Biso   1.000  H
  H89      1.0000 0.13550  0.97750  0.82310  Biso   1.000  H
  H90      1.0000 0.86450  0.02250  0.17690  Biso   1.000  H
  H91      1.0000 0.99500  0.91640  0.85130  Biso   1.000  H
  H92      1.0000 0.00500  0.08360  0.14870  Biso   1.000  H
  Br1      1.0000 0.57474  0.29951  0.99939  Biso   1.000  Br
  Br2      1.0000 0.42526  0.70049  0.00061  Biso   1.000  Br
  Br3      1.0000 0.69999  0.04194  0.00398  Biso   1.000  Br
  Br4      1.0000 0.30001  0.95806  0.99602  Biso   1.000  Br
  Cu1      1.0000 0.46438  0.71912  0.64825  Biso   1.000  Cu
  Cu2      1.0000 0.53562  0.28088  0.35175  Biso   1.000  Cu
  Cu3      1.0000 0.50000  0.00000  0.50000  Biso   1.000  Cu
  N1       1.0000 0.47580  0.66820  0.54748  Biso   1.000  N
  N2       1.0000 0.52420  0.33180  0.45252  Biso   1.000  N
  N3       1.0000 0.27850  0.60610  0.61755  Biso   1.000  N
  N4       1.0000 0.72150  0.39390  0.38245  Biso   1.000  N
  N5       1.0000 0.37320  0.73540  0.73298  Biso   1.000  N
  N6       1.0000 0.62680  0.26460  0.26702  Biso   1.000  N
  N7       1.0000 0.66430  0.14300  0.52664  Biso   1.000  N
  N8       1.0000 0.33570  0.85700  0.47336  Biso   1.000  N
  O1       1.0000 0.56930  0.62660  0.69643  Biso   1.000  O
  O2       1.0000 0.43070  0.37340  0.30357  Biso   1.000  O
  O3       1.0000 0.77390  0.78260  0.76904  Biso   1.000  O
  O4       1.0000 0.22610  0.21740  0.23096  Biso   1.000  O
  H93      1.0000 0.73090  0.80740  0.73930  Biso   1.000  H
  H94      1.0000 0.26910  0.19260  0.26070  Biso   1.000  H
  O5       1.0000 0.79900  0.60990  0.75561  Biso   1.000  O
  O6       1.0000 0.20100  0.39010  0.24439  Biso   1.000  O
  O7       1.0000 0.63810  0.65080  0.83063  Biso   1.000  O
  O8       1.0000 0.36190  0.34920  0.16937  Biso   1.000  O
  O9       1.0000 0.62460  0.85290  0.67499  Biso   1.000  O
  O10      1.0000 0.37540  0.14710  0.32501  Biso   1.000  O
  O11      1.0000 0.78600  0.94610  0.59646  Biso   1.000  O
  O12      1.0000 0.21400  0.05390  0.40354  Biso   1.000  O
  O13      1.0000 0.74630  0.04760  0.69795  Biso   1.000  O
  O14      1.0000 0.25370  0.95240  0.30205  Biso   1.000  O
  O15      1.0000 0.54600  0.95880  0.59175  Biso   1.000  O
  O16      1.0000 0.45400  0.04120  0.40825  Biso   1.000  O
  O17      1.0000 0.32330  0.06490  0.54449  Biso   1.000  O
  O18      1.0000 0.67670  0.93510  0.45551  Biso   1.000  O
  H95      1.0000 0.27470  0.02170  0.57090  Biso   1.000  H
  H96      1.0000 0.72530  0.97830  0.42910  Biso   1.000  H
  H97      1.0000 0.26140  0.06910  0.50790  Biso   1.000  H
  H98      1.0000 0.73860  0.93090  0.49210  Biso   1.000  H
  P1       1.0000 0.69450  0.66141  0.75773  Biso   1.000  P
  P2       1.0000 0.30550  0.33859  0.24227  Biso   1.000  P
  P3       1.0000 0.67367  0.94650  0.63608  Biso   1.000  P
  P4       1.0000 0.32633  0.05350  0.36392  Biso   1.000  P
  C89      1.0000 0.06390  0.13620  0.58480  Biso   1.000  C
  C90      1.0000 0.93610  0.86380  0.41520  Biso   1.000  C
  H99      1.0000 0.07300  0.13950  0.53530  Biso   1.000  H
  H100     1.0000 0.92700  0.86050  0.46470  Biso   1.000  H
  H101     1.0000 0.14120  0.19590  0.61600  Biso   1.000  H
  H102     1.0000 0.85880  0.80410  0.38400  Biso   1.000  H
  H103     1.0000 0.97160  0.13810  0.59010  Biso   1.000  H
  H104     1.0000 0.02840  0.86190  0.40990  Biso   1.000  H
  O19      1.0000 0.07260  0.04270  0.60370  Biso   1.000  O
  O20      1.0000 0.92740  0.95730  0.39630  Biso   1.000  O
  H105     1.0000 0.99420  0.00480  0.61220  Biso   1.000  H
  H106     1.0000 0.00580  0.99520  0.38780  Biso   1.000  H
  C91      1.0000 0.86780  0.40450  0.82780  Biso   1.000  C
  C92      1.0000 0.13220  0.59550  0.17220  Biso   1.000  C
  H107     1.0000 0.89560  0.34420  0.82450  Biso   1.000  H
  H108     1.0000 0.10440  0.65580  0.17550  Biso   1.000  H
  H109     1.0000 0.77750  0.38560  0.84390  Biso   1.000  H
  H110     1.0000 0.22250  0.61440  0.15610  Biso   1.000  H
  H111     1.0000 0.94230  0.46230  0.86180  Biso   1.000  H
  H112     1.0000 0.05770  0.53770  0.13820  Biso   1.000  H
  O21      1.0000 0.85040  0.43530  0.76024  Biso   1.000  O
  O22      1.0000 0.14960  0.56470  0.23976  Biso   1.000  O
  H113     1.0000 0.83040  0.48870  0.76350  Biso   1.000  H
  H114     1.0000 0.16960  0.51130  0.23650  Biso   1.000  H
  C93      1.0000 0.98200  0.79120  0.65230  Biso   1.000  C
  C94      1.0000 0.01800  0.20880  0.34770  Biso   1.000  C
  H115     1.0000 0.03480  0.82020  0.61620  Biso   1.000  H
  H116     1.0000 0.96520  0.17980  0.38380  Biso   1.000  H
  H117     1.0000 0.04580  0.81600  0.69940  Biso   1.000  H
  H118     1.0000 0.95420  0.18400  0.30060  Biso   1.000  H
  H119     1.0000 0.90170  0.81360  0.65120  Biso   1.000  H
  H120     1.0000 0.09830  0.18640  0.34880  Biso   1.000  H
  O23      1.0000 0.92950  0.68080  0.63791  Biso   1.000  O
  O24      1.0000 0.07050  0.31920  0.36209  Biso   1.000  O
  H121     1.0000 0.88750  0.65600  0.66990  Biso   1.000  H
  H122     1.0000 0.11250  0.34400  0.33010  Biso   1.000  H
