data_image0
_cell_length_a       10.331
_cell_length_b       13.97
_cell_length_c       19.644
_cell_angle_alpha    95.549
_cell_angle_beta     99.53
_cell_angle_gamma    111.171

_symmetry_space_group_name_H-M    "P 1"
_symmetry_int_tables_number       1

loop_
  _symmetry_equiv_pos_as_xyz
  'x, y, z'

loop_
  _atom_site_label
  _atom_site_occupancy
  _atom_site_fract_x
  _atom_site_fract_y
  _atom_site_fract_z
  _atom_site_thermal_displace_type
  _atom_site_B_iso_or_equiv
  _atom_site_type_symbol
  I1       1.0000 0.93555  0.71023  0.00208  Biso   1.000  I
  I2       1.0000 0.06445  0.28977  0.99792  Biso   1.000  I
  I3       1.0000 0.79291  0.96802  0.99408  Biso   1.000  I
  I4       1.0000 0.20709  0.03198  0.00592  Biso   1.000  I
  Cu1      1.0000 0.03550  0.27991  0.35332  Biso   1.000  Cu
  Cu2      1.0000 0.96450  0.72009  0.64668  Biso   1.000  Cu
  Cu3      1.0000 0.00000  0.00000  0.50000  Biso   1.000  Cu
  P1       1.0000 0.80410  0.33553  0.24418  Biso   1.000  P
  P2       1.0000 0.19590  0.66447  0.75582  Biso   1.000  P
  P3       1.0000 0.82710  0.05233  0.36601  Biso   1.000  P
  P4       1.0000 0.17290  0.94767  0.63399  Biso   1.000  P
  O1       1.0000 0.85810  0.34470  0.17150  Biso   1.000  O
  O2       1.0000 0.14190  0.65530  0.82850  Biso   1.000  O
  O3       1.0000 0.93000  0.37140  0.30510  Biso   1.000  O
  O4       1.0000 0.07000  0.62860  0.69490  Biso   1.000  O
  O5       1.0000 0.69950  0.38660  0.24720  Biso   1.000  O
  O6       1.0000 0.30050  0.61340  0.75280  Biso   1.000  O
  O7       1.0000 0.72490  0.21310  0.23390  Biso   1.000  O
  O8       1.0000 0.27510  0.78690  0.76610  Biso   1.000  O
  O9       1.0000 0.75430  0.94970  0.30560  Biso   1.000  O
  O10      1.0000 0.24570  0.05030  0.69440  Biso   1.000  O
  O11      1.0000 0.87630  0.14570  0.32710  Biso   1.000  O
  O12      1.0000 0.12370  0.85430  0.67290  Biso   1.000  O
  O13      1.0000 0.71330  0.05280  0.40520  Biso   1.000  O
  O14      1.0000 0.28670  0.94720  0.59480  Biso   1.000  O
  O15      1.0000 0.95390  0.04050  0.41010  Biso   1.000  O
  O16      1.0000 0.04610  0.95950  0.58990  Biso   1.000  O
  N1       1.0000 0.02350  0.33170  0.45270  Biso   1.000  N
  N2       1.0000 0.97650  0.66830  0.54730  Biso   1.000  N
  N3       1.0000 0.22210  0.39340  0.38390  Biso   1.000  N
  N4       1.0000 0.77790  0.60660  0.61610  Biso   1.000  N
  N5       1.0000 0.12620  0.26370  0.27020  Biso   1.000  N
  N6       1.0000 0.87380  0.73630  0.72980  Biso   1.000  N
  N7       1.0000 0.83690  0.85770  0.47450  Biso   1.000  N
  N8       1.0000 0.16310  0.14230  0.52550  Biso   1.000  N
  C1       1.0000 0.91960  0.29340  0.48610  Biso   1.000  C
  C2       1.0000 0.08040  0.70660  0.51390  Biso   1.000  C
  H1       1.0000 0.84120  0.23120  0.46400  Biso   1.000  H
  H2       1.0000 0.15880  0.76880  0.53600  Biso   1.000  H
  C3       1.0000 0.43130  0.85710  0.22290  Biso   1.000  C
  C4       1.0000 0.56870  0.14290  0.77710  Biso   1.000  C
  H3       1.0000 0.34730  0.85920  0.23910  Biso   1.000  H
  H4       1.0000 0.65270  0.14080  0.76090  Biso   1.000  H
  H5       1.0000 0.40110  0.80970  0.17810  Biso   1.000  H
  H6       1.0000 0.59890  0.19030  0.82190  Biso   1.000  H
  H7       1.0000 0.48590  0.83250  0.25760  Biso   1.000  H
  H8       1.0000 0.51410  0.16750  0.74240  Biso   1.000  H
  C5       1.0000 0.91990  0.34020  0.55190  Biso   1.000  C
  C6       1.0000 0.08010  0.65980  0.44810  Biso   1.000  C
  H9       1.0000 0.84380  0.30970  0.57430  Biso   1.000  H
  H10      1.0000 0.15620  0.69030  0.42570  Biso   1.000  H
  C7       1.0000 0.03090  0.43050  0.58390  Biso   1.000  C
  C8       1.0000 0.96910  0.56950  0.41610  Biso   1.000  C
  H11      1.0000 0.03180  0.46460  0.62840  Biso   1.000  H
  H12      1.0000 0.96820  0.53540  0.37160  Biso   1.000  H
  C9       1.0000 0.14410  0.47220  0.55020  Biso   1.000  C
  C10      1.0000 0.85590  0.52780  0.44980  Biso   1.000  C
  H13      1.0000 0.22410  0.53380  0.57180  Biso   1.000  H
  H14      1.0000 0.77590  0.46620  0.42820  Biso   1.000  H
  C11      1.0000 0.13520  0.42110  0.48480  Biso   1.000  C
  C12      1.0000 0.86480  0.57890  0.51520  Biso   1.000  C
  C13      1.0000 0.24770  0.45760  0.44430  Biso   1.000  C
  C14      1.0000 0.75230  0.54240  0.55570  Biso   1.000  C
  C15      1.0000 0.36980  0.54840  0.46330  Biso   1.000  C
  C16      1.0000 0.63020  0.45160  0.53670  Biso   1.000  C
  H15      1.0000 0.38560  0.59540  0.50500  Biso   1.000  H
  H16      1.0000 0.61440  0.40460  0.49500  Biso   1.000  H
  C17      1.0000 0.46910  0.57000  0.42070  Biso   1.000  C
  C18      1.0000 0.53090  0.43000  0.57930  Biso   1.000  C
  C19      1.0000 0.44070  0.49990  0.35870  Biso   1.000  C
  C20      1.0000 0.55930  0.50010  0.64130  Biso   1.000  C
  H17      1.0000 0.50660  0.51210  0.32890  Biso   1.000  H
  H18      1.0000 0.49340  0.48790  0.67110  Biso   1.000  H
  C21      1.0000 0.31400  0.41200  0.34170  Biso   1.000  C
  C22      1.0000 0.68600  0.58800  0.65830  Biso   1.000  C
  C23      1.0000 0.26090  0.33170  0.27700  Biso   1.000  C
  C24      1.0000 0.73910  0.66830  0.72300  Biso   1.000  C
  C25      1.0000 0.33970  0.32980  0.22590  Biso   1.000  C
  C26      1.0000 0.66030  0.67020  0.77410  Biso   1.000  C
  H19      1.0000 0.43510  0.37770  0.23240  Biso   1.000  H
  H20      1.0000 0.56490  0.62230  0.76760  Biso   1.000  H
  C27      1.0000 0.27390  0.25520  0.16490  Biso   1.000  C
  C28      1.0000 0.72610  0.74480  0.83510  Biso   1.000  C
  H21      1.0000 0.32480  0.25000  0.12950  Biso   1.000  H
  H22      1.0000 0.67520  0.75000  0.87050  Biso   1.000  H
  C29      1.0000 0.13340  0.18910  0.15710  Biso   1.000  C
  C30      1.0000 0.86660  0.81090  0.84290  Biso   1.000  C
  H23      1.0000 0.08540  0.14050  0.11500  Biso   1.000  H
  H24      1.0000 0.91460  0.85950  0.88500  Biso   1.000  H
  C31      1.0000 0.06260  0.19380  0.21050  Biso   1.000  C
  C32      1.0000 0.93740  0.80620  0.78950  Biso   1.000  C
  H25      1.0000 0.96700  0.14670  0.20500  Biso   1.000  H
  H26      1.0000 0.03300  0.85330  0.79500  Biso   1.000  H
  C33      1.0000 0.59950  0.66790  0.43910  Biso   1.000  C
  C34      1.0000 0.40050  0.33210  0.56090  Biso   1.000  C
  C35      1.0000 0.64020  0.72960  0.50610  Biso   1.000  C
  C36      1.0000 0.35980  0.27040  0.49390  Biso   1.000  C
  H27      1.0000 0.58790  0.70750  0.54100  Biso   1.000  H
  H28      1.0000 0.41210  0.29250  0.45900  Biso   1.000  H
  C37      1.0000 0.68520  0.70330  0.39200  Biso   1.000  C
  C38      1.0000 0.31480  0.29670  0.60800  Biso   1.000  C
  H29      1.0000 0.66390  0.66350  0.34670  Biso   1.000  H
  H30      1.0000 0.33610  0.33650  0.65330  Biso   1.000  H
  C39      1.0000 0.75690  0.82250  0.52030  Biso   1.000  C
  C40      1.0000 0.24310  0.17750  0.47970  Biso   1.000  C
  H31      1.0000 0.78160  0.86380  0.56540  Biso   1.000  H
  H32      1.0000 0.21840  0.13620  0.43460  Biso   1.000  H
  C41      1.0000 0.80230  0.79740  0.41150  Biso   1.000  C
  C42      1.0000 0.19770  0.20260  0.58850  Biso   1.000  C
  H33      1.0000 0.86030  0.81990  0.37870  Biso   1.000  H
  H34      1.0000 0.13970  0.18010  0.62130  Biso   1.000  H
  C43      1.0000 0.76590  0.94930  0.23480  Biso   1.000  C
  C44      1.0000 0.23410  0.05070  0.76520  Biso   1.000  C
  C45      1.0000 0.87780  0.93150  0.21340  Biso   1.000  C
  C46      1.0000 0.12220  0.06850  0.78660  Biso   1.000  C
  C47      1.0000 0.88180  0.93170  0.14230  Biso   1.000  C
  C48      1.0000 0.11820  0.06830  0.85770  Biso   1.000  C
  H35      1.0000 0.95430  0.91710  0.12490  Biso   1.000  H
  H36      1.0000 0.04570  0.08290  0.87510  Biso   1.000  H
  C49      1.0000 0.78200  0.95290  0.09750  Biso   1.000  C
  C50      1.0000 0.21800  0.04710  0.90250  Biso   1.000  C
  C51      1.0000 0.66560  0.96590  0.11970  Biso   1.000  C
  C52      1.0000 0.33440  0.03410  0.88030  Biso   1.000  C
  H37      1.0000 0.59530  0.97700  0.08730  Biso   1.000  H
  H38      1.0000 0.40470  0.02300  0.91270  Biso   1.000  H
  C53      1.0000 0.65410  0.96240  0.18850  Biso   1.000  C
  C54      1.0000 0.34590  0.03760  0.81150  Biso   1.000  C
  C55      1.0000 0.52390  0.96630  0.21360  Biso   1.000  C
  C56      1.0000 0.47610  0.03370  0.78640  Biso   1.000  C
  H39      1.0000 0.55730  0.01250  0.26040  Biso   1.000  H
  H40      1.0000 0.44270  0.98750  0.73960  Biso   1.000  H
  C57      1.0000 0.43740  0.01060  0.16420  Biso   1.000  C
  C58      1.0000 0.56260  0.98940  0.83580  Biso   1.000  C
  H41      1.0000 0.35530  0.01140  0.18270  Biso   1.000  H
  H42      1.0000 0.64470  0.98860  0.81730  Biso   1.000  H
  H43      1.0000 0.49730  0.08180  0.16050  Biso   1.000  H
  H44      1.0000 0.50270  0.91820  0.83950  Biso   1.000  H
  H45      1.0000 0.40440  0.96700  0.11770  Biso   1.000  H
  H46      1.0000 0.59560  0.03300  0.88230  Biso   1.000  H
  C59      1.0000 0.99050  0.91210  0.26490  Biso   1.000  C
  C60      1.0000 0.00950  0.08790  0.73510  Biso   1.000  C
  H47      1.0000 0.96650  0.91790  0.31200  Biso   1.000  H
  H48      1.0000 0.03350  0.08210  0.68800  Biso   1.000  H
  C61      1.0000 0.98870  0.80320  0.24730  Biso   1.000  C
  C62      1.0000 0.01130  0.19680  0.75270  Biso   1.000  C
  H49      1.0000 0.06230  0.79450  0.28150  Biso   1.000  H
  H50      1.0000 0.93770  0.20550  0.71850  Biso   1.000  H
  H51      1.0000 0.89540  0.75160  0.24860  Biso   1.000  H
  H52      1.0000 0.10460  0.24840  0.75140  Biso   1.000  H
  H53      1.0000 0.00730  0.79340  0.20030  Biso   1.000  H
  H54      1.0000 0.99270  0.20660  0.79970  Biso   1.000  H
  C63      1.0000 0.13930  0.99650  0.27100  Biso   1.000  C
  C64      1.0000 0.86070  0.00350  0.72900  Biso   1.000  C
  H55      1.0000 0.13650  0.06550  0.28240  Biso   1.000  H
  H56      1.0000 0.86350  0.93450  0.71760  Biso   1.000  H
  H57      1.0000 0.20730  0.98690  0.30820  Biso   1.000  H
  H58      1.0000 0.79270  0.01310  0.69180  Biso   1.000  H
  H59      1.0000 0.16890  0.99090  0.22640  Biso   1.000  H
  H60      1.0000 0.83110  0.00910  0.77360  Biso   1.000  H
  C65      1.0000 0.87460  0.42780  0.13440  Biso   1.000  C
  C66      1.0000 0.12540  0.57220  0.86560  Biso   1.000  C
  C67      1.0000 0.00420  0.51220  0.14960  Biso   1.000  C
  C68      1.0000 0.99580  0.48780  0.85040  Biso   1.000  C
  C69      1.0000 0.02080  0.59300  0.11010  Biso   1.000  C
  C70      1.0000 0.97920  0.40700  0.88990  Biso   1.000  C
  H61      1.0000 0.10750  0.65240  0.11970  Biso   1.000  H
  H62      1.0000 0.89250  0.34760  0.88030  Biso   1.000  H
  C71      1.0000 0.90950  0.58470  0.05720  Biso   1.000  C
  C72      1.0000 0.09050  0.41530  0.94280  Biso   1.000  C
  C73      1.0000 0.78400  0.49880  0.03970  Biso   1.000  C
  C74      1.0000 0.21600  0.50120  0.96030  Biso   1.000  C
  H63      1.0000 0.71180  0.49430  0.00120  Biso   1.000  H
  H64      1.0000 0.28820  0.50570  0.99880  Biso   1.000  H
  C75      1.0000 0.76310  0.41780  0.07870  Biso   1.000  C
  C76      1.0000 0.23690  0.58220  0.92130  Biso   1.000  C
  C77      1.0000 0.62800  0.31920  0.06110  Biso   1.000  C
  C78      1.0000 0.37200  0.68080  0.93890  Biso   1.000  C
  H65      1.0000 0.59930  0.30170  0.10600  Biso   1.000  H
  H66      1.0000 0.40070  0.69830  0.89400  Biso   1.000  H
  C79      1.0000 0.65520  0.22710  0.02590  Biso   1.000  C
  C80      1.0000 0.34480  0.77290  0.97410  Biso   1.000  C
  H67      1.0000 0.56720  0.16460  0.01500  Biso   1.000  H
  H68      1.0000 0.43280  0.83540  0.98500  Biso   1.000  H
  H69      1.0000 0.68680  0.24350  0.98250  Biso   1.000  H
  H70      1.0000 0.31320  0.75650  0.01750  Biso   1.000  H
  H71      1.0000 0.72890  0.21460  0.05770  Biso   1.000  H
  H72      1.0000 0.27110  0.78540  0.94230  Biso   1.000  H
  C81      1.0000 0.50240  0.33320  0.01330  Biso   1.000  C
  C82      1.0000 0.49760  0.66680  0.98670  Biso   1.000  C
  H73      1.0000 0.41830  0.26800  0.00350  Biso   1.000  H
  H74      1.0000 0.58170  0.73200  0.99650  Biso   1.000  H
  H75      1.0000 0.48110  0.38890  0.03720  Biso   1.000  H
  H76      1.0000 0.51890  0.61110  0.96280  Biso   1.000  H
  H77      1.0000 0.52860  0.35160  0.96920  Biso   1.000  H
  H78      1.0000 0.47140  0.64840  0.03080  Biso   1.000  H
  C83      1.0000 0.13030  0.52040  0.20680  Biso   1.000  C
  C84      1.0000 0.86970  0.47960  0.79320  Biso   1.000  C
  H79      1.0000 0.10520  0.45300  0.22490  Biso   1.000  H
  H80      1.0000 0.89480  0.54700  0.77510  Biso   1.000  H
  C85      1.0000 0.15880  0.60710  0.26760  Biso   1.000  C
  C86      1.0000 0.84120  0.39290  0.73240  Biso   1.000  C
  H81      1.0000 0.23950  0.61120  0.30350  Biso   1.000  H
  H82      1.0000 0.76050  0.38880  0.69650  Biso   1.000  H
  H83      1.0000 0.18080  0.67370  0.25060  Biso   1.000  H
  H84      1.0000 0.81920  0.32630  0.74940  Biso   1.000  H
  H85      1.0000 0.07430  0.59220  0.28770  Biso   1.000  H
  H86      1.0000 0.92570  0.40780  0.71230  Biso   1.000  H
  C87      1.0000 0.26480  0.53850  0.17680  Biso   1.000  C
  C88      1.0000 0.73520  0.46150  0.82320  Biso   1.000  C
  H87      1.0000 0.24450  0.48210  0.13780  Biso   1.000  H
  H88      1.0000 0.75550  0.51790  0.86220  Biso   1.000  H
  H89      1.0000 0.29290  0.60530  0.15990  Biso   1.000  H
  H90      1.0000 0.70710  0.39470  0.84010  Biso   1.000  H
  H91      1.0000 0.34220  0.53940  0.21350  Biso   1.000  H
  H92      1.0000 0.65780  0.46060  0.78650  Biso   1.000  H
  O17      1.0000 0.82300  0.06620  0.54520  Biso   1.000  O
  O18      1.0000 0.17700  0.93380  0.45480  Biso   1.000  O
  H93      1.0000 0.76880  0.05630  0.57550  Biso   1.000  H
  H94      1.0000 0.23120  0.94370  0.42450  Biso   1.000  H
  H95      1.0000 0.77050  0.04790  0.50300  Biso   1.000  H
  H96      1.0000 0.22950  0.95210  0.49700  Biso   1.000  H
  O19      1.0000 0.64650  0.56100  0.24220  Biso   1.000  O
  O20      1.0000 0.35350  0.43900  0.75780  Biso   1.000  O
  H97      1.0000 0.68290  0.51610  0.24100  Biso   1.000  H
  H98      1.0000 0.31710  0.48390  0.75900  Biso   1.000  H
  C89      1.0000 0.62930  0.59190  0.17460  Biso   1.000  C
  C90      1.0000 0.37070  0.40810  0.82540  Biso   1.000  C
  H99      1.0000 0.54810  0.53700  0.14220  Biso   1.000  H
  H100     1.0000 0.45190  0.46300  0.85780  Biso   1.000  H
  H101     1.0000 0.71570  0.60300  0.15660  Biso   1.000  H
  H102     1.0000 0.28430  0.39700  0.84340  Biso   1.000  H
  H103     1.0000 0.61240  0.65660  0.17890  Biso   1.000  H
  H104     1.0000 0.38760  0.34340  0.82110  Biso   1.000  H
  O21      1.0000 0.42800  0.95590  0.39760  Biso   1.000  O
  O22      1.0000 0.57200  0.04410  0.60240  Biso   1.000  O
  H105     1.0000 0.50610  0.99530  0.39040  Biso   1.000  H
  H106     1.0000 0.49390  0.00470  0.60960  Biso   1.000  H
  C91      1.0000 0.43950  0.86340  0.41650  Biso   1.000  C
  C92      1.0000 0.56050  0.13660  0.58350  Biso   1.000  C
  H107     1.0000 0.36760  0.80300  0.38380  Biso   1.000  H
  H108     1.0000 0.63240  0.19700  0.61620  Biso   1.000  H
  H109     1.0000 0.42440  0.85830  0.46420  Biso   1.000  H
  H110     1.0000 0.57560  0.14170  0.53580  Biso   1.000  H
  H111     1.0000 0.53450  0.86510  0.41450  Biso   1.000  H
  H112     1.0000 0.46550  0.13490  0.58550  Biso   1.000  H
  O23      1.0000 0.57130  0.31800  0.36290  Biso   1.000  O
  O24      1.0000 0.42870  0.68200  0.63710  Biso   1.000  O
  H113     1.0000 0.60860  0.34080  0.32980  Biso   1.000  H
  H114     1.0000 0.39140  0.65920  0.67020  Biso   1.000  H
  C93      1.0000 0.51740  0.20550  0.35010  Biso   1.000  C
  C94      1.0000 0.48260  0.79450  0.64990  Biso   1.000  C
  H115     1.0000 0.45960  0.17900  0.30240  Biso   1.000  H
  H116     1.0000 0.54040  0.82100  0.69760  Biso   1.000  H
  H117     1.0000 0.45900  0.17840  0.38370  Biso   1.000  H
  H118     1.0000 0.54100  0.82160  0.61630  Biso   1.000  H
  H119     1.0000 0.59730  0.18260  0.35550  Biso   1.000  H
  H120     1.0000 0.40270  0.81740  0.64450  Biso   1.000  H
