data_image0
_cell_length_a       5.022
_cell_length_b       12.34
_cell_length_c       16.39
_cell_angle_alpha    90
_cell_angle_beta     109.7
_cell_angle_gamma    90

_symmetry_space_group_name_H-M    "P 1"
_symmetry_int_tables_number       1

loop_
  _symmetry_equiv_pos_as_xyz
  'x, y, z'

loop_
  _atom_site_label
  _atom_site_occupancy
  _atom_site_fract_x
  _atom_site_fract_y
  _atom_site_fract_z
  _atom_site_thermal_displace_type
  _atom_site_B_iso_or_equiv
  _atom_site_type_symbol
  Cu1      1.0000 0.00000  0.00000  0.00000  Biso   1.000  Cu
  Cu2      1.0000 0.00000  0.50000  0.50000  Biso   1.000  Cu
  Cu3      1.0000 0.58810  0.86470  0.11720  Biso   1.000  Cu
  Cu4      1.0000 0.41190  0.36470  0.38280  Biso   1.000  Cu
  Cu5      1.0000 0.41190  0.13530  0.88280  Biso   1.000  Cu
  Cu6      1.0000 0.58810  0.63530  0.61720  Biso   1.000  Cu
  P1       1.0000 0.57910  0.10770  0.07990  Biso   1.000  P
  P2       1.0000 0.42090  0.60770  0.42010  Biso   1.000  P
  P3       1.0000 0.42090  0.89230  0.92010  Biso   1.000  P
  P4       1.0000 0.57910  0.39230  0.57990  Biso   1.000  P
  O1       1.0000 0.25650  0.11710  0.04650  Biso   1.000  O
  O2       1.0000 0.74350  0.61710  0.45350  Biso   1.000  O
  O3       1.0000 0.74350  0.88290  0.95350  Biso   1.000  O
  O4       1.0000 0.25650  0.38290  0.54650  Biso   1.000  O
  O5       1.0000 0.31570  0.90230  0.99920  Biso   1.000  O
  O6       1.0000 0.68430  0.40230  0.50080  Biso   1.000  O
  O7       1.0000 0.68430  0.09770  0.00080  Biso   1.000  O
  O8       1.0000 0.31570  0.59770  0.49920  Biso   1.000  O
  O9       1.0000 0.69370  0.01490  0.14250  Biso   1.000  O
  O10      1.0000 0.30630  0.51490  0.35750  Biso   1.000  O
  O11      1.0000 0.30630  0.98510  0.85750  Biso   1.000  O
  O12      1.0000 0.69370  0.48510  0.64250  Biso   1.000  O
  C1       1.0000 0.72040  0.23000  0.13590  Biso   1.000  C
  C2       1.0000 0.27960  0.73000  0.36410  Biso   1.000  C
  C3       1.0000 0.27960  0.77000  0.86410  Biso   1.000  C
  C4       1.0000 0.72040  0.27000  0.63590  Biso   1.000  C
  C5       1.0000 0.64820  0.24840  0.21780  Biso   1.000  C
  C6       1.0000 0.35180  0.74840  0.28220  Biso   1.000  C
  C7       1.0000 0.35180  0.75160  0.78220  Biso   1.000  C
  C8       1.0000 0.64820  0.25160  0.71780  Biso   1.000  C
  C9       1.0000 0.85970  0.31650  0.28590  Biso   1.000  C
  C10      1.0000 0.14030  0.81650  0.21410  Biso   1.000  C
  C11      1.0000 0.14030  0.68350  0.71410  Biso   1.000  C
  C12      1.0000 0.85970  0.18350  0.78590  Biso   1.000  C
  O13      1.0000 0.10820  0.31930  0.28150  Biso   1.000  O
  O14      1.0000 0.89180  0.81930  0.21850  Biso   1.000  O
  O15      1.0000 0.89180  0.68070  0.71850  Biso   1.000  O
  O16      1.0000 0.10820  0.18070  0.78150  Biso   1.000  O
  O17      1.0000 0.79470  0.36260  0.34410  Biso   1.000  O
  O18      1.0000 0.20530  0.86260  0.15590  Biso   1.000  O
  O19      1.0000 0.20530  0.63740  0.65590  Biso   1.000  O
  O20      1.0000 0.79470  0.13740  0.84410  Biso   1.000  O
  O21      1.0000 0.98690  0.66940  0.00120  Biso   1.000  O
  O22      1.0000 0.01310  0.16940  0.49880  Biso   1.000  O
  O23      1.0000 0.01310  0.33060  0.99880  Biso   1.000  O
  O24      1.0000 0.98690  0.83060  0.50120  Biso   1.000  O
  O25      1.0000 0.54070  0.70810  0.08470  Biso   1.000  O
  O26      1.0000 0.45930  0.20810  0.41530  Biso   1.000  O
  O27      1.0000 0.45930  0.29190  0.91530  Biso   1.000  O
  O28      1.0000 0.54070  0.79190  0.58470  Biso   1.000  O
  O29      1.0000 0.15990  0.48700  0.13300  Biso   1.000  O
  O30      1.0000 0.84010  0.98700  0.36700  Biso   1.000  O
  O31      1.0000 0.84010  0.51300  0.86700  Biso   1.000  O
  O32      1.0000 0.15990  0.01300  0.63300  Biso   1.000  O
  O33      1.0000 0.73710  0.54610  0.20860  Biso   1.000  O
  O34      1.0000 0.26290  0.04610  0.29140  Biso   1.000  O
  O35      1.0000 0.26290  0.45390  0.79140  Biso   1.000  O
  O36      1.0000 0.73710  0.95390  0.70860  Biso   1.000  O
  H1       1.0000 0.66000  0.29400  0.09700  Biso   1.000  H
  H2       1.0000 0.34000  0.79400  0.40300  Biso   1.000  H
  H3       1.0000 0.34000  0.70600  0.90300  Biso   1.000  H
  H4       1.0000 0.66000  0.20600  0.59700  Biso   1.000  H
  H5       1.0000 0.91000  0.22300  0.15200  Biso   1.000  H
  H6       1.0000 0.09000  0.72300  0.34800  Biso   1.000  H
  H7       1.0000 0.09000  0.77700  0.84800  Biso   1.000  H
  H8       1.0000 0.91000  0.27700  0.65200  Biso   1.000  H
  H9       1.0000 0.47000  0.28200  0.20900  Biso   1.000  H
  H10      1.0000 0.53000  0.78200  0.29100  Biso   1.000  H
  H11      1.0000 0.53000  0.71800  0.79100  Biso   1.000  H
  H12      1.0000 0.47000  0.21800  0.70900  Biso   1.000  H
  H13      1.0000 0.64000  0.17900  0.24600  Biso   1.000  H
  H14      1.0000 0.36000  0.67900  0.25400  Biso   1.000  H
  H15      1.0000 0.36000  0.82100  0.75400  Biso   1.000  H
  H16      1.0000 0.64000  0.32100  0.74600  Biso   1.000  H
  H17      1.0000 0.92000  0.72900  0.00200  Biso   1.000  H
  H18      1.0000 0.08000  0.22900  0.49800  Biso   1.000  H
  H19      1.0000 0.08000  0.27100  0.99800  Biso   1.000  H
  H20      1.0000 0.92000  0.77100  0.50200  Biso   1.000  H
  H21      1.0000 0.97000  0.61700  0.99900  Biso   1.000  H
  H22      1.0000 0.03000  0.11700  0.50100  Biso   1.000  H
  H23      1.0000 0.03000  0.38300  0.00100  Biso   1.000  H
  H24      1.0000 0.97000  0.88300  0.49900  Biso   1.000  H
  H25      1.0000 0.36000  0.69000  0.06300  Biso   1.000  H
  H26      1.0000 0.64000  0.19000  0.43700  Biso   1.000  H
  H27      1.0000 0.64000  0.31000  0.93700  Biso   1.000  H
  H28      1.0000 0.36000  0.81000  0.56300  Biso   1.000  H
  H29      1.0000 0.61000  0.66400  0.12400  Biso   1.000  H
  H30      1.0000 0.39000  0.16400  0.37600  Biso   1.000  H
  H31      1.0000 0.39000  0.33600  0.87600  Biso   1.000  H
  H32      1.0000 0.61000  0.83600  0.62400  Biso   1.000  H
  H33      1.0000 0.09000  0.46000  0.09400  Biso   1.000  H
  H34      1.0000 0.91000  0.96000  0.40600  Biso   1.000  H
  H35      1.0000 0.91000  0.54000  0.90600  Biso   1.000  H
  H36      1.0000 0.09000  0.04000  0.59400  Biso   1.000  H
  H37      1.0000 0.00000  0.49400  0.15900  Biso   1.000  H
  H38      1.0000 0.00000  0.99400  0.34100  Biso   1.000  H
  H39      1.0000 0.00000  0.50600  0.84100  Biso   1.000  H
  H40      1.0000 0.00000  0.00600  0.65900  Biso   1.000  H
  H41      1.0000 0.55000  0.51300  0.18200  Biso   1.000  H
  H42      1.0000 0.45000  0.01300  0.31800  Biso   1.000  H
  H43      1.0000 0.45000  0.48700  0.81800  Biso   1.000  H
  H44      1.0000 0.55000  0.98700  0.68200  Biso   1.000  H
  H45      1.0000 0.79000  0.54800  0.25700  Biso   1.000  H
  H46      1.0000 0.21000  0.04800  0.24300  Biso   1.000  H
  H47      1.0000 0.21000  0.45200  0.74300  Biso   1.000  H
  H48      1.0000 0.79000  0.95200  0.75700  Biso   1.000  H
