data_image0
_cell_length_a       11.597
_cell_length_b       10.555
_cell_length_c       12.256
_cell_angle_alpha    90
_cell_angle_beta     97.07
_cell_angle_gamma    90

_symmetry_space_group_name_H-M    "P 1"
_symmetry_int_tables_number       1

loop_
  _symmetry_equiv_pos_as_xyz
  'x, y, z'

loop_
  _atom_site_label
  _atom_site_occupancy
  _atom_site_fract_x
  _atom_site_fract_y
  _atom_site_fract_z
  _atom_site_thermal_displace_type
  _atom_site_B_iso_or_equiv
  _atom_site_type_symbol
  Cu1      1.0000 0.50000  0.00000  0.00000  Biso   1.000  Cu
  Cu2      1.0000 0.00000  0.50000  0.50000  Biso   1.000  Cu
  S1       1.0000 0.66603  0.11561  0.08823  Biso   1.000  S
  S2       1.0000 0.83397  0.61561  0.41177  Biso   1.000  S
  S3       1.0000 0.33397  0.88439  0.91177  Biso   1.000  S
  S4       1.0000 0.16603  0.38439  0.58823  Biso   1.000  S
  C1       1.0000 0.67230  0.09430  0.86710  Biso   1.000  C
  C2       1.0000 0.82770  0.59430  0.63290  Biso   1.000  C
  C3       1.0000 0.32770  0.90570  0.13290  Biso   1.000  C
  C4       1.0000 0.17230  0.40570  0.36710  Biso   1.000  C
  N1       1.0000 0.56370  0.03860  0.86440  Biso   1.000  N
  N2       1.0000 0.93630  0.53860  0.63560  Biso   1.000  N
  N3       1.0000 0.43630  0.96140  0.13560  Biso   1.000  N
  N4       1.0000 0.06370  0.46140  0.36440  Biso   1.000  N
  C5       1.0000 0.51690  0.04050  0.76040  Biso   1.000  C
  C6       1.0000 0.98310  0.54050  0.73960  Biso   1.000  C
  C7       1.0000 0.48310  0.95950  0.23960  Biso   1.000  C
  C8       1.0000 0.01690  0.45950  0.26040  Biso   1.000  C
  N5       1.0000 0.58970  0.09380  0.69790  Biso   1.000  N
  N6       1.0000 0.91030  0.59380  0.80210  Biso   1.000  N
  N7       1.0000 0.41030  0.90620  0.30210  Biso   1.000  N
  N8       1.0000 0.08970  0.40620  0.19790  Biso   1.000  N
  C9       1.0000 0.68940  0.13070  0.76360  Biso   1.000  C
  C10      1.0000 0.81060  0.63070  0.73640  Biso   1.000  C
  C11      1.0000 0.31060  0.86930  0.23640  Biso   1.000  C
  C12      1.0000 0.18940  0.36930  0.26360  Biso   1.000  C
  C13      1.0000 0.78620  0.19790  0.71920  Biso   1.000  C
  C14      1.0000 0.71380  0.69790  0.78080  Biso   1.000  C
  C15      1.0000 0.21380  0.80210  0.28080  Biso   1.000  C
  C16      1.0000 0.28620  0.30210  0.21920  Biso   1.000  C
  C17      1.0000 0.75010  0.09790  0.97310  Biso   1.000  C
  C18      1.0000 0.74990  0.59790  0.52690  Biso   1.000  C
  C19      1.0000 0.24990  0.90210  0.02690  Biso   1.000  C
  C20      1.0000 0.25010  0.40210  0.47310  Biso   1.000  C
  C21      1.0000 0.62420  0.28100  0.07530  Biso   1.000  C
  C22      1.0000 0.87580  0.78100  0.42470  Biso   1.000  C
  C23      1.0000 0.37580  0.71900  0.92470  Biso   1.000  C
  C24      1.0000 0.12420  0.21900  0.57530  Biso   1.000  C
  C25      1.0000 0.71850  0.36520  0.13440  Biso   1.000  C
  C26      1.0000 0.78150  0.86520  0.36560  Biso   1.000  C
  C27      1.0000 0.28150  0.63480  0.86560  Biso   1.000  C
  C28      1.0000 0.21850  0.13480  0.63440  Biso   1.000  C
  N9       1.0000 0.68650  0.49870  0.12510  Biso   1.000  N
  N10      1.0000 0.81350  0.99870  0.37490  Biso   1.000  N
  N11      1.0000 0.31350  0.50130  0.87490  Biso   1.000  N
  N12      1.0000 0.18650  0.00130  0.62510  Biso   1.000  N
  C29      1.0000 0.61320  0.55700  0.18560  Biso   1.000  C
  C30      1.0000 0.88680  0.05700  0.31440  Biso   1.000  C
  C31      1.0000 0.38680  0.44300  0.81440  Biso   1.000  C
  C32      1.0000 0.11320  0.94300  0.68560  Biso   1.000  C
  N13      1.0000 0.58620  0.67940  0.17510  Biso   1.000  N
  N14      1.0000 0.91380  0.17940  0.32490  Biso   1.000  N
  N15      1.0000 0.41380  0.32060  0.82490  Biso   1.000  N
  N16      1.0000 0.08620  0.82060  0.67510  Biso   1.000  N
  C33      1.0000 0.62440  0.74890  0.09870  Biso   1.000  C
  C34      1.0000 0.87560  0.24890  0.40130  Biso   1.000  C
  C35      1.0000 0.37560  0.25110  0.90130  Biso   1.000  C
  C36      1.0000 0.12440  0.75110  0.59870  Biso   1.000  C
  N17      1.0000 0.64880  0.82120  0.03460  Biso   1.000  N
  N18      1.0000 0.85120  0.32120  0.46540  Biso   1.000  N
  N19      1.0000 0.35120  0.17880  0.96540  Biso   1.000  N
  N20      1.0000 0.14880  0.67880  0.53460  Biso   1.000  N
  N21      1.0000 0.56270  0.49130  0.25960  Biso   1.000  N
  N22      1.0000 0.93730  0.99130  0.24040  Biso   1.000  N
  N23      1.0000 0.43730  0.50870  0.74040  Biso   1.000  N
  N24      1.0000 0.06270  0.00870  0.75960  Biso   1.000  N
  C37      1.0000 0.48200  0.55050  0.32500  Biso   1.000  C
  C38      1.0000 0.01800  0.05050  0.17500  Biso   1.000  C
  C39      1.0000 0.51800  0.44950  0.67500  Biso   1.000  C
  C40      1.0000 0.98200  0.94950  0.82500  Biso   1.000  C
  H1       1.0000 0.44400  0.00700  0.73400  Biso   1.000  H
  H2       1.0000 0.05600  0.50700  0.76600  Biso   1.000  H
  H3       1.0000 0.55600  0.99300  0.26600  Biso   1.000  H
  H4       1.0000 0.94400  0.49300  0.23400  Biso   1.000  H
  H5       1.0000 0.58300  0.10100  0.62900  Biso   1.000  H
  H6       1.0000 0.91700  0.60100  0.87100  Biso   1.000  H
  H7       1.0000 0.41700  0.89900  0.37100  Biso   1.000  H
  H8       1.0000 0.08300  0.39900  0.12900  Biso   1.000  H
  H9       1.0000 0.72700  0.54300  0.08800  Biso   1.000  H
  H10      1.0000 0.77300  0.04300  0.41200  Biso   1.000  H
  H11      1.0000 0.27300  0.45700  0.91200  Biso   1.000  H
  H12      1.0000 0.22700  0.95700  0.58800  Biso   1.000  H
  H13      1.0000 0.57900  0.41300  0.27300  Biso   1.000  H
  H14      1.0000 0.92100  0.91300  0.22700  Biso   1.000  H
  H15      1.0000 0.42100  0.58700  0.72700  Biso   1.000  H
  H16      1.0000 0.07900  0.08700  0.77300  Biso   1.000  H
  H17      1.0000 0.84700  0.21900  0.77300  Biso   1.000  H
  H18      1.0000 0.65300  0.71900  0.72700  Biso   1.000  H
  H19      1.0000 0.15300  0.78100  0.22700  Biso   1.000  H
  H20      1.0000 0.34700  0.28100  0.27300  Biso   1.000  H
  H21      1.0000 0.82400  0.14000  0.66700  Biso   1.000  H
  H22      1.0000 0.67600  0.64000  0.83300  Biso   1.000  H
  H23      1.0000 0.17600  0.86000  0.33300  Biso   1.000  H
  H24      1.0000 0.32400  0.36000  0.16700  Biso   1.000  H
  H25      1.0000 0.76400  0.26300  0.67500  Biso   1.000  H
  H26      1.0000 0.73600  0.76300  0.82500  Biso   1.000  H
  H27      1.0000 0.23600  0.73700  0.32500  Biso   1.000  H
  H28      1.0000 0.26400  0.23700  0.17500  Biso   1.000  H
  H29      1.0000 0.79100  0.01500  0.98600  Biso   1.000  H
  H30      1.0000 0.70900  0.51500  0.51400  Biso   1.000  H
  H31      1.0000 0.20900  0.98500  0.01400  Biso   1.000  H
  H32      1.0000 0.29100  0.48500  0.48600  Biso   1.000  H
  H33      1.0000 0.80800  0.17000  0.97700  Biso   1.000  H
  H34      1.0000 0.69200  0.67000  0.52300  Biso   1.000  H
  H35      1.0000 0.19200  0.83000  0.02300  Biso   1.000  H
  H36      1.0000 0.30800  0.33000  0.47700  Biso   1.000  H
  H37      1.0000 0.55400  0.29000  0.10900  Biso   1.000  H
  H38      1.0000 0.94600  0.79000  0.39100  Biso   1.000  H
  H39      1.0000 0.44600  0.71000  0.89100  Biso   1.000  H
  H40      1.0000 0.05400  0.21000  0.60900  Biso   1.000  H
  H41      1.0000 0.60900  0.30100  0.99600  Biso   1.000  H
  H42      1.0000 0.89100  0.80100  0.50400  Biso   1.000  H
  H43      1.0000 0.39100  0.69900  0.00400  Biso   1.000  H
  H44      1.0000 0.10900  0.19900  0.49600  Biso   1.000  H
  H45      1.0000 0.73300  0.34200  0.21100  Biso   1.000  H
  H46      1.0000 0.76700  0.84200  0.28900  Biso   1.000  H
  H47      1.0000 0.26700  0.65800  0.78900  Biso   1.000  H
  H48      1.0000 0.23300  0.15800  0.71100  Biso   1.000  H
  H49      1.0000 0.79100  0.35400  0.09800  Biso   1.000  H
  H50      1.0000 0.70900  0.85400  0.40200  Biso   1.000  H
  H51      1.0000 0.20900  0.64600  0.90200  Biso   1.000  H
  H52      1.0000 0.29100  0.14600  0.59800  Biso   1.000  H
  H53      1.0000 0.50900  0.62700  0.35600  Biso   1.000  H
  H54      1.0000 0.99100  0.12700  0.14400  Biso   1.000  H
  H55      1.0000 0.49100  0.37300  0.64400  Biso   1.000  H
  H56      1.0000 0.00900  0.87300  0.85600  Biso   1.000  H
  H57      1.0000 0.41200  0.57000  0.28300  Biso   1.000  H
  H58      1.0000 0.08800  0.07000  0.21700  Biso   1.000  H
  H59      1.0000 0.58800  0.43000  0.71700  Biso   1.000  H
  H60      1.0000 0.91200  0.93000  0.78300  Biso   1.000  H
  H61      1.0000 0.46400  0.49300  0.38400  Biso   1.000  H
  H62      1.0000 0.03600  0.99300  0.11600  Biso   1.000  H
  H63      1.0000 0.53600  0.50700  0.61600  Biso   1.000  H
  H64      1.0000 0.96400  0.00700  0.88400  Biso   1.000  H
  N25      1.0000 0.57300  0.19590  0.42050  Biso   1.000  N
  N26      1.0000 0.92700  0.69590  0.07950  Biso   1.000  N
  N27      1.0000 0.42700  0.80410  0.57950  Biso   1.000  N
  N28      1.0000 0.07300  0.30410  0.92050  Biso   1.000  N
  O1       1.0000 0.61240  0.09670  0.46740  Biso   1.000  O
  O2       1.0000 0.88760  0.59670  0.03260  Biso   1.000  O
  O3       1.0000 0.38760  0.90330  0.53260  Biso   1.000  O
  O4       1.0000 0.11240  0.40330  0.96740  Biso   1.000  O
  O5       1.0000 0.59690  0.22160  0.32710  Biso   1.000  O
  O6       1.0000 0.90310  0.72160  0.17290  Biso   1.000  O
  O7       1.0000 0.40310  0.77840  0.67290  Biso   1.000  O
  O8       1.0000 0.09690  0.27840  0.82710  Biso   1.000  O
  O9       1.0000 0.51130  0.26540  0.46760  Biso   1.000  O
  O10      1.0000 0.98870  0.76540  0.03240  Biso   1.000  O
  O11      1.0000 0.48870  0.73460  0.53240  Biso   1.000  O
  O12      1.0000 0.01130  0.23460  0.96760  Biso   1.000  O
