data_image0
_cell_length_a       7.337
_cell_length_b       10.767
_cell_length_c       10.967
_cell_angle_alpha    93.602
_cell_angle_beta     104.926
_cell_angle_gamma    104.64

_symmetry_space_group_name_H-M    "P 1"
_symmetry_int_tables_number       1

loop_
  _symmetry_equiv_pos_as_xyz
  'x, y, z'

loop_
  _atom_site_label
  _atom_site_occupancy
  _atom_site_fract_x
  _atom_site_fract_y
  _atom_site_fract_z
  _atom_site_thermal_displace_type
  _atom_site_B_iso_or_equiv
  _atom_site_type_symbol
  Cu1      1.0000 0.11952  0.25750  0.69299  Biso   1.000  Cu
  Cu2      1.0000 0.88048  0.74250  0.30701  Biso   1.000  Cu
  N1       1.0000 0.24000  0.44860  0.74380  Biso   1.000  N
  N2       1.0000 0.76000  0.55140  0.25620  Biso   1.000  N
  N3       1.0000 0.13840  0.30750  0.52380  Biso   1.000  N
  N4       1.0000 0.86160  0.69250  0.47620  Biso   1.000  N
  O1       1.0000 0.09440  0.22050  0.85980  Biso   1.000  O
  O2       1.0000 0.90560  0.77950  0.14020  Biso   1.000  O
  O3       1.0000 0.44370  0.22950  0.75170  Biso   1.000  O
  O4       1.0000 0.55630  0.77050  0.24830  Biso   1.000  O
  O5       1.0000 0.22590  0.05480  0.86240  Biso   1.000  O
  O6       1.0000 0.77410  0.94520  0.13760  Biso   1.000  O
  O7       1.0000 0.92700  0.09078  0.61290  Biso   1.000  O
  O8       1.0000 0.07300  0.90922  0.38710  Biso   1.000  O
  O9       1.0000 0.72830  0.21585  0.61820  Biso   1.000  O
  O10      1.0000 0.27170  0.78415  0.38180  Biso   1.000  O
  C1       1.0000 0.11700  0.11190  0.89320  Biso   1.000  C
  C2       1.0000 0.88300  0.88810  0.10680  Biso   1.000  C
  C3       1.0000 0.99380  0.05380  0.97560  Biso   1.000  C
  C4       1.0000 0.00620  0.94620  0.02440  Biso   1.000  C
  H1       1.0000 0.90460  0.09510  0.99320  Biso   1.000  H
  H2       1.0000 0.09540  0.90490  0.00680  Biso   1.000  H
  C5       1.0000 0.59020  0.99630  0.52040  Biso   1.000  C
  C6       1.0000 0.40980  0.00370  0.47960  Biso   1.000  C
  H3       1.0000 0.61460  0.91680  0.50590  Biso   1.000  H
  H4       1.0000 0.38540  0.08320  0.49410  Biso   1.000  H
  C7       1.0000 0.75910  0.11020  0.58930  Biso   1.000  C
  C8       1.0000 0.24090  0.88980  0.41070  Biso   1.000  C
  C9       1.0000 0.29090  0.51320  0.86080  Biso   1.000  C
  C10      1.0000 0.70910  0.48680  0.13920  Biso   1.000  C
  H5       1.0000 0.27220  0.46680  0.92740  Biso   1.000  H
  H6       1.0000 0.72780  0.53320  0.07260  Biso   1.000  H
  C11      1.0000 0.37000  0.64530  0.88700  Biso   1.000  C
  C12      1.0000 0.63000  0.35470  0.11300  Biso   1.000  C
  H7       1.0000 0.40420  0.68660  0.97010  Biso   1.000  H
  H8       1.0000 0.59580  0.31340  0.02990  Biso   1.000  H
  C13      1.0000 0.39860  0.71700  0.78940  Biso   1.000  C
  C14      1.0000 0.60140  0.28300  0.21060  Biso   1.000  C
  C15      1.0000 0.34650  0.64890  0.66780  Biso   1.000  C
  C16      1.0000 0.65350  0.35110  0.33220  Biso   1.000  C
  H9       1.0000 0.36400  0.69310  0.59970  Biso   1.000  H
  H10      1.0000 0.63600  0.30690  0.40030  Biso   1.000  H
  C17      1.0000 0.26900  0.51610  0.64760  Biso   1.000  C
  C18      1.0000 0.73100  0.48390  0.35240  Biso   1.000  C
  C19      1.0000 0.21060  0.43480  0.52150  Biso   1.000  C
  C20      1.0000 0.78940  0.56520  0.47850  Biso   1.000  C
  C21      1.0000 0.22880  0.48340  0.41020  Biso   1.000  C
  C22      1.0000 0.77120  0.51660  0.58980  Biso   1.000  C
  H11      1.0000 0.27880  0.57200  0.41130  Biso   1.000  H
  H12      1.0000 0.72120  0.42800  0.58870  Biso   1.000  H
  C23      1.0000 0.17240  0.39990  0.29660  Biso   1.000  C
  C24      1.0000 0.82760  0.60010  0.70340  Biso   1.000  C
  C25      1.0000 0.09870  0.26920  0.30080  Biso   1.000  C
  C26      1.0000 0.90130  0.73080  0.69920  Biso   1.000  C
  H13      1.0000 0.05940  0.21030  0.22690  Biso   1.000  H
  H14      1.0000 0.94060  0.78970  0.77310  Biso   1.000  H
  C27      1.0000 0.08350  0.22610  0.41460  Biso   1.000  C
  C28      1.0000 0.91650  0.77390  0.58540  Biso   1.000  C
  H15      1.0000 0.03360  0.13790  0.41580  Biso   1.000  H
  H16      1.0000 0.96640  0.86210  0.58420  Biso   1.000  H
  C29      1.0000 0.48100  0.86150  0.81160  Biso   1.000  C
  C30      1.0000 0.51900  0.13850  0.18840  Biso   1.000  C
  H17      1.0000 0.50820  0.89230  0.90030  Biso   1.000  H
  H18      1.0000 0.49180  0.10770  0.09970  Biso   1.000  H
  H19      1.0000 0.38740  0.90010  0.76190  Biso   1.000  H
  H20      1.0000 0.61260  0.09990  0.23810  Biso   1.000  H
  H21      1.0000 0.60020  0.88480  0.78690  Biso   1.000  H
  H22      1.0000 0.39980  0.11520  0.21310  Biso   1.000  H
  C31      1.0000 0.19010  0.45100  0.17510  Biso   1.000  C
  C32      1.0000 0.80990  0.54900  0.82490  Biso   1.000  C
  H23      1.0000 0.24420  0.54340  0.19150  Biso   1.000  H
  H24      1.0000 0.75580  0.45660  0.80850  Biso   1.000  H
  H25      1.0000 0.06260  0.42940  0.11450  Biso   1.000  H
  H26      1.0000 0.93740  0.57060  0.88550  Biso   1.000  H
  H27      1.0000 0.27500  0.41280  0.14140  Biso   1.000  H
  H28      1.0000 0.72500  0.58720  0.85860  Biso   1.000  H
  H29      1.0000 0.52500  0.21200  0.71600  Biso   1.000  H
  H30      1.0000 0.47500  0.78800  0.28400  Biso   1.000  H
  H31      1.0000 0.41100  0.16700  0.79100  Biso   1.000  H
  H32      1.0000 0.58900  0.83300  0.20900  Biso   1.000  H
