data_image0
_cell_length_a       7.767
_cell_length_b       11.091
_cell_length_c       15.094
_cell_angle_alpha    90
_cell_angle_beta     96.074
_cell_angle_gamma    90

_symmetry_space_group_name_H-M    "P 1"
_symmetry_int_tables_number       1

loop_
  _symmetry_equiv_pos_as_xyz
  'x, y, z'

loop_
  _atom_site_label
  _atom_site_occupancy
  _atom_site_fract_x
  _atom_site_fract_y
  _atom_site_fract_z
  _atom_site_thermal_displace_type
  _atom_site_B_iso_or_equiv
  _atom_site_type_symbol
  Cu1      1.0000 0.00000  0.50000  0.00000  Biso   1.000  Cu
  Cu2      1.0000 0.50000  0.00000  0.50000  Biso   1.000  Cu
  S1       1.0000 0.21166  0.59899  0.16326  Biso   1.000  S
  S2       1.0000 0.28834  0.09899  0.33674  Biso   1.000  S
  S3       1.0000 0.78834  0.40101  0.83674  Biso   1.000  S
  S4       1.0000 0.71166  0.90101  0.66326  Biso   1.000  S
  S5       1.0000 0.71474  0.69169  0.01859  Biso   1.000  S
  S6       1.0000 0.78526  0.19169  0.48141  Biso   1.000  S
  S7       1.0000 0.28526  0.30831  0.98141  Biso   1.000  S
  S8       1.0000 0.21474  0.80831  0.51859  Biso   1.000  S
  B1       1.0000 0.76930  0.25100  0.09930  Biso   1.000  B
  B2       1.0000 0.73070  0.75100  0.40070  Biso   1.000  B
  B3       1.0000 0.23070  0.74900  0.90070  Biso   1.000  B
  B4       1.0000 0.26930  0.24900  0.59930  Biso   1.000  B
  F1       1.0000 0.66450  0.16660  0.05820  Biso   1.000  F
  F2       1.0000 0.83550  0.66660  0.44180  Biso   1.000  F
  F3       1.0000 0.33550  0.83340  0.94180  Biso   1.000  F
  F4       1.0000 0.16450  0.33340  0.55820  Biso   1.000  F
  F5       1.0000 0.71170  0.28120  0.17915  Biso   1.000  F
  F6       1.0000 0.78830  0.78120  0.32085  Biso   1.000  F
  F7       1.0000 0.28830  0.71880  0.82085  Biso   1.000  F
  F8       1.0000 0.21170  0.21880  0.67915  Biso   1.000  F
  F9       1.0000 0.93440  0.20760  0.11428  Biso   1.000  F
  F10      1.0000 0.56560  0.70760  0.38572  Biso   1.000  F
  F11      1.0000 0.06560  0.79240  0.88572  Biso   1.000  F
  F12      1.0000 0.43440  0.29240  0.61428  Biso   1.000  F
  F13      1.0000 0.76920  0.35244  0.04581  Biso   1.000  F
  F14      1.0000 0.73080  0.85244  0.45419  Biso   1.000  F
  F15      1.0000 0.23080  0.64756  0.95419  Biso   1.000  F
  F16      1.0000 0.26920  0.14756  0.54581  Biso   1.000  F
  C1       1.0000 0.08880  0.47360  0.30390  Biso   1.000  C
  C2       1.0000 0.41120  0.97360  0.19610  Biso   1.000  C
  C3       1.0000 0.91120  0.52640  0.69610  Biso   1.000  C
  C4       1.0000 0.58880  0.02640  0.80390  Biso   1.000  C
  H1       1.0000 0.02650  0.48010  0.35530  Biso   1.000  H
  H2       1.0000 0.47350  0.98010  0.14470  Biso   1.000  H
  H3       1.0000 0.97350  0.51990  0.64470  Biso   1.000  H
  H4       1.0000 0.52650  0.01990  0.85530  Biso   1.000  H
  H5       1.0000 0.20390  0.44500  0.32170  Biso   1.000  H
  H6       1.0000 0.29610  0.94500  0.17830  Biso   1.000  H
  H7       1.0000 0.79610  0.55500  0.67830  Biso   1.000  H
  H8       1.0000 0.70390  0.05500  0.82170  Biso   1.000  H
  H9       1.0000 0.03030  0.41790  0.26230  Biso   1.000  H
  H10      1.0000 0.46970  0.91790  0.23770  Biso   1.000  H
  H11      1.0000 0.96970  0.58210  0.73770  Biso   1.000  H
  H12      1.0000 0.53030  0.08210  0.76230  Biso   1.000  H
  C5       1.0000 0.09770  0.59420  0.26100  Biso   1.000  C
  C6       1.0000 0.40230  0.09420  0.23900  Biso   1.000  C
  C7       1.0000 0.90230  0.40580  0.73900  Biso   1.000  C
  C8       1.0000 0.59770  0.90580  0.76100  Biso   1.000  C
  H13      1.0000 0.15320  0.65000  0.30460  Biso   1.000  H
  H14      1.0000 0.34680  0.15000  0.19540  Biso   1.000  H
  H15      1.0000 0.84680  0.35000  0.69540  Biso   1.000  H
  H16      1.0000 0.65320  0.85000  0.80460  Biso   1.000  H
  H17      1.0000 0.98050  0.62270  0.24490  Biso   1.000  H
  H18      1.0000 0.51950  0.12270  0.25510  Biso   1.000  H
  H19      1.0000 0.01950  0.37730  0.75510  Biso   1.000  H
  H20      1.0000 0.48050  0.87730  0.74490  Biso   1.000  H
  C9       1.0000 0.42550  0.55560  0.20810  Biso   1.000  C
  C10      1.0000 0.07450  0.05560  0.29190  Biso   1.000  C
  C11      1.0000 0.57450  0.44440  0.79190  Biso   1.000  C
  C12      1.0000 0.92550  0.94440  0.70810  Biso   1.000  C
  H21      1.0000 0.46590  0.60890  0.25690  Biso   1.000  H
  H22      1.0000 0.03410  0.10890  0.24310  Biso   1.000  H
  H23      1.0000 0.53410  0.39110  0.74310  Biso   1.000  H
  H24      1.0000 0.96590  0.89110  0.75690  Biso   1.000  H
  H25      1.0000 0.42340  0.47410  0.23120  Biso   1.000  H
  H26      1.0000 0.07660  0.97410  0.26880  Biso   1.000  H
  H27      1.0000 0.57660  0.52590  0.76880  Biso   1.000  H
  H28      1.0000 0.92340  0.02590  0.73120  Biso   1.000  H
  C13      1.0000 0.54790  0.56220  0.13640  Biso   1.000  C
  C14      1.0000 0.95210  0.06220  0.36360  Biso   1.000  C
  C15      1.0000 0.45210  0.43780  0.86360  Biso   1.000  C
  C16      1.0000 0.04790  0.93780  0.63640  Biso   1.000  C
  H29      1.0000 0.49740  0.51910  0.08410  Biso   1.000  H
  H30      1.0000 0.00260  0.01910  0.41590  Biso   1.000  H
  H31      1.0000 0.50260  0.48090  0.91590  Biso   1.000  H
  H32      1.0000 0.99740  0.98090  0.58410  Biso   1.000  H
  H33      1.0000 0.65580  0.52250  0.15760  Biso   1.000  H
  H34      1.0000 0.84420  0.02250  0.34240  Biso   1.000  H
  H35      1.0000 0.34420  0.47750  0.84240  Biso   1.000  H
  H36      1.0000 0.15580  0.97750  0.65760  Biso   1.000  H
  C17      1.0000 0.58580  0.69060  0.11061  Biso   1.000  C
  C18      1.0000 0.91420  0.19060  0.38939  Biso   1.000  C
  C19      1.0000 0.41420  0.30940  0.88939  Biso   1.000  C
  C20      1.0000 0.08580  0.80940  0.61061  Biso   1.000  C
  H37      1.0000 0.47790  0.73300  0.09410  Biso   1.000  H
  H38      1.0000 0.02210  0.23300  0.40590  Biso   1.000  H
  H39      1.0000 0.52210  0.26700  0.90590  Biso   1.000  H
  H40      1.0000 0.97790  0.76700  0.59410  Biso   1.000  H
  H41      1.0000 0.64710  0.73200  0.16110  Biso   1.000  H
  H42      1.0000 0.85290  0.23200  0.33890  Biso   1.000  H
  H43      1.0000 0.35290  0.26800  0.83890  Biso   1.000  H
  H44      1.0000 0.14710  0.76800  0.66110  Biso   1.000  H
  C21      1.0000 0.76910  0.84960  0.01670  Biso   1.000  C
  C22      1.0000 0.73090  0.34960  0.48330  Biso   1.000  C
  C23      1.0000 0.23090  0.15040  0.98330  Biso   1.000  C
  C24      1.0000 0.26910  0.65040  0.51670  Biso   1.000  C
  H45      1.0000 0.66330  0.89640  0.01510  Biso   1.000  H
  H46      1.0000 0.83670  0.39640  0.48490  Biso   1.000  H
  H47      1.0000 0.33670  0.10360  0.98490  Biso   1.000  H
  H48      1.0000 0.16330  0.60360  0.51510  Biso   1.000  H
  H49      1.0000 0.82120  0.86660  0.96250  Biso   1.000  H
  H50      1.0000 0.67880  0.36660  0.53750  Biso   1.000  H
  H51      1.0000 0.17880  0.13340  0.03750  Biso   1.000  H
  H52      1.0000 0.32120  0.63340  0.46250  Biso   1.000  H
  C25      1.0000 0.89050  0.89000  0.09470  Biso   1.000  C
  C26      1.0000 0.60950  0.39000  0.40530  Biso   1.000  C
  C27      1.0000 0.10950  0.11000  0.90530  Biso   1.000  C
  C28      1.0000 0.39050  0.61000  0.59470  Biso   1.000  C
  H53      1.0000 0.91430  0.97440  0.08900  Biso   1.000  H
  H54      1.0000 0.58570  0.47440  0.41100  Biso   1.000  H
  H55      1.0000 0.08570  0.02560  0.91100  Biso   1.000  H
  H56      1.0000 0.41430  0.52560  0.58900  Biso   1.000  H
  H57      1.0000 0.83840  0.87630  0.14870  Biso   1.000  H
  H58      1.0000 0.66160  0.37630  0.35130  Biso   1.000  H
  H59      1.0000 0.16160  0.12370  0.85130  Biso   1.000  H
  H60      1.0000 0.33840  0.62370  0.64870  Biso   1.000  H
  H61      1.0000 0.99660  0.84530  0.09640  Biso   1.000  H
  H62      1.0000 0.50340  0.34530  0.40360  Biso   1.000  H
  H63      1.0000 0.00340  0.15470  0.90360  Biso   1.000  H
  H64      1.0000 0.49660  0.65470  0.59640  Biso   1.000  H
  O1       1.0000 0.15300  0.48716  0.10909  Biso   1.000  O
  O2       1.0000 0.34700  0.98716  0.39091  Biso   1.000  O
  O3       1.0000 0.84700  0.51284  0.89091  Biso   1.000  O
  O4       1.0000 0.65300  0.01284  0.60909  Biso   1.000  O
  O5       1.0000 0.88290  0.62935  0.05619  Biso   1.000  O
  O6       1.0000 0.61710  0.12935  0.44381  Biso   1.000  O
  O7       1.0000 0.11710  0.37065  0.94381  Biso   1.000  O
  O8       1.0000 0.38290  0.87065  0.55619  Biso   1.000  O
