data_image0
_cell_length_a       17.905
_cell_length_b       12.5802
_cell_length_c       16.4851
_cell_angle_alpha    90
_cell_angle_beta     111.104
_cell_angle_gamma    90

_symmetry_space_group_name_H-M    "P 1"
_symmetry_int_tables_number       1

loop_
  _symmetry_equiv_pos_as_xyz
  'x, y, z'

loop_
  _atom_site_label
  _atom_site_occupancy
  _atom_site_fract_x
  _atom_site_fract_y
  _atom_site_fract_z
  _atom_site_thermal_displace_type
  _atom_site_B_iso_or_equiv
  _atom_site_type_symbol
  Cu1      1.0000 0.25604  0.53574  0.06204  Biso   1.000  Cu
  Cu2      1.0000 0.75604  0.03574  0.06204  Biso   1.000  Cu
  Cu3      1.0000 0.74396  0.53574  0.43796  Biso   1.000  Cu
  Cu4      1.0000 0.24396  0.03574  0.43796  Biso   1.000  Cu
  Cu5      1.0000 0.74396  0.46426  0.93796  Biso   1.000  Cu
  Cu6      1.0000 0.24396  0.96426  0.93796  Biso   1.000  Cu
  Cu7      1.0000 0.25604  0.46426  0.56204  Biso   1.000  Cu
  Cu8      1.0000 0.75604  0.96426  0.56204  Biso   1.000  Cu
  Cu9      1.0000 0.16118  0.73284  0.96113  Biso   1.000  Cu
  Cu10     1.0000 0.66118  0.23284  0.96113  Biso   1.000  Cu
  Cu11     1.0000 0.83882  0.73284  0.53887  Biso   1.000  Cu
  Cu12     1.0000 0.33882  0.23284  0.53887  Biso   1.000  Cu
  Cu13     1.0000 0.83882  0.26716  0.03887  Biso   1.000  Cu
  Cu14     1.0000 0.33882  0.76716  0.03887  Biso   1.000  Cu
  Cu15     1.0000 0.16118  0.26716  0.46113  Biso   1.000  Cu
  Cu16     1.0000 0.66118  0.76716  0.46113  Biso   1.000  Cu
  O1       1.0000 0.21381  0.64553  0.12651  Biso   1.000  O
  O2       1.0000 0.71381  0.14553  0.12651  Biso   1.000  O
  O3       1.0000 0.78619  0.64553  0.37349  Biso   1.000  O
  O4       1.0000 0.28619  0.14553  0.37349  Biso   1.000  O
  O5       1.0000 0.78619  0.35447  0.87349  Biso   1.000  O
  O6       1.0000 0.28619  0.85447  0.87349  Biso   1.000  O
  O7       1.0000 0.21381  0.35447  0.62651  Biso   1.000  O
  O8       1.0000 0.71381  0.85447  0.62651  Biso   1.000  O
  O9       1.0000 0.34466  0.67369  0.17552  Biso   1.000  O
  O10      1.0000 0.84466  0.17369  0.17552  Biso   1.000  O
  O11      1.0000 0.65534  0.67369  0.32448  Biso   1.000  O
  O12      1.0000 0.15534  0.17369  0.32448  Biso   1.000  O
  O13      1.0000 0.65534  0.32631  0.82448  Biso   1.000  O
  O14      1.0000 0.15534  0.82631  0.82448  Biso   1.000  O
  O15      1.0000 0.34466  0.32631  0.67552  Biso   1.000  O
  O16      1.0000 0.84466  0.82631  0.67552  Biso   1.000  O
  O17      1.0000 0.33645  0.45282  0.03359  Biso   1.000  O
  O18      1.0000 0.83645  0.95282  0.03359  Biso   1.000  O
  O19      1.0000 0.66355  0.45282  0.46641  Biso   1.000  O
  O20      1.0000 0.16355  0.95282  0.46641  Biso   1.000  O
  O21      1.0000 0.66355  0.54718  0.96641  Biso   1.000  O
  O22      1.0000 0.16355  0.04718  0.96641  Biso   1.000  O
  O23      1.0000 0.33645  0.54718  0.53359  Biso   1.000  O
  O24      1.0000 0.83645  0.04718  0.53359  Biso   1.000  O
  O25      1.0000 0.30797  0.50658  0.89616  Biso   1.000  O
  O26      1.0000 0.80797  0.00658  0.89616  Biso   1.000  O
  O27      1.0000 0.69203  0.50658  0.60384  Biso   1.000  O
  O28      1.0000 0.19203  0.00658  0.60384  Biso   1.000  O
  O29      1.0000 0.69203  0.49342  0.10384  Biso   1.000  O
  O30      1.0000 0.19203  0.99342  0.10384  Biso   1.000  O
  O31      1.0000 0.30797  0.49342  0.39616  Biso   1.000  O
  O32      1.0000 0.80797  0.99342  0.39616  Biso   1.000  O
  O33      1.0000 0.09539  0.62416  0.89069  Biso   1.000  O
  O34      1.0000 0.59539  0.12416  0.89069  Biso   1.000  O
  O35      1.0000 0.90461  0.62416  0.60931  Biso   1.000  O
  O36      1.0000 0.40461  0.12416  0.60931  Biso   1.000  O
  O37      1.0000 0.90461  0.37584  0.10931  Biso   1.000  O
  O38      1.0000 0.40461  0.87584  0.10931  Biso   1.000  O
  O39      1.0000 0.09539  0.37584  0.39069  Biso   1.000  O
  O40      1.0000 0.59539  0.87584  0.39069  Biso   1.000  O
  O41      1.0000 0.14330  0.47662  0.96683  Biso   1.000  O
  O42      1.0000 0.64330  0.97662  0.96683  Biso   1.000  O
  O43      1.0000 0.85670  0.47662  0.53317  Biso   1.000  O
  O44      1.0000 0.35670  0.97662  0.53317  Biso   1.000  O
  O45      1.0000 0.85670  0.52338  0.03317  Biso   1.000  O
  O46      1.0000 0.35670  0.02338  0.03317  Biso   1.000  O
  O47      1.0000 0.14330  0.52338  0.46683  Biso   1.000  O
  O48      1.0000 0.64330  0.02338  0.46683  Biso   1.000  O
  O49      1.0000 0.26141  0.65386  0.98326  Biso   1.000  O
  O50      1.0000 0.76141  0.15386  0.98326  Biso   1.000  O
  O51      1.0000 0.73859  0.65386  0.51674  Biso   1.000  O
  O52      1.0000 0.23859  0.15386  0.51674  Biso   1.000  O
  O53      1.0000 0.73859  0.34614  0.01674  Biso   1.000  O
  O54      1.0000 0.23859  0.84614  0.01674  Biso   1.000  O
  O55      1.0000 0.26141  0.34614  0.48326  Biso   1.000  O
  O56      1.0000 0.76141  0.84614  0.48326  Biso   1.000  O
  H1       1.0000 0.26400  0.62400  0.94800  Biso   1.000  H
  H2       1.0000 0.76400  0.12400  0.94800  Biso   1.000  H
  H3       1.0000 0.73600  0.62400  0.55200  Biso   1.000  H
  H4       1.0000 0.23600  0.12400  0.55200  Biso   1.000  H
  H5       1.0000 0.73600  0.37600  0.05200  Biso   1.000  H
  H6       1.0000 0.23600  0.87600  0.05200  Biso   1.000  H
  H7       1.0000 0.26400  0.37600  0.44800  Biso   1.000  H
  H8       1.0000 0.76400  0.87600  0.44800  Biso   1.000  H
  N1       1.0000 0.25139  0.92420  0.35471  Biso   1.000  N
  N2       1.0000 0.75139  0.42420  0.35471  Biso   1.000  N
  N3       1.0000 0.74861  0.92420  0.14529  Biso   1.000  N
  N4       1.0000 0.24861  0.42420  0.14529  Biso   1.000  N
  N5       1.0000 0.74861  0.07580  0.64529  Biso   1.000  N
  N6       1.0000 0.24861  0.57580  0.64529  Biso   1.000  N
  N7       1.0000 0.25139  0.07580  0.85471  Biso   1.000  N
  N8       1.0000 0.75139  0.57580  0.85471  Biso   1.000  N
  N9       1.0000 0.56330  0.30600  0.96259  Biso   1.000  N
  N10      1.0000 0.06330  0.80600  0.96259  Biso   1.000  N
  N11      1.0000 0.43670  0.30600  0.53741  Biso   1.000  N
  N12      1.0000 0.93670  0.80600  0.53741  Biso   1.000  N
  N13      1.0000 0.43670  0.69400  0.03741  Biso   1.000  N
  N14      1.0000 0.93670  0.19400  0.03741  Biso   1.000  N
  N15      1.0000 0.56330  0.69400  0.46259  Biso   1.000  N
  N16      1.0000 0.06330  0.19400  0.46259  Biso   1.000  N
  C1       1.0000 0.31560  0.92180  0.33190  Biso   1.000  C
  C2       1.0000 0.81560  0.42180  0.33190  Biso   1.000  C
  C3       1.0000 0.68440  0.92180  0.16810  Biso   1.000  C
  C4       1.0000 0.18440  0.42180  0.16810  Biso   1.000  C
  C5       1.0000 0.68440  0.07820  0.66810  Biso   1.000  C
  C6       1.0000 0.18440  0.57820  0.66810  Biso   1.000  C
  C7       1.0000 0.31560  0.07820  0.83190  Biso   1.000  C
  C8       1.0000 0.81560  0.57820  0.83190  Biso   1.000  C
  H9       1.0000 0.35520  0.97280  0.35480  Biso   1.000  H
  H10      1.0000 0.85520  0.47280  0.35480  Biso   1.000  H
  H11      1.0000 0.64480  0.97280  0.14520  Biso   1.000  H
  H12      1.0000 0.14480  0.47280  0.14520  Biso   1.000  H
  H13      1.0000 0.64480  0.02720  0.64520  Biso   1.000  H
  H14      1.0000 0.14480  0.52720  0.64520  Biso   1.000  H
  H15      1.0000 0.35520  0.02720  0.85480  Biso   1.000  H
  H16      1.0000 0.85520  0.52720  0.85480  Biso   1.000  H
  C9       1.0000 0.32590  0.84670  0.27580  Biso   1.000  C
  C10      1.0000 0.82590  0.34670  0.27580  Biso   1.000  C
  C11      1.0000 0.67410  0.84670  0.22420  Biso   1.000  C
  C12      1.0000 0.17410  0.34670  0.22420  Biso   1.000  C
  C13      1.0000 0.67410  0.15330  0.72420  Biso   1.000  C
  C14      1.0000 0.17410  0.65330  0.72420  Biso   1.000  C
  C15      1.0000 0.32590  0.15330  0.77580  Biso   1.000  C
  C16      1.0000 0.82590  0.65330  0.77580  Biso   1.000  C
  H17      1.0000 0.37190  0.84720  0.26190  Biso   1.000  H
  H18      1.0000 0.87190  0.34720  0.26190  Biso   1.000  H
  H19      1.0000 0.62810  0.84720  0.23810  Biso   1.000  H
  H20      1.0000 0.12810  0.34720  0.23810  Biso   1.000  H
  H21      1.0000 0.62810  0.15280  0.73810  Biso   1.000  H
  H22      1.0000 0.12810  0.65280  0.73810  Biso   1.000  H
  H23      1.0000 0.37190  0.15280  0.76190  Biso   1.000  H
  H24      1.0000 0.87190  0.65280  0.76190  Biso   1.000  H
  C17      1.0000 0.26744  0.77100  0.24056  Biso   1.000  C
  C18      1.0000 0.76744  0.27100  0.24056  Biso   1.000  C
  C19      1.0000 0.73256  0.77100  0.25944  Biso   1.000  C
  C20      1.0000 0.23256  0.27100  0.25944  Biso   1.000  C
  C21      1.0000 0.73256  0.22900  0.75944  Biso   1.000  C
  C22      1.0000 0.23256  0.72900  0.75944  Biso   1.000  C
  C23      1.0000 0.26744  0.22900  0.74056  Biso   1.000  C
  C24      1.0000 0.76744  0.72900  0.74056  Biso   1.000  C
  C25      1.0000 0.20150  0.77240  0.26470  Biso   1.000  C
  C26      1.0000 0.70150  0.27240  0.26470  Biso   1.000  C
  C27      1.0000 0.79850  0.77240  0.23530  Biso   1.000  C
  C28      1.0000 0.29850  0.27240  0.23530  Biso   1.000  C
  C29      1.0000 0.79850  0.22760  0.73530  Biso   1.000  C
  C30      1.0000 0.29850  0.72760  0.73530  Biso   1.000  C
  C31      1.0000 0.20150  0.22760  0.76470  Biso   1.000  C
  C32      1.0000 0.70150  0.72760  0.76470  Biso   1.000  C
  H25      1.0000 0.16120  0.72200  0.24290  Biso   1.000  H
  H26      1.0000 0.66120  0.22200  0.24290  Biso   1.000  H
  H27      1.0000 0.83880  0.72200  0.25710  Biso   1.000  H
  H28      1.0000 0.33880  0.22200  0.25710  Biso   1.000  H
  H29      1.0000 0.83880  0.27800  0.75710  Biso   1.000  H
  H30      1.0000 0.33880  0.77800  0.75710  Biso   1.000  H
  H31      1.0000 0.16120  0.27800  0.74290  Biso   1.000  H
  H32      1.0000 0.66120  0.77800  0.74290  Biso   1.000  H
  C33      1.0000 0.19580  0.84920  0.32160  Biso   1.000  C
  C34      1.0000 0.69580  0.34920  0.32160  Biso   1.000  C
  C35      1.0000 0.80420  0.84920  0.17840  Biso   1.000  C
  C36      1.0000 0.30420  0.34920  0.17840  Biso   1.000  C
  C37      1.0000 0.80420  0.15080  0.67840  Biso   1.000  C
  C38      1.0000 0.30420  0.65080  0.67840  Biso   1.000  C
  C39      1.0000 0.19580  0.15080  0.82160  Biso   1.000  C
  C40      1.0000 0.69580  0.65080  0.82160  Biso   1.000  C
  H33      1.0000 0.15110  0.84900  0.33770  Biso   1.000  H
  H34      1.0000 0.65110  0.34900  0.33770  Biso   1.000  H
  H35      1.0000 0.84890  0.84900  0.16230  Biso   1.000  H
  H36      1.0000 0.34890  0.34900  0.16230  Biso   1.000  H
  H37      1.0000 0.84890  0.15100  0.66230  Biso   1.000  H
  H38      1.0000 0.34890  0.65100  0.66230  Biso   1.000  H
  H39      1.0000 0.15110  0.15100  0.83770  Biso   1.000  H
  H40      1.0000 0.65110  0.65100  0.83770  Biso   1.000  H
  C41      1.0000 0.27696  0.69010  0.17704  Biso   1.000  C
  C42      1.0000 0.77696  0.19010  0.17704  Biso   1.000  C
  C43      1.0000 0.72304  0.69010  0.32296  Biso   1.000  C
  C44      1.0000 0.22304  0.19010  0.32296  Biso   1.000  C
  C45      1.0000 0.72304  0.30990  0.82296  Biso   1.000  C
  C46      1.0000 0.22304  0.80990  0.82296  Biso   1.000  C
  C47      1.0000 0.27696  0.30990  0.67704  Biso   1.000  C
  C48      1.0000 0.77696  0.80990  0.67704  Biso   1.000  C
  C49      1.0000 0.54690  0.31320  0.03540  Biso   1.000  C
  C50      1.0000 0.04690  0.81320  0.03540  Biso   1.000  C
  C51      1.0000 0.45310  0.31320  0.46460  Biso   1.000  C
  C52      1.0000 0.95310  0.81320  0.46460  Biso   1.000  C
  C53      1.0000 0.45310  0.68680  0.96460  Biso   1.000  C
  C54      1.0000 0.95310  0.18680  0.96460  Biso   1.000  C
  C55      1.0000 0.54690  0.68680  0.53540  Biso   1.000  C
  C56      1.0000 0.04690  0.18680  0.53540  Biso   1.000  C
  H41      1.0000 0.58370  0.28640  0.08680  Biso   1.000  H
  H42      1.0000 0.08370  0.78640  0.08680  Biso   1.000  H
  H43      1.0000 0.41630  0.28640  0.41320  Biso   1.000  H
  H44      1.0000 0.91630  0.78640  0.41320  Biso   1.000  H
  H45      1.0000 0.41630  0.71360  0.91320  Biso   1.000  H
  H46      1.0000 0.91630  0.21360  0.91320  Biso   1.000  H
  H47      1.0000 0.58370  0.71360  0.58680  Biso   1.000  H
  H48      1.0000 0.08370  0.21360  0.58680  Biso   1.000  H
  C57      1.0000 0.47770  0.35870  0.03730  Biso   1.000  C
  C58      1.0000 0.97770  0.85870  0.03730  Biso   1.000  C
  C59      1.0000 0.52230  0.35870  0.46270  Biso   1.000  C
  C60      1.0000 0.02230  0.85870  0.46270  Biso   1.000  C
  C61      1.0000 0.52230  0.64130  0.96270  Biso   1.000  C
  C62      1.0000 0.02230  0.14130  0.96270  Biso   1.000  C
  C63      1.0000 0.47770  0.64130  0.53730  Biso   1.000  C
  C64      1.0000 0.97770  0.14130  0.53730  Biso   1.000  C
  H49      1.0000 0.46840  0.36200  0.08920  Biso   1.000  H
  H50      1.0000 0.96840  0.86200  0.08920  Biso   1.000  H
  H51      1.0000 0.53160  0.36200  0.41080  Biso   1.000  H
  H52      1.0000 0.03160  0.86200  0.41080  Biso   1.000  H
  H53      1.0000 0.53160  0.63800  0.91080  Biso   1.000  H
  H54      1.0000 0.03160  0.13800  0.91080  Biso   1.000  H
  H55      1.0000 0.46840  0.63800  0.58920  Biso   1.000  H
  H56      1.0000 0.96840  0.13800  0.58920  Biso   1.000  H
  C65      1.0000 0.42219  0.39930  0.96173  Biso   1.000  C
  C66      1.0000 0.92219  0.89930  0.96173  Biso   1.000  C
  C67      1.0000 0.57781  0.39930  0.53827  Biso   1.000  C
  C68      1.0000 0.07781  0.89930  0.53827  Biso   1.000  C
  C69      1.0000 0.57781  0.60070  0.03827  Biso   1.000  C
  C70      1.0000 0.07781  0.10070  0.03827  Biso   1.000  C
  C71      1.0000 0.42219  0.60070  0.46173  Biso   1.000  C
  C72      1.0000 0.92219  0.10070  0.46173  Biso   1.000  C
  C73      1.0000 0.43875  0.39030  0.88650  Biso   1.000  C
  C74      1.0000 0.93875  0.89030  0.88650  Biso   1.000  C
  C75      1.0000 0.56125  0.39030  0.61350  Biso   1.000  C
  C76      1.0000 0.06125  0.89030  0.61350  Biso   1.000  C
  C77      1.0000 0.56125  0.60970  0.11350  Biso   1.000  C
  C78      1.0000 0.06125  0.10970  0.11350  Biso   1.000  C
  C79      1.0000 0.43875  0.60970  0.38650  Biso   1.000  C
  C80      1.0000 0.93875  0.10970  0.38650  Biso   1.000  C
  H57      1.0000 0.40260  0.41580  0.83410  Biso   1.000  H
  H58      1.0000 0.90260  0.91580  0.83410  Biso   1.000  H
  H59      1.0000 0.59740  0.41580  0.66590  Biso   1.000  H
  H60      1.0000 0.09740  0.91580  0.66590  Biso   1.000  H
  H61      1.0000 0.59740  0.58420  0.16590  Biso   1.000  H
  H62      1.0000 0.09740  0.08420  0.16590  Biso   1.000  H
  H63      1.0000 0.40260  0.58420  0.33410  Biso   1.000  H
  H64      1.0000 0.90260  0.08420  0.33410  Biso   1.000  H
  C81      1.0000 0.50892  0.34360  0.88930  Biso   1.000  C
  C82      1.0000 0.00892  0.84360  0.88930  Biso   1.000  C
  C83      1.0000 0.49108  0.34360  0.61070  Biso   1.000  C
  C84      1.0000 0.99108  0.84360  0.61070  Biso   1.000  C
  C85      1.0000 0.49108  0.65640  0.11070  Biso   1.000  C
  C86      1.0000 0.99108  0.15640  0.11070  Biso   1.000  C
  C87      1.0000 0.50892  0.65640  0.38930  Biso   1.000  C
  C88      1.0000 0.00892  0.15640  0.38930  Biso   1.000  C
  H65      1.0000 0.51900  0.33780  0.83790  Biso   1.000  H
  H66      1.0000 0.01900  0.83780  0.83790  Biso   1.000  H
  H67      1.0000 0.48100  0.33780  0.66210  Biso   1.000  H
  H68      1.0000 0.98100  0.83780  0.66210  Biso   1.000  H
  H69      1.0000 0.48100  0.66220  0.16210  Biso   1.000  H
  H70      1.0000 0.98100  0.16220  0.16210  Biso   1.000  H
  H71      1.0000 0.51900  0.66220  0.33790  Biso   1.000  H
  H72      1.0000 0.01900  0.16220  0.33790  Biso   1.000  H
  C89      1.0000 0.34870  0.45700  0.96241  Biso   1.000  C
  C90      1.0000 0.84870  0.95700  0.96241  Biso   1.000  C
  C91      1.0000 0.65130  0.45700  0.53759  Biso   1.000  C
  C92      1.0000 0.15130  0.95700  0.53759  Biso   1.000  C
  C93      1.0000 0.65130  0.54300  0.03759  Biso   1.000  C
  C94      1.0000 0.15130  0.04300  0.03759  Biso   1.000  C
  C95      1.0000 0.34870  0.54300  0.46241  Biso   1.000  C
  C96      1.0000 0.84870  0.04300  0.46241  Biso   1.000  C
  C97      1.0000 0.04763  0.46220  0.82390  Biso   1.000  C
  C98      1.0000 0.54763  0.96220  0.82390  Biso   1.000  C
  C99      1.0000 0.95237  0.46220  0.67610  Biso   1.000  C
  C100     1.0000 0.45237  0.96220  0.67610  Biso   1.000  C
  C101     1.0000 0.95237  0.53780  0.17610  Biso   1.000  C
  C102     1.0000 0.45237  0.03780  0.17610  Biso   1.000  C
  C103     1.0000 0.04763  0.53780  0.32390  Biso   1.000  C
  C104     1.0000 0.54763  0.03780  0.32390  Biso   1.000  C
  C105     1.0000 0.04756  0.35150  0.82380  Biso   1.000  C
  C106     1.0000 0.54756  0.85150  0.82380  Biso   1.000  C
  C107     1.0000 0.95244  0.35150  0.67620  Biso   1.000  C
  C108     1.0000 0.45244  0.85150  0.67620  Biso   1.000  C
  C109     1.0000 0.95244  0.64850  0.17620  Biso   1.000  C
  C110     1.0000 0.45244  0.14850  0.17620  Biso   1.000  C
  C111     1.0000 0.04756  0.64850  0.32380  Biso   1.000  C
  C112     1.0000 0.54756  0.14850  0.32380  Biso   1.000  C
  H73      1.0000 0.07920  0.31410  0.87280  Biso   1.000  H
  H74      1.0000 0.57920  0.81410  0.87280  Biso   1.000  H
  H75      1.0000 0.92080  0.31410  0.62720  Biso   1.000  H
  H76      1.0000 0.42080  0.81410  0.62720  Biso   1.000  H
  H77      1.0000 0.92080  0.68590  0.12720  Biso   1.000  H
  H78      1.0000 0.42080  0.18590  0.12720  Biso   1.000  H
  H79      1.0000 0.07920  0.68590  0.37280  Biso   1.000  H
  H80      1.0000 0.57920  0.18590  0.37280  Biso   1.000  H
  C113     1.0000 0.00000  0.29750  0.75000  Biso   1.000  C
  C114     1.0000 0.50000  0.79750  0.75000  Biso   1.000  C
  C115     1.0000 0.00000  0.70250  0.25000  Biso   1.000  C
  C116     1.0000 0.50000  0.20250  0.25000  Biso   1.000  C
  H81      1.0000 0.00000  0.22360  0.75000  Biso   1.000  H
  H82      1.0000 0.50000  0.72360  0.75000  Biso   1.000  H
  H83      1.0000 0.00000  0.77640  0.25000  Biso   1.000  H
  H84      1.0000 0.50000  0.27640  0.25000  Biso   1.000  H
  C117     1.0000 0.00000  0.51610  0.75000  Biso   1.000  C
  C118     1.0000 0.50000  0.01610  0.75000  Biso   1.000  C
  C119     1.0000 0.00000  0.48390  0.25000  Biso   1.000  C
  C120     1.0000 0.50000  0.98390  0.25000  Biso   1.000  C
  H85      1.0000 0.00000  0.59000  0.75000  Biso   1.000  H
  H86      1.0000 0.50000  0.09000  0.75000  Biso   1.000  H
  H87      1.0000 0.00000  0.41000  0.25000  Biso   1.000  H
  H88      1.0000 0.50000  0.91000  0.25000  Biso   1.000  H
  C121     1.0000 0.10024  0.52340  0.90107  Biso   1.000  C
  C122     1.0000 0.60024  0.02340  0.90107  Biso   1.000  C
  C123     1.0000 0.89976  0.52340  0.59893  Biso   1.000  C
  C124     1.0000 0.39976  0.02340  0.59893  Biso   1.000  C
  C125     1.0000 0.89976  0.47660  0.09893  Biso   1.000  C
  C126     1.0000 0.39976  0.97660  0.09893  Biso   1.000  C
  C127     1.0000 0.10024  0.47660  0.40107  Biso   1.000  C
  C128     1.0000 0.60024  0.97660  0.40107  Biso   1.000  C
