data_image0
_cell_length_a       9.5505
_cell_length_b       11.6346
_cell_length_c       11.9841
_cell_angle_alpha    90
_cell_angle_beta     113.083
_cell_angle_gamma    90

_symmetry_space_group_name_H-M    "P 1"
_symmetry_int_tables_number       1

loop_
  _symmetry_equiv_pos_as_xyz
  'x, y, z'

loop_
  _atom_site_label
  _atom_site_occupancy
  _atom_site_fract_x
  _atom_site_fract_y
  _atom_site_fract_z
  _atom_site_thermal_displace_type
  _atom_site_B_iso_or_equiv
  _atom_site_type_symbol
  Cu1      1.0000 0.65729  0.35997  0.01978  Biso   1.000  Cu
  Cu2      1.0000 0.34271  0.85997  0.48022  Biso   1.000  Cu
  Cu3      1.0000 0.34271  0.64003  0.98022  Biso   1.000  Cu
  Cu4      1.0000 0.65729  0.14003  0.51978  Biso   1.000  Cu
  N1       1.0000 0.80090  0.48330  0.12360  Biso   1.000  N
  N2       1.0000 0.19910  0.98330  0.37640  Biso   1.000  N
  N3       1.0000 0.19910  0.51670  0.87640  Biso   1.000  N
  N4       1.0000 0.80090  0.01670  0.62360  Biso   1.000  N
  N5       1.0000 0.51300  0.23090  0.93200  Biso   1.000  N
  N6       1.0000 0.48700  0.73090  0.56800  Biso   1.000  N
  N7       1.0000 0.48700  0.76910  0.06800  Biso   1.000  N
  N8       1.0000 0.51300  0.26910  0.43200  Biso   1.000  N
  C1       1.0000 0.51300  0.18380  0.82940  Biso   1.000  C
  C2       1.0000 0.48700  0.68380  0.67060  Biso   1.000  C
  C3       1.0000 0.48700  0.81620  0.17060  Biso   1.000  C
  C4       1.0000 0.51300  0.31620  0.32940  Biso   1.000  C
  H1       1.0000 0.57230  0.21760  0.79270  Biso   1.000  H
  H2       1.0000 0.42770  0.71760  0.70730  Biso   1.000  H
  H3       1.0000 0.42770  0.78240  0.20730  Biso   1.000  H
  H4       1.0000 0.57230  0.28240  0.29270  Biso   1.000  H
  C5       1.0000 0.88370  0.55450  0.08680  Biso   1.000  C
  C6       1.0000 0.11630  0.05450  0.41320  Biso   1.000  C
  C7       1.0000 0.11630  0.44550  0.91320  Biso   1.000  C
  C8       1.0000 0.88370  0.94550  0.58680  Biso   1.000  C
  H5       1.0000 0.86980  0.55310  0.00550  Biso   1.000  H
  H6       1.0000 0.13020  0.05310  0.49450  Biso   1.000  H
  H7       1.0000 0.13020  0.44690  0.99450  Biso   1.000  H
  H8       1.0000 0.86980  0.94690  0.50550  Biso   1.000  H
  C9       1.0000 0.98930  0.63030  0.16380  Biso   1.000  C
  C10      1.0000 0.01070  0.13030  0.33620  Biso   1.000  C
  C11      1.0000 0.01070  0.36970  0.83620  Biso   1.000  C
  C12      1.0000 0.98930  0.86970  0.66380  Biso   1.000  C
  H9       1.0000 0.04750  0.67680  0.13550  Biso   1.000  H
  H10      1.0000 0.95250  0.17680  0.36450  Biso   1.000  H
  H11      1.0000 0.95250  0.32320  0.86450  Biso   1.000  H
  H12      1.0000 0.04750  0.82320  0.63550  Biso   1.000  H
  C13      1.0000 0.42910  0.08760  0.77630  Biso   1.000  C
  C14      1.0000 0.57090  0.58760  0.72370  Biso   1.000  C
  C15      1.0000 0.57090  0.91240  0.22370  Biso   1.000  C
  C16      1.0000 0.42910  0.41240  0.27630  Biso   1.000  C
  C17      1.0000 0.91900  0.56410  0.32140  Biso   1.000  C
  C18      1.0000 0.08100  0.06410  0.17860  Biso   1.000  C
  C19      1.0000 0.08100  0.43590  0.67860  Biso   1.000  C
  C20      1.0000 0.91900  0.93590  0.82140  Biso   1.000  C
  H13      1.0000 0.92610  0.56700  0.40100  Biso   1.000  H
  H14      1.0000 0.07390  0.06700  0.09900  Biso   1.000  H
  H15      1.0000 0.07390  0.43300  0.59900  Biso   1.000  H
  H16      1.0000 0.92610  0.93300  0.90100  Biso   1.000  H
  C21      1.0000 0.82080  0.48810  0.24000  Biso   1.000  C
  C22      1.0000 0.17920  0.98810  0.26000  Biso   1.000  C
  C23      1.0000 0.17920  0.51190  0.76000  Biso   1.000  C
  C24      1.0000 0.82080  0.01190  0.74000  Biso   1.000  C
  H17      1.0000 0.76580  0.43770  0.26760  Biso   1.000  H
  H18      1.0000 0.23420  0.93770  0.23240  Biso   1.000  H
  H19      1.0000 0.23420  0.56230  0.73240  Biso   1.000  H
  H20      1.0000 0.76580  0.06230  0.76760  Biso   1.000  H
  C25      1.0000 0.42260  0.18200  0.98110  Biso   1.000  C
  C26      1.0000 0.57740  0.68200  0.51890  Biso   1.000  C
  C27      1.0000 0.57740  0.81800  0.01890  Biso   1.000  C
  C28      1.0000 0.42260  0.31800  0.48110  Biso   1.000  C
  H21      1.0000 0.41830  0.21510  0.05040  Biso   1.000  H
  H22      1.0000 0.58170  0.71510  0.44960  Biso   1.000  H
  H23      1.0000 0.58170  0.78490  0.94960  Biso   1.000  H
  H24      1.0000 0.41830  0.28490  0.55040  Biso   1.000  H
  C29      1.0000 0.34260  0.03760  0.83110  Biso   1.000  C
  C30      1.0000 0.65740  0.53760  0.66890  Biso   1.000  C
  C31      1.0000 0.65740  0.96240  0.16890  Biso   1.000  C
  C32      1.0000 0.34260  0.46240  0.33110  Biso   1.000  C
  H25      1.0000 0.28780  0.97110  0.79860  Biso   1.000  H
  H26      1.0000 0.71220  0.47110  0.70140  Biso   1.000  H
  H27      1.0000 0.71220  0.02890  0.20140  Biso   1.000  H
  H28      1.0000 0.28780  0.52890  0.29860  Biso   1.000  H
  C33      1.0000 0.33660  0.08590  0.93410  Biso   1.000  C
  C34      1.0000 0.66340  0.58590  0.56590  Biso   1.000  C
  C35      1.0000 0.66340  0.91410  0.06590  Biso   1.000  C
  C36      1.0000 0.33660  0.41410  0.43410  Biso   1.000  C
  H29      1.0000 0.27590  0.05410  0.97070  Biso   1.000  H
  H30      1.0000 0.72410  0.55410  0.52930  Biso   1.000  H
  H31      1.0000 0.72410  0.94590  0.02930  Biso   1.000  H
  H32      1.0000 0.27590  0.44590  0.47070  Biso   1.000  H
  C37      1.0000 0.00650  0.63550  0.28360  Biso   1.000  C
  C38      1.0000 0.99350  0.13550  0.21640  Biso   1.000  C
  C39      1.0000 0.99350  0.36450  0.71640  Biso   1.000  C
  C40      1.0000 0.00650  0.86450  0.78360  Biso   1.000  C
  O1       1.0000 0.37900  0.93740  0.63380  Biso   1.000  O
  O2       1.0000 0.62100  0.43740  0.86620  Biso   1.000  O
  O3       1.0000 0.62100  0.06260  0.36620  Biso   1.000  O
  O4       1.0000 0.37900  0.56260  0.13380  Biso   1.000  O
  O5       1.0000 0.49170  0.09660  0.60470  Biso   1.000  O
  O6       1.0000 0.50830  0.59660  0.89530  Biso   1.000  O
  O7       1.0000 0.50830  0.90340  0.39530  Biso   1.000  O
  O8       1.0000 0.49170  0.40340  0.10470  Biso   1.000  O
  O9       1.0000 0.22890  0.75030  0.34710  Biso   1.000  O
  O10      1.0000 0.77110  0.25030  0.15290  Biso   1.000  O
  O11      1.0000 0.77110  0.24970  0.65290  Biso   1.000  O
  O12      1.0000 0.22890  0.74970  0.84710  Biso   1.000  O
  C41      1.0000 0.12210  0.71290  0.37490  Biso   1.000  C
  C42      1.0000 0.87790  0.21290  0.12510  Biso   1.000  C
  C43      1.0000 0.87790  0.28710  0.62510  Biso   1.000  C
  C44      1.0000 0.12210  0.78710  0.87490  Biso   1.000  C
  O13      1.0000 0.10880  0.73600  0.46980  Biso   1.000  O
  O14      1.0000 0.89120  0.23600  0.03020  Biso   1.000  O
  O15      1.0000 0.89120  0.26400  0.53020  Biso   1.000  O
  O16      1.0000 0.10880  0.76400  0.96980  Biso   1.000  O
  C45      1.0000 0.43580  0.03720  0.66230  Biso   1.000  C
  C46      1.0000 0.56420  0.53720  0.83770  Biso   1.000  C
  C47      1.0000 0.56420  0.96280  0.33770  Biso   1.000  C
  C48      1.0000 0.43580  0.46280  0.16230  Biso   1.000  C
