data_image0
_cell_length_a       17.922
_cell_length_b       12.55
_cell_length_c       16.492
_cell_angle_alpha    90
_cell_angle_beta     111.309
_cell_angle_gamma    90

_symmetry_space_group_name_H-M    "P 1"
_symmetry_int_tables_number       1

loop_
  _symmetry_equiv_pos_as_xyz
  'x, y, z'

loop_
  _atom_site_label
  _atom_site_occupancy
  _atom_site_fract_x
  _atom_site_fract_y
  _atom_site_fract_z
  _atom_site_thermal_displace_type
  _atom_site_B_iso_or_equiv
  _atom_site_type_symbol
  Cu1      1.0000 0.25618  0.46398  0.06169  Biso   1.000  Cu
  Cu2      1.0000 0.75618  0.96399  0.06169  Biso   1.000  Cu
  Cu3      1.0000 0.74382  0.46398  0.43831  Biso   1.000  Cu
  Cu4      1.0000 0.24382  0.96399  0.43831  Biso   1.000  Cu
  Cu5      1.0000 0.74382  0.53602  0.93831  Biso   1.000  Cu
  Cu6      1.0000 0.24382  0.03602  0.93831  Biso   1.000  Cu
  Cu7      1.0000 0.25618  0.53602  0.56169  Biso   1.000  Cu
  Cu8      1.0000 0.75618  0.03602  0.56169  Biso   1.000  Cu
  Cu9      1.0000 0.16102  0.26729  0.96088  Biso   1.000  Cu
  Cu10     1.0000 0.66102  0.76729  0.96088  Biso   1.000  Cu
  Cu11     1.0000 0.83898  0.26729  0.53912  Biso   1.000  Cu
  Cu12     1.0000 0.33898  0.76729  0.53912  Biso   1.000  Cu
  Cu13     1.0000 0.83898  0.73271  0.03912  Biso   1.000  Cu
  Cu14     1.0000 0.33898  0.23271  0.03912  Biso   1.000  Cu
  Cu15     1.0000 0.16102  0.73271  0.46088  Biso   1.000  Cu
  Cu16     1.0000 0.66102  0.23271  0.46088  Biso   1.000  Cu
  O1       1.0000 0.21336  0.35420  0.12532  Biso   1.000  O
  O2       1.0000 0.71336  0.85420  0.12532  Biso   1.000  O
  O3       1.0000 0.78664  0.35420  0.37468  Biso   1.000  O
  O4       1.0000 0.28664  0.85420  0.37468  Biso   1.000  O
  O5       1.0000 0.78664  0.64580  0.87468  Biso   1.000  O
  O6       1.0000 0.28664  0.14580  0.87468  Biso   1.000  O
  O7       1.0000 0.21336  0.64580  0.62532  Biso   1.000  O
  O8       1.0000 0.71336  0.14580  0.62532  Biso   1.000  O
  O9       1.0000 0.34491  0.32472  0.17455  Biso   1.000  O
  O10      1.0000 0.84491  0.82472  0.17455  Biso   1.000  O
  O11      1.0000 0.65509  0.32472  0.32545  Biso   1.000  O
  O12      1.0000 0.15509  0.82472  0.32545  Biso   1.000  O
  O13      1.0000 0.65509  0.67528  0.82545  Biso   1.000  O
  O14      1.0000 0.15509  0.17528  0.82545  Biso   1.000  O
  O15      1.0000 0.34491  0.67528  0.67455  Biso   1.000  O
  O16      1.0000 0.84491  0.17528  0.67455  Biso   1.000  O
  O17      1.0000 0.33686  0.54749  0.03405  Biso   1.000  O
  O18      1.0000 0.83686  0.04749  0.03405  Biso   1.000  O
  O19      1.0000 0.66314  0.54749  0.46595  Biso   1.000  O
  O20      1.0000 0.16314  0.04749  0.46595  Biso   1.000  O
  O21      1.0000 0.66314  0.45251  0.96595  Biso   1.000  O
  O22      1.0000 0.16314  0.95251  0.96595  Biso   1.000  O
  O23      1.0000 0.33686  0.45251  0.53405  Biso   1.000  O
  O24      1.0000 0.83686  0.95251  0.53405  Biso   1.000  O
  O25      1.0000 0.30783  0.49347  0.89571  Biso   1.000  O
  O26      1.0000 0.80783  0.99347  0.89571  Biso   1.000  O
  O27      1.0000 0.69217  0.49347  0.60429  Biso   1.000  O
  O28      1.0000 0.19217  0.99347  0.60429  Biso   1.000  O
  O29      1.0000 0.69217  0.50653  0.10429  Biso   1.000  O
  O30      1.0000 0.19217  0.00653  0.10429  Biso   1.000  O
  O31      1.0000 0.30783  0.50653  0.39571  Biso   1.000  O
  O32      1.0000 0.80783  0.00653  0.39571  Biso   1.000  O
  O33      1.0000 0.14422  0.52509  0.96717  Biso   1.000  O
  O34      1.0000 0.64422  0.02509  0.96717  Biso   1.000  O
  O35      1.0000 0.85578  0.52509  0.53283  Biso   1.000  O
  O36      1.0000 0.35578  0.02509  0.53283  Biso   1.000  O
  O37      1.0000 0.85578  0.47491  0.03283  Biso   1.000  O
  O38      1.0000 0.35578  0.97491  0.03283  Biso   1.000  O
  O39      1.0000 0.14422  0.47491  0.46717  Biso   1.000  O
  O40      1.0000 0.64422  0.97491  0.46717  Biso   1.000  O
  O41      1.0000 0.09514  0.37660  0.89024  Biso   1.000  O
  O42      1.0000 0.59514  0.87660  0.89024  Biso   1.000  O
  O43      1.0000 0.90486  0.37660  0.60976  Biso   1.000  O
  O44      1.0000 0.40486  0.87660  0.60976  Biso   1.000  O
  O45      1.0000 0.90486  0.62340  0.10976  Biso   1.000  O
  O46      1.0000 0.40486  0.12340  0.10976  Biso   1.000  O
  O47      1.0000 0.09514  0.62340  0.39024  Biso   1.000  O
  O48      1.0000 0.59514  0.12340  0.39024  Biso   1.000  O
  O49      1.0000 0.26131  0.34582  0.98237  Biso   1.000  O
  O50      1.0000 0.76131  0.84582  0.98237  Biso   1.000  O
  O51      1.0000 0.73869  0.34582  0.51763  Biso   1.000  O
  O52      1.0000 0.23869  0.84582  0.51763  Biso   1.000  O
  O53      1.0000 0.73869  0.65418  0.01763  Biso   1.000  O
  O54      1.0000 0.23869  0.15418  0.01763  Biso   1.000  O
  O55      1.0000 0.26131  0.65418  0.48237  Biso   1.000  O
  O56      1.0000 0.76131  0.15418  0.48237  Biso   1.000  O
  N1       1.0000 0.56371  0.69379  0.96270  Biso   1.000  N
  N2       1.0000 0.06371  0.19379  0.96270  Biso   1.000  N
  N3       1.0000 0.43629  0.69379  0.53730  Biso   1.000  N
  N4       1.0000 0.93629  0.19379  0.53730  Biso   1.000  N
  N5       1.0000 0.43629  0.30621  0.03730  Biso   1.000  N
  N6       1.0000 0.93629  0.80621  0.03730  Biso   1.000  N
  N7       1.0000 0.56371  0.30621  0.46270  Biso   1.000  N
  N8       1.0000 0.06371  0.80621  0.46270  Biso   1.000  N
  N9       1.0000 0.25057  0.07527  0.35406  Biso   1.000  N
  N10      1.0000 0.75057  0.57527  0.35406  Biso   1.000  N
  N11      1.0000 0.74943  0.07527  0.14594  Biso   1.000  N
  N12      1.0000 0.24943  0.57527  0.14594  Biso   1.000  N
  N13      1.0000 0.74943  0.92473  0.64594  Biso   1.000  N
  N14      1.0000 0.24943  0.42473  0.64594  Biso   1.000  N
  N15      1.0000 0.25057  0.92473  0.85406  Biso   1.000  N
  N16      1.0000 0.75057  0.42473  0.85406  Biso   1.000  N
  C1       1.0000 0.31539  0.07652  0.33116  Biso   1.000  C
  C2       1.0000 0.81539  0.57652  0.33116  Biso   1.000  C
  C3       1.0000 0.68461  0.07652  0.16884  Biso   1.000  C
  C4       1.0000 0.18461  0.57652  0.16884  Biso   1.000  C
  C5       1.0000 0.68461  0.92348  0.66884  Biso   1.000  C
  C6       1.0000 0.18461  0.42348  0.66884  Biso   1.000  C
  C7       1.0000 0.31539  0.92348  0.83116  Biso   1.000  C
  C8       1.0000 0.81539  0.42348  0.83116  Biso   1.000  C
  H1       1.0000 0.35460  0.02480  0.35390  Biso   1.000  H
  H2       1.0000 0.85460  0.52480  0.35390  Biso   1.000  H
  H3       1.0000 0.64540  0.02480  0.14610  Biso   1.000  H
  H4       1.0000 0.14540  0.52480  0.14610  Biso   1.000  H
  H5       1.0000 0.64540  0.97520  0.64610  Biso   1.000  H
  H6       1.0000 0.14540  0.47520  0.64610  Biso   1.000  H
  H7       1.0000 0.35460  0.97520  0.85390  Biso   1.000  H
  H8       1.0000 0.85460  0.47520  0.85390  Biso   1.000  H
  C9       1.0000 0.32574  0.15185  0.27510  Biso   1.000  C
  C10      1.0000 0.82574  0.65185  0.27510  Biso   1.000  C
  C11      1.0000 0.67426  0.15185  0.22490  Biso   1.000  C
  C12      1.0000 0.17426  0.65185  0.22490  Biso   1.000  C
  C13      1.0000 0.67426  0.84815  0.72490  Biso   1.000  C
  C14      1.0000 0.17426  0.34815  0.72490  Biso   1.000  C
  C15      1.0000 0.32574  0.84815  0.77510  Biso   1.000  C
  C16      1.0000 0.82574  0.34815  0.77510  Biso   1.000  C
  H9       1.0000 0.37160  0.15110  0.26120  Biso   1.000  H
  H10      1.0000 0.87160  0.65110  0.26120  Biso   1.000  H
  H11      1.0000 0.62840  0.15110  0.23880  Biso   1.000  H
  H12      1.0000 0.12840  0.65110  0.23880  Biso   1.000  H
  H13      1.0000 0.62840  0.84890  0.73880  Biso   1.000  H
  H14      1.0000 0.12840  0.34890  0.73880  Biso   1.000  H
  H15      1.0000 0.37160  0.84890  0.76120  Biso   1.000  H
  H16      1.0000 0.87160  0.34890  0.76120  Biso   1.000  H
  C17      1.0000 0.26738  0.22834  0.23981  Biso   1.000  C
  C18      1.0000 0.76738  0.72834  0.23981  Biso   1.000  C
  C19      1.0000 0.73262  0.22834  0.26019  Biso   1.000  C
  C20      1.0000 0.23262  0.72834  0.26019  Biso   1.000  C
  C21      1.0000 0.73262  0.77166  0.76019  Biso   1.000  C
  C22      1.0000 0.23262  0.27166  0.76019  Biso   1.000  C
  C23      1.0000 0.26738  0.77166  0.73981  Biso   1.000  C
  C24      1.0000 0.76738  0.27166  0.73981  Biso   1.000  C
  C25      1.0000 0.20076  0.22782  0.26380  Biso   1.000  C
  C26      1.0000 0.70076  0.72782  0.26380  Biso   1.000  C
  C27      1.0000 0.79924  0.22782  0.23620  Biso   1.000  C
  C28      1.0000 0.29924  0.72782  0.23620  Biso   1.000  C
  C29      1.0000 0.79924  0.77218  0.73620  Biso   1.000  C
  C30      1.0000 0.29924  0.27218  0.73620  Biso   1.000  C
  C31      1.0000 0.20076  0.77218  0.76380  Biso   1.000  C
  C32      1.0000 0.70076  0.27218  0.76380  Biso   1.000  C
  H17      1.0000 0.16070  0.27860  0.24170  Biso   1.000  H
  H18      1.0000 0.66070  0.77860  0.24170  Biso   1.000  H
  H19      1.0000 0.83930  0.27860  0.25830  Biso   1.000  H
  H20      1.0000 0.33930  0.77860  0.25830  Biso   1.000  H
  H21      1.0000 0.83930  0.72140  0.75830  Biso   1.000  H
  H22      1.0000 0.33930  0.22140  0.75830  Biso   1.000  H
  H23      1.0000 0.16070  0.72140  0.74170  Biso   1.000  H
  H24      1.0000 0.66070  0.22140  0.74170  Biso   1.000  H
  C33      1.0000 0.19483  0.15060  0.32115  Biso   1.000  C
  C34      1.0000 0.69483  0.65060  0.32115  Biso   1.000  C
  C35      1.0000 0.80517  0.15060  0.17885  Biso   1.000  C
  C36      1.0000 0.30517  0.65060  0.17885  Biso   1.000  C
  C37      1.0000 0.80517  0.84940  0.67885  Biso   1.000  C
  C38      1.0000 0.30517  0.34940  0.67885  Biso   1.000  C
  C39      1.0000 0.19483  0.84940  0.82115  Biso   1.000  C
  C40      1.0000 0.69483  0.34940  0.82115  Biso   1.000  C
  H25      1.0000 0.15030  0.15110  0.33750  Biso   1.000  H
  H26      1.0000 0.65030  0.65110  0.33750  Biso   1.000  H
  H27      1.0000 0.84970  0.15110  0.16250  Biso   1.000  H
  H28      1.0000 0.34970  0.65110  0.16250  Biso   1.000  H
  H29      1.0000 0.84970  0.84890  0.66250  Biso   1.000  H
  H30      1.0000 0.34970  0.34890  0.66250  Biso   1.000  H
  H31      1.0000 0.15030  0.84890  0.83750  Biso   1.000  H
  H32      1.0000 0.65030  0.34890  0.83750  Biso   1.000  H
  C41      1.0000 0.27684  0.30849  0.17614  Biso   1.000  C
  C42      1.0000 0.77684  0.80849  0.17614  Biso   1.000  C
  C43      1.0000 0.72316  0.30849  0.32386  Biso   1.000  C
  C44      1.0000 0.22316  0.80849  0.32386  Biso   1.000  C
  C45      1.0000 0.72316  0.69151  0.82386  Biso   1.000  C
  C46      1.0000 0.22316  0.19151  0.82386  Biso   1.000  C
  C47      1.0000 0.27684  0.69151  0.67614  Biso   1.000  C
  C48      1.0000 0.77684  0.19151  0.67614  Biso   1.000  C
  C49      1.0000 0.50828  0.65912  0.88838  Biso   1.000  C
  C50      1.0000 0.00828  0.15912  0.88838  Biso   1.000  C
  C51      1.0000 0.49172  0.65912  0.61162  Biso   1.000  C
  C52      1.0000 0.99172  0.15912  0.61162  Biso   1.000  C
  C53      1.0000 0.49172  0.34088  0.11162  Biso   1.000  C
  C54      1.0000 0.99172  0.84088  0.11162  Biso   1.000  C
  C55      1.0000 0.50828  0.34088  0.38838  Biso   1.000  C
  C56      1.0000 0.00828  0.84088  0.38838  Biso   1.000  C
  H33      1.0000 0.51770  0.66700  0.83680  Biso   1.000  H
  H34      1.0000 0.01770  0.16700  0.83680  Biso   1.000  H
  H35      1.0000 0.48230  0.66700  0.66320  Biso   1.000  H
  H36      1.0000 0.98230  0.16700  0.66320  Biso   1.000  H
  H37      1.0000 0.48230  0.33300  0.16320  Biso   1.000  H
  H38      1.0000 0.98230  0.83300  0.16320  Biso   1.000  H
  H39      1.0000 0.51770  0.33300  0.33680  Biso   1.000  H
  H40      1.0000 0.01770  0.83300  0.33680  Biso   1.000  H
  C57      1.0000 0.43755  0.61198  0.88538  Biso   1.000  C
  C58      1.0000 0.93755  0.11198  0.88538  Biso   1.000  C
  C59      1.0000 0.56245  0.61198  0.61462  Biso   1.000  C
  C60      1.0000 0.06245  0.11198  0.61462  Biso   1.000  C
  C61      1.0000 0.56245  0.38802  0.11462  Biso   1.000  C
  C62      1.0000 0.06245  0.88802  0.11462  Biso   1.000  C
  C63      1.0000 0.43755  0.38802  0.38538  Biso   1.000  C
  C64      1.0000 0.93755  0.88802  0.38538  Biso   1.000  C
  H41      1.0000 0.40040  0.58830  0.83280  Biso   1.000  H
  H42      1.0000 0.90040  0.08830  0.83280  Biso   1.000  H
  H43      1.0000 0.59960  0.58830  0.66720  Biso   1.000  H
  H44      1.0000 0.09960  0.08830  0.66720  Biso   1.000  H
  H45      1.0000 0.59960  0.41170  0.16720  Biso   1.000  H
  H46      1.0000 0.09960  0.91170  0.16720  Biso   1.000  H
  H47      1.0000 0.40040  0.41170  0.33280  Biso   1.000  H
  H48      1.0000 0.90040  0.91170  0.33280  Biso   1.000  H
  C65      1.0000 0.42273  0.60054  0.96219  Biso   1.000  C
  C66      1.0000 0.92273  0.10054  0.96219  Biso   1.000  C
  C67      1.0000 0.57727  0.60054  0.53781  Biso   1.000  C
  C68      1.0000 0.07727  0.10054  0.53781  Biso   1.000  C
  C69      1.0000 0.57727  0.39946  0.03781  Biso   1.000  C
  C70      1.0000 0.07727  0.89946  0.03781  Biso   1.000  C
  C71      1.0000 0.42273  0.39946  0.46219  Biso   1.000  C
  C72      1.0000 0.92273  0.89946  0.46219  Biso   1.000  C
  C73      1.0000 0.47948  0.63841  0.03858  Biso   1.000  C
  C74      1.0000 0.97948  0.13841  0.03858  Biso   1.000  C
  C75      1.0000 0.52052  0.63841  0.46142  Biso   1.000  C
  C76      1.0000 0.02052  0.13841  0.46142  Biso   1.000  C
  C77      1.0000 0.52052  0.36159  0.96142  Biso   1.000  C
  C78      1.0000 0.02052  0.86159  0.96142  Biso   1.000  C
  C79      1.0000 0.47948  0.36159  0.53858  Biso   1.000  C
  C80      1.0000 0.97948  0.86159  0.53858  Biso   1.000  C
  H49      1.0000 0.47080  0.63330  0.09070  Biso   1.000  H
  H50      1.0000 0.97080  0.13330  0.09070  Biso   1.000  H
  H51      1.0000 0.52920  0.63330  0.40930  Biso   1.000  H
  H52      1.0000 0.02920  0.13330  0.40930  Biso   1.000  H
  H53      1.0000 0.52920  0.36670  0.90930  Biso   1.000  H
  H54      1.0000 0.02920  0.86670  0.90930  Biso   1.000  H
  H55      1.0000 0.47080  0.36670  0.59070  Biso   1.000  H
  H56      1.0000 0.97080  0.86670  0.59070  Biso   1.000  H
  C81      1.0000 0.54916  0.68388  0.03674  Biso   1.000  C
  C82      1.0000 0.04916  0.18388  0.03674  Biso   1.000  C
  C83      1.0000 0.45084  0.68388  0.46326  Biso   1.000  C
  C84      1.0000 0.95084  0.18388  0.46326  Biso   1.000  C
  C85      1.0000 0.45084  0.31612  0.96326  Biso   1.000  C
  C86      1.0000 0.95084  0.81612  0.96326  Biso   1.000  C
  C87      1.0000 0.54916  0.31612  0.53674  Biso   1.000  C
  C88      1.0000 0.04916  0.81612  0.53674  Biso   1.000  C
  H57      1.0000 0.58720  0.70840  0.08850  Biso   1.000  H
  H58      1.0000 0.08720  0.20840  0.08850  Biso   1.000  H
  H59      1.0000 0.41280  0.70840  0.41150  Biso   1.000  H
  H60      1.0000 0.91280  0.20840  0.41150  Biso   1.000  H
  H61      1.0000 0.41280  0.29160  0.91150  Biso   1.000  H
  H62      1.0000 0.91280  0.79160  0.91150  Biso   1.000  H
  H63      1.0000 0.58720  0.29160  0.58850  Biso   1.000  H
  H64      1.0000 0.08720  0.79160  0.58850  Biso   1.000  H
  C89      1.0000 0.34860  0.54281  0.96221  Biso   1.000  C
  C90      1.0000 0.84860  0.04281  0.96221  Biso   1.000  C
  C91      1.0000 0.65140  0.54281  0.53779  Biso   1.000  C
  C92      1.0000 0.15140  0.04281  0.53779  Biso   1.000  C
  C93      1.0000 0.65140  0.45719  0.03779  Biso   1.000  C
  C94      1.0000 0.15140  0.95719  0.03779  Biso   1.000  C
  C95      1.0000 0.34860  0.45719  0.46221  Biso   1.000  C
  C96      1.0000 0.84860  0.95719  0.46221  Biso   1.000  C
  C97      1.0000 0.00000  0.70580  0.75000  Biso   1.000  C
  C98      1.0000 0.50000  0.20580  0.75000  Biso   1.000  C
  C99      1.0000 0.00000  0.29420  0.25000  Biso   1.000  C
  C100     1.0000 0.50000  0.79420  0.25000  Biso   1.000  C
  H65      1.0000 0.00000  0.77990  0.75000  Biso   1.000  H
  H66      1.0000 0.50000  0.27990  0.75000  Biso   1.000  H
  H67      1.0000 0.00000  0.22010  0.25000  Biso   1.000  H
  H68      1.0000 0.50000  0.72010  0.25000  Biso   1.000  H
  C101     1.0000 0.04754  0.65098  0.82387  Biso   1.000  C
  C102     1.0000 0.54754  0.15098  0.82387  Biso   1.000  C
  C103     1.0000 0.95246  0.65098  0.67613  Biso   1.000  C
  C104     1.0000 0.45246  0.15098  0.67613  Biso   1.000  C
  C105     1.0000 0.95246  0.34902  0.17613  Biso   1.000  C
  C106     1.0000 0.45246  0.84902  0.17613  Biso   1.000  C
  C107     1.0000 0.04754  0.34902  0.32387  Biso   1.000  C
  C108     1.0000 0.54754  0.84902  0.32387  Biso   1.000  C
  H69      1.0000 0.07900  0.68820  0.87320  Biso   1.000  H
  H70      1.0000 0.57900  0.18820  0.87320  Biso   1.000  H
  H71      1.0000 0.92100  0.68820  0.62680  Biso   1.000  H
  H72      1.0000 0.42100  0.18820  0.62680  Biso   1.000  H
  H73      1.0000 0.92100  0.31180  0.12680  Biso   1.000  H
  H74      1.0000 0.42100  0.81180  0.12680  Biso   1.000  H
  H75      1.0000 0.07900  0.31180  0.37320  Biso   1.000  H
  H76      1.0000 0.57900  0.81180  0.37320  Biso   1.000  H
  C109     1.0000 0.04785  0.53992  0.82383  Biso   1.000  C
  C110     1.0000 0.54785  0.03992  0.82383  Biso   1.000  C
  C111     1.0000 0.95215  0.53992  0.67617  Biso   1.000  C
  C112     1.0000 0.45215  0.03992  0.67617  Biso   1.000  C
  C113     1.0000 0.95215  0.46008  0.17617  Biso   1.000  C
  C114     1.0000 0.45215  0.96008  0.17617  Biso   1.000  C
  C115     1.0000 0.04785  0.46008  0.32383  Biso   1.000  C
  C116     1.0000 0.54785  0.96008  0.32383  Biso   1.000  C
  C117     1.0000 0.00000  0.48560  0.75000  Biso   1.000  C
  C118     1.0000 0.50000  0.98560  0.75000  Biso   1.000  C
  C119     1.0000 0.00000  0.51440  0.25000  Biso   1.000  C
  C120     1.0000 0.50000  0.01440  0.25000  Biso   1.000  C
  H77      1.0000 0.00000  0.41150  0.75000  Biso   1.000  H
  H78      1.0000 0.50000  0.91150  0.75000  Biso   1.000  H
  H79      1.0000 0.00000  0.58850  0.25000  Biso   1.000  H
  H80      1.0000 0.50000  0.08850  0.25000  Biso   1.000  H
  C121     1.0000 0.10065  0.47751  0.90125  Biso   1.000  C
  C122     1.0000 0.60065  0.97751  0.90125  Biso   1.000  C
  C123     1.0000 0.89935  0.47751  0.59875  Biso   1.000  C
  C124     1.0000 0.39935  0.97751  0.59875  Biso   1.000  C
  C125     1.0000 0.89935  0.52249  0.09875  Biso   1.000  C
  C126     1.0000 0.39935  0.02249  0.09875  Biso   1.000  C
  C127     1.0000 0.10065  0.52249  0.40125  Biso   1.000  C
  C128     1.0000 0.60065  0.02249  0.40125  Biso   1.000  C
  H81      1.0000 0.26700  0.37800  0.94900  Biso   1.000  H
  H82      1.0000 0.76700  0.87800  0.94900  Biso   1.000  H
  H83      1.0000 0.73300  0.37800  0.55100  Biso   1.000  H
  H84      1.0000 0.23300  0.87800  0.55100  Biso   1.000  H
  H85      1.0000 0.73300  0.62200  0.05100  Biso   1.000  H
  H86      1.0000 0.23300  0.12200  0.05100  Biso   1.000  H
  H87      1.0000 0.26700  0.62200  0.44900  Biso   1.000  H
  H88      1.0000 0.76700  0.12200  0.44900  Biso   1.000  H
