data_image0
_cell_length_a       7.3361
_cell_length_b       10.7496
_cell_length_c       14.028
_cell_angle_alpha    90
_cell_angle_beta     90.778
_cell_angle_gamma    90

_symmetry_space_group_name_H-M    "P 1"
_symmetry_int_tables_number       1

loop_
  _symmetry_equiv_pos_as_xyz
  'x, y, z'

loop_
  _atom_site_label
  _atom_site_occupancy
  _atom_site_fract_x
  _atom_site_fract_y
  _atom_site_fract_z
  _atom_site_thermal_displace_type
  _atom_site_B_iso_or_equiv
  _atom_site_type_symbol
  Cu1      1.0000 0.08893  0.09210  0.11987  Biso   1.000  Cu
  Cu2      1.0000 0.91107  0.59210  0.38013  Biso   1.000  Cu
  Cu3      1.0000 0.91107  0.90790  0.88013  Biso   1.000  Cu
  Cu4      1.0000 0.08893  0.40790  0.61987  Biso   1.000  Cu
  O1       1.0000 0.26810  0.22960  0.14300  Biso   1.000  O
  O2       1.0000 0.73190  0.72960  0.35700  Biso   1.000  O
  O3       1.0000 0.73190  0.77040  0.85700  Biso   1.000  O
  O4       1.0000 0.26810  0.27040  0.64300  Biso   1.000  O
  O5       1.0000 0.89850  0.20500  0.06900  Biso   1.000  O
  O6       1.0000 0.10150  0.70500  0.43100  Biso   1.000  O
  O7       1.0000 0.10150  0.79500  0.93100  Biso   1.000  O
  O8       1.0000 0.89850  0.29500  0.56900  Biso   1.000  O
  O9       1.0000 0.21140  0.42190  0.47238  Biso   1.000  O
  O10      1.0000 0.78860  0.92190  0.02762  Biso   1.000  O
  O11      1.0000 0.78860  0.57810  0.52762  Biso   1.000  O
  O12      1.0000 0.21140  0.07810  0.97238  Biso   1.000  O
  O13      1.0000 0.10580  0.48800  0.33103  Biso   1.000  O
  O14      1.0000 0.89420  0.98800  0.16897  Biso   1.000  O
  O15      1.0000 0.89420  0.51200  0.66897  Biso   1.000  O
  O16      1.0000 0.10580  0.01200  0.83103  Biso   1.000  O
  O17      1.0000 0.17120  0.20220  0.29180  Biso   1.000  O
  O18      1.0000 0.82880  0.70220  0.20820  Biso   1.000  O
  O19      1.0000 0.82880  0.79780  0.70820  Biso   1.000  O
  O20      1.0000 0.17120  0.29780  0.79180  Biso   1.000  O
  N1       1.0000 0.72220  0.46890  0.33690  Biso   1.000  N
  N2       1.0000 0.27780  0.96890  0.16310  Biso   1.000  N
  N3       1.0000 0.27780  0.53110  0.66310  Biso   1.000  N
  N4       1.0000 0.72220  0.03110  0.83690  Biso   1.000  N
  N5       1.0000 0.79890  0.34800  0.96180  Biso   1.000  N
  N6       1.0000 0.20110  0.84800  0.53820  Biso   1.000  N
  N7       1.0000 0.20110  0.65200  0.03820  Biso   1.000  N
  N8       1.0000 0.79890  0.15200  0.46180  Biso   1.000  N
  C1       1.0000 0.27580  0.24620  0.23330  Biso   1.000  C
  C2       1.0000 0.72420  0.74620  0.26670  Biso   1.000  C
  C3       1.0000 0.72420  0.75380  0.76670  Biso   1.000  C
  C4       1.0000 0.27580  0.25380  0.73330  Biso   1.000  C
  C5       1.0000 0.43210  0.32600  0.26900  Biso   1.000  C
  C6       1.0000 0.56790  0.82600  0.23100  Biso   1.000  C
  C7       1.0000 0.56790  0.67400  0.73100  Biso   1.000  C
  C8       1.0000 0.43210  0.17400  0.76900  Biso   1.000  C
  C9       1.0000 0.40630  0.41350  0.34060  Biso   1.000  C
  C10      1.0000 0.59370  0.91350  0.15940  Biso   1.000  C
  C11      1.0000 0.59370  0.58650  0.65940  Biso   1.000  C
  C12      1.0000 0.40630  0.08650  0.84060  Biso   1.000  C
  C13      1.0000 0.60820  0.30830  0.23600  Biso   1.000  C
  C14      1.0000 0.39180  0.80830  0.26400  Biso   1.000  C
  C15      1.0000 0.39180  0.69170  0.76400  Biso   1.000  C
  C16      1.0000 0.60820  0.19170  0.73600  Biso   1.000  C
  H1       1.0000 0.63110  0.24700  0.18880  Biso   1.000  H
  H2       1.0000 0.36890  0.74700  0.31120  Biso   1.000  H
  H3       1.0000 0.36890  0.75300  0.81120  Biso   1.000  H
  H4       1.0000 0.63110  0.25300  0.68880  Biso   1.000  H
  C17      1.0000 0.55330  0.48410  0.37140  Biso   1.000  C
  C18      1.0000 0.44670  0.98410  0.12860  Biso   1.000  C
  C19      1.0000 0.44670  0.51590  0.62860  Biso   1.000  C
  C20      1.0000 0.55330  0.01590  0.87140  Biso   1.000  C
  H5       1.0000 0.53440  0.54580  0.41870  Biso   1.000  H
  H6       1.0000 0.46560  0.04580  0.08130  Biso   1.000  H
  H7       1.0000 0.46560  0.45420  0.58130  Biso   1.000  H
  H8       1.0000 0.53440  0.95420  0.91870  Biso   1.000  H
  C21      1.0000 0.22540  0.44090  0.38640  Biso   1.000  C
  C22      1.0000 0.77460  0.94090  0.11360  Biso   1.000  C
  C23      1.0000 0.77460  0.55910  0.61360  Biso   1.000  C
  C24      1.0000 0.22540  0.05910  0.88640  Biso   1.000  C
  C25      1.0000 0.75000  0.38000  0.27180  Biso   1.000  C
  C26      1.0000 0.25000  0.88000  0.22820  Biso   1.000  C
  C27      1.0000 0.25000  0.62000  0.72820  Biso   1.000  C
  C28      1.0000 0.75000  0.12000  0.77180  Biso   1.000  C
  H9       1.0000 0.87010  0.36580  0.24960  Biso   1.000  H
  H10      1.0000 0.12990  0.86580  0.25040  Biso   1.000  H
  H11      1.0000 0.12990  0.63420  0.75040  Biso   1.000  H
  H12      1.0000 0.87010  0.13420  0.74960  Biso   1.000  H
  C29      1.0000 0.92760  0.28050  0.00240  Biso   1.000  C
  C30      1.0000 0.07240  0.78050  0.49760  Biso   1.000  C
  C31      1.0000 0.07240  0.71950  0.99760  Biso   1.000  C
  C32      1.0000 0.92760  0.21950  0.50240  Biso   1.000  C
  H13      1.0000 0.04870  0.28920  0.98030  Biso   1.000  H
  H14      1.0000 0.95130  0.78920  0.51970  Biso   1.000  H
  H15      1.0000 0.95130  0.71080  0.01970  Biso   1.000  H
  H16      1.0000 0.04870  0.21080  0.48030  Biso   1.000  H
  C33      1.0000 0.60730  0.33480  0.98840  Biso   1.000  C
  C34      1.0000 0.39270  0.83480  0.51160  Biso   1.000  C
  C35      1.0000 0.39270  0.66520  0.01160  Biso   1.000  C
  C36      1.0000 0.60730  0.16520  0.48840  Biso   1.000  C
  H17      1.0000 0.58580  0.25020  0.01170  Biso   1.000  H
  H18      1.0000 0.41420  0.75020  0.48830  Biso   1.000  H
  H19      1.0000 0.41420  0.74980  0.98830  Biso   1.000  H
  H20      1.0000 0.58580  0.24980  0.51170  Biso   1.000  H
  H21      1.0000 0.52900  0.35080  0.93260  Biso   1.000  H
  H22      1.0000 0.47100  0.85080  0.56740  Biso   1.000  H
  H23      1.0000 0.47100  0.64920  0.06740  Biso   1.000  H
  H24      1.0000 0.52900  0.14920  0.43260  Biso   1.000  H
  H25      1.0000 0.57910  0.39470  0.03880  Biso   1.000  H
  H26      1.0000 0.42090  0.89470  0.46120  Biso   1.000  H
  H27      1.0000 0.42090  0.60530  0.96120  Biso   1.000  H
  H28      1.0000 0.57910  0.10530  0.53880  Biso   1.000  H
  C37      1.0000 0.83920  0.44010  0.88950  Biso   1.000  C
  C38      1.0000 0.16080  0.94010  0.61050  Biso   1.000  C
  C39      1.0000 0.16080  0.55990  0.11050  Biso   1.000  C
  C40      1.0000 0.83920  0.05990  0.38950  Biso   1.000  C
  H29      1.0000 0.97030  0.44010  0.87720  Biso   1.000  H
  H30      1.0000 0.02970  0.94010  0.62280  Biso   1.000  H
  H31      1.0000 0.02970  0.55990  0.12280  Biso   1.000  H
  H32      1.0000 0.97030  0.05990  0.37720  Biso   1.000  H
  H33      1.0000 0.80220  0.52250  0.91190  Biso   1.000  H
  H34      1.0000 0.19780  0.02250  0.58810  Biso   1.000  H
  H35      1.0000 0.19780  0.47750  0.08810  Biso   1.000  H
  H36      1.0000 0.80220  0.97750  0.41190  Biso   1.000  H
  H37      1.0000 0.77220  0.41980  0.83060  Biso   1.000  H
  H38      1.0000 0.22780  0.91980  0.66940  Biso   1.000  H
  H39      1.0000 0.22780  0.58020  0.16940  Biso   1.000  H
  H40      1.0000 0.77220  0.08020  0.33060  Biso   1.000  H
