data_image0
_cell_length_a       15.4329
_cell_length_b       9.9712
_cell_length_c       15.4584
_cell_angle_alpha    90
_cell_angle_beta     97.763
_cell_angle_gamma    90

_symmetry_space_group_name_H-M    "P 1"
_symmetry_int_tables_number       1

loop_
  _symmetry_equiv_pos_as_xyz
  'x, y, z'

loop_
  _atom_site_label
  _atom_site_occupancy
  _atom_site_fract_x
  _atom_site_fract_y
  _atom_site_fract_z
  _atom_site_thermal_displace_type
  _atom_site_B_iso_or_equiv
  _atom_site_type_symbol
  Cu1      1.0000 0.50000  0.50000  0.50000  Biso   1.000  Cu
  Cu2      1.0000 0.00000  0.00000  0.50000  Biso   1.000  Cu
  Cu3      1.0000 0.50000  0.50000  0.00000  Biso   1.000  Cu
  Cu4      1.0000 0.00000  0.00000  0.00000  Biso   1.000  Cu
  O1       1.0000 0.48516  0.57440  0.61265  Biso   1.000  O
  O2       1.0000 0.98516  0.07440  0.61265  Biso   1.000  O
  O3       1.0000 0.51484  0.57440  0.88735  Biso   1.000  O
  O4       1.0000 0.01484  0.07440  0.88735  Biso   1.000  O
  O5       1.0000 0.51484  0.42560  0.38735  Biso   1.000  O
  O6       1.0000 0.01484  0.92560  0.38735  Biso   1.000  O
  O7       1.0000 0.48516  0.42560  0.11265  Biso   1.000  O
  O8       1.0000 0.98516  0.92560  0.11265  Biso   1.000  O
  O9       1.0000 0.63877  0.58140  0.54958  Biso   1.000  O
  O10      1.0000 0.13877  0.08140  0.54958  Biso   1.000  O
  O11      1.0000 0.36123  0.58140  0.95042  Biso   1.000  O
  O12      1.0000 0.86123  0.08140  0.95042  Biso   1.000  O
  O13      1.0000 0.36123  0.41860  0.45042  Biso   1.000  O
  O14      1.0000 0.86123  0.91860  0.45042  Biso   1.000  O
  O15      1.0000 0.63877  0.41860  0.04958  Biso   1.000  O
  O16      1.0000 0.13877  0.91860  0.04958  Biso   1.000  O
  O17      1.0000 0.61002  0.84510  0.84501  Biso   1.000  O
  O18      1.0000 0.11002  0.34510  0.84501  Biso   1.000  O
  O19      1.0000 0.38998  0.84510  0.65499  Biso   1.000  O
  O20      1.0000 0.88998  0.34510  0.65499  Biso   1.000  O
  O21      1.0000 0.38998  0.15490  0.15499  Biso   1.000  O
  O22      1.0000 0.88998  0.65490  0.15499  Biso   1.000  O
  O23      1.0000 0.61002  0.15490  0.34501  Biso   1.000  O
  O24      1.0000 0.11002  0.65490  0.34501  Biso   1.000  O
  O25      1.0000 0.47145  0.67940  0.44313  Biso   1.000  O
  O26      1.0000 0.97145  0.17940  0.44313  Biso   1.000  O
  O27      1.0000 0.52855  0.67940  0.05687  Biso   1.000  O
  O28      1.0000 0.02855  0.17940  0.05687  Biso   1.000  O
  O29      1.0000 0.52855  0.32060  0.55687  Biso   1.000  O
  O30      1.0000 0.02855  0.82060  0.55687  Biso   1.000  O
  O31      1.0000 0.47145  0.32060  0.94313  Biso   1.000  O
  O32      1.0000 0.97145  0.82060  0.94313  Biso   1.000  O
  N1       1.0000 0.39400  0.87100  0.42810  Biso   1.000  N
  N2       1.0000 0.89400  0.37100  0.42810  Biso   1.000  N
  N3       1.0000 0.60600  0.87100  0.07190  Biso   1.000  N
  N4       1.0000 0.10600  0.37100  0.07190  Biso   1.000  N
  N5       1.0000 0.60600  0.12900  0.57190  Biso   1.000  N
  N6       1.0000 0.10600  0.62900  0.57190  Biso   1.000  N
  N7       1.0000 0.39400  0.12900  0.92810  Biso   1.000  N
  N8       1.0000 0.89400  0.62900  0.92810  Biso   1.000  N
  C1       1.0000 0.54798  0.64380  0.65404  Biso   1.000  C
  C2       1.0000 0.04798  0.14380  0.65404  Biso   1.000  C
  C3       1.0000 0.45202  0.64380  0.84596  Biso   1.000  C
  C4       1.0000 0.95202  0.14380  0.84596  Biso   1.000  C
  C5       1.0000 0.45202  0.35620  0.34596  Biso   1.000  C
  C6       1.0000 0.95202  0.85620  0.34596  Biso   1.000  C
  C7       1.0000 0.54798  0.35620  0.15404  Biso   1.000  C
  C8       1.0000 0.04798  0.85620  0.15404  Biso   1.000  C
  C9       1.0000 0.63294  0.64500  0.61607  Biso   1.000  C
  C10      1.0000 0.13294  0.14500  0.61607  Biso   1.000  C
  C11      1.0000 0.36706  0.64500  0.88393  Biso   1.000  C
  C12      1.0000 0.86706  0.14500  0.88393  Biso   1.000  C
  C13      1.0000 0.36706  0.35500  0.38393  Biso   1.000  C
  C14      1.0000 0.86706  0.85500  0.38393  Biso   1.000  C
  C15      1.0000 0.63294  0.35500  0.11607  Biso   1.000  C
  C16      1.0000 0.13294  0.85500  0.11607  Biso   1.000  C
  C17      1.0000 0.70788  0.72170  0.66084  Biso   1.000  C
  C18      1.0000 0.20788  0.22170  0.66084  Biso   1.000  C
  C19      1.0000 0.29212  0.72170  0.83916  Biso   1.000  C
  C20      1.0000 0.79212  0.22170  0.83916  Biso   1.000  C
  C21      1.0000 0.29212  0.27830  0.33916  Biso   1.000  C
  C22      1.0000 0.79212  0.77830  0.33916  Biso   1.000  C
  C23      1.0000 0.70788  0.27830  0.16084  Biso   1.000  C
  C24      1.0000 0.20788  0.77830  0.16084  Biso   1.000  C
  C25      1.0000 0.78520  0.73130  0.62410  Biso   1.000  C
  C26      1.0000 0.28520  0.23130  0.62410  Biso   1.000  C
  C27      1.0000 0.21480  0.73130  0.87590  Biso   1.000  C
  C28      1.0000 0.71480  0.23130  0.87590  Biso   1.000  C
  C29      1.0000 0.21480  0.26870  0.37590  Biso   1.000  C
  C30      1.0000 0.71480  0.76870  0.37590  Biso   1.000  C
  C31      1.0000 0.78520  0.26870  0.12410  Biso   1.000  C
  C32      1.0000 0.28520  0.76870  0.12410  Biso   1.000  C
  C33      1.0000 0.85370  0.80570  0.66460  Biso   1.000  C
  C34      1.0000 0.35370  0.30570  0.66460  Biso   1.000  C
  C35      1.0000 0.14630  0.80570  0.83540  Biso   1.000  C
  C36      1.0000 0.64630  0.30570  0.83540  Biso   1.000  C
  C37      1.0000 0.14630  0.19430  0.33540  Biso   1.000  C
  C38      1.0000 0.64630  0.69430  0.33540  Biso   1.000  C
  C39      1.0000 0.85370  0.19430  0.16460  Biso   1.000  C
  C40      1.0000 0.35370  0.69430  0.16460  Biso   1.000  C
  C41      1.0000 0.84670  0.86730  0.74320  Biso   1.000  C
  C42      1.0000 0.34670  0.36730  0.74320  Biso   1.000  C
  C43      1.0000 0.15330  0.86730  0.75680  Biso   1.000  C
  C44      1.0000 0.65330  0.36730  0.75680  Biso   1.000  C
  C45      1.0000 0.15330  0.13270  0.25680  Biso   1.000  C
  C46      1.0000 0.65330  0.63270  0.25680  Biso   1.000  C
  C47      1.0000 0.84670  0.13270  0.24320  Biso   1.000  C
  C48      1.0000 0.34670  0.63270  0.24320  Biso   1.000  C
  C49      1.0000 0.77050  0.85910  0.78070  Biso   1.000  C
  C50      1.0000 0.27050  0.35910  0.78070  Biso   1.000  C
  C51      1.0000 0.22950  0.85910  0.71930  Biso   1.000  C
  C52      1.0000 0.72950  0.35910  0.71930  Biso   1.000  C
  C53      1.0000 0.22950  0.14090  0.21930  Biso   1.000  C
  C54      1.0000 0.72950  0.64090  0.21930  Biso   1.000  C
  C55      1.0000 0.77050  0.14090  0.28070  Biso   1.000  C
  C56      1.0000 0.27050  0.64090  0.28070  Biso   1.000  C
  C57      1.0000 0.69933  0.78670  0.73884  Biso   1.000  C
  C58      1.0000 0.19933  0.28670  0.73884  Biso   1.000  C
  C59      1.0000 0.30067  0.78670  0.76116  Biso   1.000  C
  C60      1.0000 0.80067  0.28670  0.76116  Biso   1.000  C
  C61      1.0000 0.30067  0.21330  0.26116  Biso   1.000  C
  C62      1.0000 0.80067  0.71330  0.26116  Biso   1.000  C
  C63      1.0000 0.69933  0.21330  0.23884  Biso   1.000  C
  C64      1.0000 0.19933  0.71330  0.23884  Biso   1.000  C
  C65      1.0000 0.61519  0.78350  0.77680  Biso   1.000  C
  C66      1.0000 0.11519  0.28350  0.77680  Biso   1.000  C
  C67      1.0000 0.38481  0.78350  0.72320  Biso   1.000  C
  C68      1.0000 0.88481  0.28350  0.72320  Biso   1.000  C
  C69      1.0000 0.38481  0.21650  0.22320  Biso   1.000  C
  C70      1.0000 0.88481  0.71650  0.22320  Biso   1.000  C
  C71      1.0000 0.61519  0.21650  0.27680  Biso   1.000  C
  C72      1.0000 0.11519  0.71650  0.27680  Biso   1.000  C
  C73      1.0000 0.54169  0.71090  0.73121  Biso   1.000  C
  C74      1.0000 0.04169  0.21090  0.73121  Biso   1.000  C
  C75      1.0000 0.45831  0.71090  0.76879  Biso   1.000  C
  C76      1.0000 0.95831  0.21090  0.76879  Biso   1.000  C
  C77      1.0000 0.45831  0.28910  0.26879  Biso   1.000  C
  C78      1.0000 0.95831  0.78910  0.26879  Biso   1.000  C
  C79      1.0000 0.54169  0.28910  0.23121  Biso   1.000  C
  C80      1.0000 0.04169  0.78910  0.23121  Biso   1.000  C
  C81      1.0000 0.41470  0.75400  0.46390  Biso   1.000  C
  C82      1.0000 0.91470  0.25400  0.46390  Biso   1.000  C
  C83      1.0000 0.58530  0.75400  0.03610  Biso   1.000  C
  C84      1.0000 0.08530  0.25400  0.03610  Biso   1.000  C
  C85      1.0000 0.58530  0.24600  0.53610  Biso   1.000  C
  C86      1.0000 0.08530  0.74600  0.53610  Biso   1.000  C
  C87      1.0000 0.41470  0.24600  0.96390  Biso   1.000  C
  C88      1.0000 0.91470  0.74600  0.96390  Biso   1.000  C
  C89      1.0000 0.43700  0.92190  0.35660  Biso   1.000  C
  C90      1.0000 0.93700  0.42190  0.35660  Biso   1.000  C
  C91      1.0000 0.56300  0.92190  0.14340  Biso   1.000  C
  C92      1.0000 0.06300  0.42190  0.14340  Biso   1.000  C
  C93      1.0000 0.56300  0.07810  0.64340  Biso   1.000  C
  C94      1.0000 0.06300  0.57810  0.64340  Biso   1.000  C
  C95      1.0000 0.43700  0.07810  0.85660  Biso   1.000  C
  C96      1.0000 0.93700  0.57810  0.85660  Biso   1.000  C
  C97      1.0000 0.32100  0.94760  0.45300  Biso   1.000  C
  C98      1.0000 0.82100  0.44760  0.45300  Biso   1.000  C
  C99      1.0000 0.67900  0.94760  0.04700  Biso   1.000  C
  C100     1.0000 0.17900  0.44760  0.04700  Biso   1.000  C
  C101     1.0000 0.67900  0.05240  0.54700  Biso   1.000  C
  C102     1.0000 0.17900  0.55240  0.54700  Biso   1.000  C
  C103     1.0000 0.32100  0.05240  0.95300  Biso   1.000  C
  C104     1.0000 0.82100  0.55240  0.95300  Biso   1.000  C
  H1       1.0000 0.79200  0.69900  0.58200  Biso   1.000  H
  H2       1.0000 0.29200  0.19900  0.58200  Biso   1.000  H
  H3       1.0000 0.20800  0.69900  0.91800  Biso   1.000  H
  H4       1.0000 0.70800  0.19900  0.91800  Biso   1.000  H
  H5       1.0000 0.20800  0.30100  0.41800  Biso   1.000  H
  H6       1.0000 0.70800  0.80100  0.41800  Biso   1.000  H
  H7       1.0000 0.79200  0.30100  0.08200  Biso   1.000  H
  H8       1.0000 0.29200  0.80100  0.08200  Biso   1.000  H
  H9       1.0000 0.89600  0.81100  0.63700  Biso   1.000  H
  H10      1.0000 0.39600  0.31100  0.63700  Biso   1.000  H
  H11      1.0000 0.10400  0.81100  0.86300  Biso   1.000  H
  H12      1.0000 0.60400  0.31100  0.86300  Biso   1.000  H
  H13      1.0000 0.10400  0.18900  0.36300  Biso   1.000  H
  H14      1.0000 0.60400  0.68900  0.36300  Biso   1.000  H
  H15      1.0000 0.89600  0.18900  0.13700  Biso   1.000  H
  H16      1.0000 0.39600  0.68900  0.13700  Biso   1.000  H
  H17      1.0000 0.88800  0.89400  0.76600  Biso   1.000  H
  H18      1.0000 0.38800  0.39400  0.76600  Biso   1.000  H
  H19      1.0000 0.11200  0.89400  0.73400  Biso   1.000  H
  H20      1.0000 0.61200  0.39400  0.73400  Biso   1.000  H
  H21      1.0000 0.11200  0.10600  0.23400  Biso   1.000  H
  H22      1.0000 0.61200  0.60600  0.23400  Biso   1.000  H
  H23      1.0000 0.88800  0.10600  0.26600  Biso   1.000  H
  H24      1.0000 0.38800  0.60600  0.26600  Biso   1.000  H
  H25      1.0000 0.76200  0.88900  0.83300  Biso   1.000  H
  H26      1.0000 0.26200  0.38900  0.83300  Biso   1.000  H
  H27      1.0000 0.23800  0.88900  0.66700  Biso   1.000  H
  H28      1.0000 0.73800  0.38900  0.66700  Biso   1.000  H
  H29      1.0000 0.23800  0.11100  0.16700  Biso   1.000  H
  H30      1.0000 0.73800  0.61100  0.16700  Biso   1.000  H
  H31      1.0000 0.76200  0.11100  0.33300  Biso   1.000  H
  H32      1.0000 0.26200  0.61100  0.33300  Biso   1.000  H
  H33      1.0000 0.38900  0.72900  0.50800  Biso   1.000  H
  H34      1.0000 0.88900  0.22900  0.50800  Biso   1.000  H
  H35      1.0000 0.61100  0.72900  0.99200  Biso   1.000  H
  H36      1.0000 0.11100  0.22900  0.99200  Biso   1.000  H
  H37      1.0000 0.61100  0.27100  0.49200  Biso   1.000  H
  H38      1.0000 0.11100  0.77100  0.49200  Biso   1.000  H
  H39      1.0000 0.38900  0.27100  0.00800  Biso   1.000  H
  H40      1.0000 0.88900  0.77100  0.00800  Biso   1.000  H
  H41      1.0000 0.39710  0.97390  0.31830  Biso   1.000  H
  H42      1.0000 0.89710  0.47390  0.31830  Biso   1.000  H
  H43      1.0000 0.60290  0.97390  0.18170  Biso   1.000  H
  H44      1.0000 0.10290  0.47390  0.18170  Biso   1.000  H
  H45      1.0000 0.60290  0.02610  0.68170  Biso   1.000  H
  H46      1.0000 0.10290  0.52610  0.68170  Biso   1.000  H
  H47      1.0000 0.39710  0.02610  0.81830  Biso   1.000  H
  H48      1.0000 0.89710  0.52610  0.81830  Biso   1.000  H
  H49      1.0000 0.48540  0.97710  0.37960  Biso   1.000  H
  H50      1.0000 0.98540  0.47710  0.37960  Biso   1.000  H
  H51      1.0000 0.51460  0.97710  0.12040  Biso   1.000  H
  H52      1.0000 0.01460  0.47710  0.12040  Biso   1.000  H
  H53      1.0000 0.51460  0.02290  0.62040  Biso   1.000  H
  H54      1.0000 0.01460  0.52290  0.62040  Biso   1.000  H
  H55      1.0000 0.48540  0.02290  0.87960  Biso   1.000  H
  H56      1.0000 0.98540  0.52290  0.87960  Biso   1.000  H
  H57      1.0000 0.45790  0.84930  0.32550  Biso   1.000  H
  H58      1.0000 0.95790  0.34930  0.32550  Biso   1.000  H
  H59      1.0000 0.54210  0.84930  0.17450  Biso   1.000  H
  H60      1.0000 0.04210  0.34930  0.17450  Biso   1.000  H
  H61      1.0000 0.54210  0.15070  0.67450  Biso   1.000  H
  H62      1.0000 0.04210  0.65070  0.67450  Biso   1.000  H
  H63      1.0000 0.45790  0.15070  0.82550  Biso   1.000  H
  H64      1.0000 0.95790  0.65070  0.82550  Biso   1.000  H
  H65      1.0000 0.30490  0.91380  0.50600  Biso   1.000  H
  H66      1.0000 0.80490  0.41380  0.50600  Biso   1.000  H
  H67      1.0000 0.69510  0.91380  0.99400  Biso   1.000  H
  H68      1.0000 0.19510  0.41380  0.99400  Biso   1.000  H
  H69      1.0000 0.69510  0.08620  0.49400  Biso   1.000  H
  H70      1.0000 0.19510  0.58620  0.49400  Biso   1.000  H
  H71      1.0000 0.30490  0.08620  0.00600  Biso   1.000  H
  H72      1.0000 0.80490  0.58620  0.00600  Biso   1.000  H
  H73      1.0000 0.33730  0.03970  0.46100  Biso   1.000  H
  H74      1.0000 0.83730  0.53970  0.46100  Biso   1.000  H
  H75      1.0000 0.66270  0.03970  0.03900  Biso   1.000  H
  H76      1.0000 0.16270  0.53970  0.03900  Biso   1.000  H
  H77      1.0000 0.66270  0.96030  0.53900  Biso   1.000  H
  H78      1.0000 0.16270  0.46030  0.53900  Biso   1.000  H
  H79      1.0000 0.33730  0.96030  0.96100  Biso   1.000  H
  H80      1.0000 0.83730  0.46030  0.96100  Biso   1.000  H
  H81      1.0000 0.27210  0.94180  0.40840  Biso   1.000  H
  H82      1.0000 0.77210  0.44180  0.40840  Biso   1.000  H
  H83      1.0000 0.72790  0.94180  0.09160  Biso   1.000  H
  H84      1.0000 0.22790  0.44180  0.09160  Biso   1.000  H
  H85      1.0000 0.72790  0.05820  0.59160  Biso   1.000  H
  H86      1.0000 0.22790  0.55820  0.59160  Biso   1.000  H
  H87      1.0000 0.27210  0.05820  0.90840  Biso   1.000  H
  H88      1.0000 0.77210  0.55820  0.90840  Biso   1.000  H
