data_image0
_cell_length_a       28.923
_cell_length_b       13.373
_cell_length_c       9.993
_cell_angle_alpha    90
_cell_angle_beta     90
_cell_angle_gamma    90

_symmetry_space_group_name_H-M    "P 1"
_symmetry_int_tables_number       1

loop_
  _symmetry_equiv_pos_as_xyz
  'x, y, z'

loop_
  _atom_site_label
  _atom_site_occupancy
  _atom_site_fract_x
  _atom_site_fract_y
  _atom_site_fract_z
  _atom_site_thermal_displace_type
  _atom_site_B_iso_or_equiv
  _atom_site_type_symbol
  Cu1      1.0000 0.06274  0.65249  0.18124  Biso   1.000  Cu
  Cu2      1.0000 0.43726  0.84751  0.18124  Biso   1.000  Cu
  Cu3      1.0000 0.56274  0.34751  0.31876  Biso   1.000  Cu
  Cu4      1.0000 0.93726  0.15249  0.31876  Biso   1.000  Cu
  Cu5      1.0000 0.93726  0.34751  0.81876  Biso   1.000  Cu
  Cu6      1.0000 0.56274  0.15249  0.81876  Biso   1.000  Cu
  Cu7      1.0000 0.43726  0.65249  0.68124  Biso   1.000  Cu
  Cu8      1.0000 0.06274  0.84751  0.68124  Biso   1.000  Cu
  O1       1.0000 0.07864  0.51180  0.14830  Biso   1.000  O
  O2       1.0000 0.42136  0.98820  0.14830  Biso   1.000  O
  O3       1.0000 0.57864  0.48820  0.35170  Biso   1.000  O
  O4       1.0000 0.92136  0.01180  0.35170  Biso   1.000  O
  O5       1.0000 0.92136  0.48820  0.85170  Biso   1.000  O
  O6       1.0000 0.57864  0.01180  0.85170  Biso   1.000  O
  O7       1.0000 0.42136  0.51180  0.64830  Biso   1.000  O
  O8       1.0000 0.07864  0.98820  0.64830  Biso   1.000  O
  O9       1.0000 0.04743  0.35970  0.13140  Biso   1.000  O
  O10      1.0000 0.45257  0.14030  0.13140  Biso   1.000  O
  O11      1.0000 0.54743  0.64030  0.36860  Biso   1.000  O
  O12      1.0000 0.95257  0.85970  0.36860  Biso   1.000  O
  O13      1.0000 0.95257  0.64030  0.86860  Biso   1.000  O
  O14      1.0000 0.54743  0.85970  0.86860  Biso   1.000  O
  O15      1.0000 0.45257  0.35970  0.63140  Biso   1.000  O
  O16      1.0000 0.04743  0.14030  0.63140  Biso   1.000  O
  O17      1.0000 0.95599  0.28910  0.27280  Biso   1.000  O
  O18      1.0000 0.54401  0.21090  0.27280  Biso   1.000  O
  O19      1.0000 0.45599  0.71090  0.22720  Biso   1.000  O
  O20      1.0000 0.04401  0.78910  0.22720  Biso   1.000  O
  O21      1.0000 0.04401  0.71090  0.72720  Biso   1.000  O
  O22      1.0000 0.45599  0.78910  0.72720  Biso   1.000  O
  O23      1.0000 0.54401  0.28910  0.77280  Biso   1.000  O
  O24      1.0000 0.95599  0.21090  0.77280  Biso   1.000  O
  O25      1.0000 0.94213  0.29300  0.04930  Biso   1.000  O
  O26      1.0000 0.55787  0.20700  0.04930  Biso   1.000  O
  O27      1.0000 0.44213  0.70700  0.45070  Biso   1.000  O
  O28      1.0000 0.05787  0.79300  0.45070  Biso   1.000  O
  O29      1.0000 0.05787  0.70700  0.95070  Biso   1.000  O
  O30      1.0000 0.44213  0.79300  0.95070  Biso   1.000  O
  O31      1.0000 0.55787  0.29300  0.54930  Biso   1.000  O
  O32      1.0000 0.94213  0.20700  0.54930  Biso   1.000  O
  N1       1.0000 0.99906  0.59940  0.18100  Biso   1.000  N
  N2       1.0000 0.50094  0.90060  0.18100  Biso   1.000  N
  N3       1.0000 0.49906  0.40060  0.31900  Biso   1.000  N
  N4       1.0000 0.00094  0.09940  0.31900  Biso   1.000  N
  N5       1.0000 0.00094  0.40060  0.81900  Biso   1.000  N
  N6       1.0000 0.49906  0.09940  0.81900  Biso   1.000  N
  N7       1.0000 0.50094  0.59940  0.68100  Biso   1.000  N
  N8       1.0000 0.99906  0.90060  0.68100  Biso   1.000  N
  C1       1.0000 0.95910  0.65170  0.19790  Biso   1.000  C
  C2       1.0000 0.54090  0.84830  0.19790  Biso   1.000  C
  C3       1.0000 0.45910  0.34830  0.30210  Biso   1.000  C
  C4       1.0000 0.04090  0.15170  0.30210  Biso   1.000  C
  C5       1.0000 0.04090  0.34830  0.80210  Biso   1.000  C
  C6       1.0000 0.45910  0.15170  0.80210  Biso   1.000  C
  C7       1.0000 0.54090  0.65170  0.69790  Biso   1.000  C
  C8       1.0000 0.95910  0.84830  0.69790  Biso   1.000  C
  H1       1.0000 0.96030  0.72060  0.21010  Biso   1.000  H
  H2       1.0000 0.53970  0.77940  0.21010  Biso   1.000  H
  H3       1.0000 0.46030  0.27940  0.28990  Biso   1.000  H
  H4       1.0000 0.03970  0.22060  0.28990  Biso   1.000  H
  H5       1.0000 0.03970  0.27940  0.78990  Biso   1.000  H
  H6       1.0000 0.46030  0.22060  0.78990  Biso   1.000  H
  H7       1.0000 0.53970  0.72060  0.71010  Biso   1.000  H
  H8       1.0000 0.96030  0.77940  0.71010  Biso   1.000  H
  C9       1.0000 0.91670  0.60360  0.19730  Biso   1.000  C
  C10      1.0000 0.58330  0.89640  0.19730  Biso   1.000  C
  C11      1.0000 0.41670  0.39640  0.30270  Biso   1.000  C
  C12      1.0000 0.08330  0.10360  0.30270  Biso   1.000  C
  C13      1.0000 0.08330  0.39640  0.80270  Biso   1.000  C
  C14      1.0000 0.41670  0.10360  0.80270  Biso   1.000  C
  C15      1.0000 0.58330  0.60360  0.69730  Biso   1.000  C
  C16      1.0000 0.91670  0.89640  0.69730  Biso   1.000  C
  H9       1.0000 0.88950  0.64010  0.20630  Biso   1.000  H
  H10      1.0000 0.61050  0.85990  0.20630  Biso   1.000  H
  H11      1.0000 0.38950  0.35990  0.29370  Biso   1.000  H
  H12      1.0000 0.11050  0.14010  0.29370  Biso   1.000  H
  H13      1.0000 0.11050  0.35990  0.79370  Biso   1.000  H
  H14      1.0000 0.38950  0.14010  0.79370  Biso   1.000  H
  H15      1.0000 0.61050  0.64010  0.70630  Biso   1.000  H
  H16      1.0000 0.88950  0.85990  0.70630  Biso   1.000  H
  C17      1.0000 0.91514  0.50070  0.18320  Biso   1.000  C
  C18      1.0000 0.58486  0.99930  0.18320  Biso   1.000  C
  C19      1.0000 0.41514  0.49930  0.31680  Biso   1.000  C
  C20      1.0000 0.08486  0.00070  0.31680  Biso   1.000  C
  C21      1.0000 0.08486  0.49930  0.81680  Biso   1.000  C
  C22      1.0000 0.41514  0.00070  0.81680  Biso   1.000  C
  C23      1.0000 0.58486  0.50070  0.68320  Biso   1.000  C
  C24      1.0000 0.91514  0.99930  0.68320  Biso   1.000  C
  H17      1.0000 0.88690  0.46760  0.18500  Biso   1.000  H
  H18      1.0000 0.61310  0.03240  0.18500  Biso   1.000  H
  H19      1.0000 0.38690  0.53240  0.31500  Biso   1.000  H
  H20      1.0000 0.11310  0.96760  0.31500  Biso   1.000  H
  H21      1.0000 0.11310  0.53240  0.81500  Biso   1.000  H
  H22      1.0000 0.38690  0.96760  0.81500  Biso   1.000  H
  H23      1.0000 0.61310  0.46760  0.68500  Biso   1.000  H
  H24      1.0000 0.88690  0.03240  0.68500  Biso   1.000  H
  C25      1.0000 0.95607  0.44640  0.16620  Biso   1.000  C
  C26      1.0000 0.54393  0.05360  0.16620  Biso   1.000  C
  C27      1.0000 0.45607  0.55360  0.33380  Biso   1.000  C
  C28      1.0000 0.04393  0.94640  0.33380  Biso   1.000  C
  C29      1.0000 0.04393  0.55360  0.83380  Biso   1.000  C
  C30      1.0000 0.45607  0.94640  0.83380  Biso   1.000  C
  C31      1.0000 0.54393  0.44640  0.66620  Biso   1.000  C
  C32      1.0000 0.95607  0.05360  0.66620  Biso   1.000  C
  C33      1.0000 0.99775  0.49610  0.16540  Biso   1.000  C
  C34      1.0000 0.50225  0.00390  0.16540  Biso   1.000  C
  C35      1.0000 0.49775  0.50390  0.33460  Biso   1.000  C
  C36      1.0000 0.00225  0.99610  0.33460  Biso   1.000  C
  C37      1.0000 0.00225  0.50390  0.83460  Biso   1.000  C
  C38      1.0000 0.49775  0.99610  0.83460  Biso   1.000  C
  C39      1.0000 0.50225  0.49610  0.66540  Biso   1.000  C
  C40      1.0000 0.99775  0.00390  0.66540  Biso   1.000  C
  C41      1.0000 0.04362  0.44950  0.14870  Biso   1.000  C
  C42      1.0000 0.45638  0.05050  0.14870  Biso   1.000  C
  C43      1.0000 0.54362  0.55050  0.35130  Biso   1.000  C
  C44      1.0000 0.95638  0.94950  0.35130  Biso   1.000  C
  C45      1.0000 0.95638  0.55050  0.85130  Biso   1.000  C
  C46      1.0000 0.54362  0.94950  0.85130  Biso   1.000  C
  C47      1.0000 0.45638  0.44950  0.64870  Biso   1.000  C
  C48      1.0000 0.04362  0.05050  0.64870  Biso   1.000  C
  C49      1.0000 0.95257  0.33250  0.15950  Biso   1.000  C
  C50      1.0000 0.54743  0.16750  0.15950  Biso   1.000  C
  C51      1.0000 0.45257  0.66750  0.34050  Biso   1.000  C
  C52      1.0000 0.04743  0.83250  0.34050  Biso   1.000  C
  C53      1.0000 0.04743  0.66750  0.84050  Biso   1.000  C
  C54      1.0000 0.45257  0.83250  0.84050  Biso   1.000  C
  C55      1.0000 0.54743  0.33250  0.65950  Biso   1.000  C
  C56      1.0000 0.95257  0.16750  0.65950  Biso   1.000  C
  N9       1.0000 0.13000  0.68650  0.18680  Biso   1.000  N
  N10      1.0000 0.37000  0.81350  0.18680  Biso   1.000  N
  N11      1.0000 0.63000  0.31350  0.31320  Biso   1.000  N
  N12      1.0000 0.87000  0.18650  0.31320  Biso   1.000  N
  N13      1.0000 0.87000  0.31350  0.81320  Biso   1.000  N
  N14      1.0000 0.63000  0.18650  0.81320  Biso   1.000  N
  N15      1.0000 0.37000  0.68650  0.68680  Biso   1.000  N
  N16      1.0000 0.13000  0.81350  0.68680  Biso   1.000  N
  C57      1.0000 0.14560  0.77710  0.14110  Biso   1.000  C
  C58      1.0000 0.35440  0.72290  0.14110  Biso   1.000  C
  C59      1.0000 0.64560  0.22290  0.35890  Biso   1.000  C
  C60      1.0000 0.85440  0.27710  0.35890  Biso   1.000  C
  C61      1.0000 0.85440  0.22290  0.85890  Biso   1.000  C
  C62      1.0000 0.64560  0.27710  0.85890  Biso   1.000  C
  C63      1.0000 0.35440  0.77710  0.64110  Biso   1.000  C
  C64      1.0000 0.14560  0.72290  0.64110  Biso   1.000  C
  H25      1.0000 0.12450  0.82270  0.10650  Biso   1.000  H
  H26      1.0000 0.37550  0.67730  0.10650  Biso   1.000  H
  H27      1.0000 0.62450  0.17730  0.39350  Biso   1.000  H
  H28      1.0000 0.87550  0.32270  0.39350  Biso   1.000  H
  H29      1.0000 0.87550  0.17730  0.89350  Biso   1.000  H
  H30      1.0000 0.62450  0.32270  0.89350  Biso   1.000  H
  H31      1.0000 0.37550  0.82270  0.60650  Biso   1.000  H
  H32      1.0000 0.12450  0.67730  0.60650  Biso   1.000  H
  C65      1.0000 0.19150  0.80210  0.14520  Biso   1.000  C
  C66      1.0000 0.30850  0.69790  0.14520  Biso   1.000  C
  C67      1.0000 0.69150  0.19790  0.35480  Biso   1.000  C
  C68      1.0000 0.80850  0.30210  0.35480  Biso   1.000  C
  C69      1.0000 0.80850  0.19790  0.85480  Biso   1.000  C
  C70      1.0000 0.69150  0.30210  0.85480  Biso   1.000  C
  C71      1.0000 0.30850  0.80210  0.64520  Biso   1.000  C
  C72      1.0000 0.19150  0.69790  0.64520  Biso   1.000  C
  H33      1.0000 0.20090  0.86480  0.11530  Biso   1.000  H
  H34      1.0000 0.29910  0.63520  0.11530  Biso   1.000  H
  H35      1.0000 0.70090  0.13520  0.38470  Biso   1.000  H
  H36      1.0000 0.79910  0.36480  0.38470  Biso   1.000  H
  H37      1.0000 0.79910  0.13520  0.88470  Biso   1.000  H
  H38      1.0000 0.70090  0.36480  0.88470  Biso   1.000  H
  H39      1.0000 0.29910  0.86480  0.61530  Biso   1.000  H
  H40      1.0000 0.20090  0.63520  0.61530  Biso   1.000  H
  C73      1.0000 0.22410  0.73530  0.19340  Biso   1.000  C
  C74      1.0000 0.27590  0.76470  0.19340  Biso   1.000  C
  C75      1.0000 0.72410  0.26470  0.30660  Biso   1.000  C
  C76      1.0000 0.77590  0.23530  0.30660  Biso   1.000  C
  C77      1.0000 0.77590  0.26470  0.80660  Biso   1.000  C
  C78      1.0000 0.72410  0.23530  0.80660  Biso   1.000  C
  C79      1.0000 0.27590  0.73530  0.69340  Biso   1.000  C
  C80      1.0000 0.22410  0.76470  0.69340  Biso   1.000  C
  C81      1.0000 0.20810  0.64220  0.23780  Biso   1.000  C
  C82      1.0000 0.29190  0.85780  0.23780  Biso   1.000  C
  C83      1.0000 0.70810  0.35780  0.26220  Biso   1.000  C
  C84      1.0000 0.79190  0.14220  0.26220  Biso   1.000  C
  C85      1.0000 0.79190  0.35780  0.76220  Biso   1.000  C
  C86      1.0000 0.70810  0.14220  0.76220  Biso   1.000  C
  C87      1.0000 0.29190  0.64220  0.73780  Biso   1.000  C
  C88      1.0000 0.20810  0.85780  0.73780  Biso   1.000  C
  H41      1.0000 0.22910  0.59530  0.26970  Biso   1.000  H
  H42      1.0000 0.27090  0.90470  0.26970  Biso   1.000  H
  H43      1.0000 0.72910  0.40470  0.23030  Biso   1.000  H
  H44      1.0000 0.77090  0.09530  0.23030  Biso   1.000  H
  H45      1.0000 0.77090  0.40470  0.73030  Biso   1.000  H
  H46      1.0000 0.72910  0.09530  0.73030  Biso   1.000  H
  H47      1.0000 0.27090  0.59530  0.76970  Biso   1.000  H
  H48      1.0000 0.22910  0.90470  0.76970  Biso   1.000  H
  C89      1.0000 0.16260  0.61940  0.23510  Biso   1.000  C
  C90      1.0000 0.33740  0.88060  0.23510  Biso   1.000  C
  C91      1.0000 0.66260  0.38060  0.26490  Biso   1.000  C
  C92      1.0000 0.83740  0.11940  0.26490  Biso   1.000  C
  C93      1.0000 0.83740  0.38060  0.76490  Biso   1.000  C
  C94      1.0000 0.66260  0.11940  0.76490  Biso   1.000  C
  C95      1.0000 0.33740  0.61940  0.73510  Biso   1.000  C
  C96      1.0000 0.16260  0.88060  0.73510  Biso   1.000  C
  H49      1.0000 0.15290  0.55730  0.26640  Biso   1.000  H
  H50      1.0000 0.34710  0.94270  0.26640  Biso   1.000  H
  H51      1.0000 0.65290  0.44270  0.23360  Biso   1.000  H
  H52      1.0000 0.84710  0.05730  0.23360  Biso   1.000  H
  H53      1.0000 0.84710  0.44270  0.73360  Biso   1.000  H
  H54      1.0000 0.65290  0.05730  0.73360  Biso   1.000  H
  H55      1.0000 0.34710  0.55730  0.76640  Biso   1.000  H
  H56      1.0000 0.15290  0.94270  0.76640  Biso   1.000  H
  N17      1.0000 0.11600  0.42100  0.48170  Biso   1.000  N
  N18      1.0000 0.38400  0.07900  0.48170  Biso   1.000  N
  N19      1.0000 0.61600  0.57900  0.01830  Biso   1.000  N
  N20      1.0000 0.88400  0.92100  0.01830  Biso   1.000  N
  N21      1.0000 0.88400  0.57900  0.51830  Biso   1.000  N
  N22      1.0000 0.61600  0.92100  0.51830  Biso   1.000  N
  N23      1.0000 0.38400  0.42100  0.98170  Biso   1.000  N
  N24      1.0000 0.11600  0.07900  0.98170  Biso   1.000  N
  C97      1.0000 0.08010  0.35190  0.48240  Biso   1.000  C
  C98      1.0000 0.41990  0.14810  0.48240  Biso   1.000  C
  C99      1.0000 0.58010  0.64810  0.01760  Biso   1.000  C
  C100     1.0000 0.91990  0.85190  0.01760  Biso   1.000  C
  C101     1.0000 0.91990  0.64810  0.51760  Biso   1.000  C
  C102     1.0000 0.58010  0.85190  0.51760  Biso   1.000  C
  C103     1.0000 0.41990  0.35190  0.98240  Biso   1.000  C
  C104     1.0000 0.08010  0.14810  0.98240  Biso   1.000  C
  H57      1.0000 0.08650  0.28370  0.48520  Biso   1.000  H
  H58      1.0000 0.41350  0.21630  0.48520  Biso   1.000  H
  H59      1.0000 0.58650  0.71630  0.01480  Biso   1.000  H
  H60      1.0000 0.91350  0.78370  0.01480  Biso   1.000  H
  H61      1.0000 0.91350  0.71630  0.51480  Biso   1.000  H
  H62      1.0000 0.58650  0.78370  0.51480  Biso   1.000  H
  H63      1.0000 0.41350  0.28370  0.98520  Biso   1.000  H
  H64      1.0000 0.08650  0.21630  0.98520  Biso   1.000  H
  C105     1.0000 0.03430  0.38540  0.47890  Biso   1.000  C
  C106     1.0000 0.46570  0.11460  0.47890  Biso   1.000  C
  C107     1.0000 0.53430  0.61460  0.02110  Biso   1.000  C
  C108     1.0000 0.96570  0.88540  0.02110  Biso   1.000  C
  C109     1.0000 0.96570  0.61460  0.52110  Biso   1.000  C
  C110     1.0000 0.53430  0.88540  0.52110  Biso   1.000  C
  C111     1.0000 0.46570  0.38540  0.97890  Biso   1.000  C
  C112     1.0000 0.03430  0.11460  0.97890  Biso   1.000  C
  H65      1.0000 0.01020  0.33940  0.47730  Biso   1.000  H
  H66      1.0000 0.48980  0.16060  0.47730  Biso   1.000  H
  H67      1.0000 0.51020  0.66060  0.02270  Biso   1.000  H
  H68      1.0000 0.98980  0.83940  0.02270  Biso   1.000  H
  H69      1.0000 0.98980  0.66060  0.52270  Biso   1.000  H
  H70      1.0000 0.51020  0.83940  0.52270  Biso   1.000  H
  H71      1.0000 0.48980  0.33940  0.97730  Biso   1.000  H
  H72      1.0000 0.01020  0.16060  0.97730  Biso   1.000  H
  C113     1.0000 0.02500  0.48370  0.47780  Biso   1.000  C
  C114     1.0000 0.47500  0.01630  0.47780  Biso   1.000  C
  C115     1.0000 0.52500  0.51630  0.02220  Biso   1.000  C
  C116     1.0000 0.97500  0.98370  0.02220  Biso   1.000  C
  C117     1.0000 0.97500  0.51630  0.52220  Biso   1.000  C
  C118     1.0000 0.52500  0.98370  0.52220  Biso   1.000  C
  C119     1.0000 0.47500  0.48370  0.97780  Biso   1.000  C
  C120     1.0000 0.02500  0.01630  0.97780  Biso   1.000  C
  C121     1.0000 0.05930  0.55190  0.47430  Biso   1.000  C
  C122     1.0000 0.44070  0.94810  0.47430  Biso   1.000  C
  C123     1.0000 0.55930  0.44810  0.02570  Biso   1.000  C
  C124     1.0000 0.94070  0.05190  0.02570  Biso   1.000  C
  C125     1.0000 0.94070  0.44810  0.52570  Biso   1.000  C
  C126     1.0000 0.55930  0.05190  0.52570  Biso   1.000  C
  C127     1.0000 0.44070  0.55190  0.97430  Biso   1.000  C
  C128     1.0000 0.05930  0.94810  0.97430  Biso   1.000  C
  H73      1.0000 0.05310  0.62000  0.46870  Biso   1.000  H
  H74      1.0000 0.44690  0.88000  0.46870  Biso   1.000  H
  H75      1.0000 0.55310  0.38000  0.03130  Biso   1.000  H
  H76      1.0000 0.94690  0.12000  0.03130  Biso   1.000  H
  H77      1.0000 0.94690  0.38000  0.53130  Biso   1.000  H
  H78      1.0000 0.55310  0.12000  0.53130  Biso   1.000  H
  H79      1.0000 0.44690  0.62000  0.96870  Biso   1.000  H
  H80      1.0000 0.05310  0.88000  0.96870  Biso   1.000  H
  C129     1.0000 0.10420  0.51610  0.47930  Biso   1.000  C
  C130     1.0000 0.39580  0.98390  0.47930  Biso   1.000  C
  C131     1.0000 0.60420  0.48390  0.02070  Biso   1.000  C
  C132     1.0000 0.89580  0.01610  0.02070  Biso   1.000  C
  C133     1.0000 0.89580  0.48390  0.52070  Biso   1.000  C
  C134     1.0000 0.60420  0.01610  0.52070  Biso   1.000  C
  C135     1.0000 0.39580  0.51610  0.97930  Biso   1.000  C
  C136     1.0000 0.10420  0.98390  0.97930  Biso   1.000  C
  H81      1.0000 0.12800  0.56300  0.48110  Biso   1.000  H
  H82      1.0000 0.37200  0.93700  0.48110  Biso   1.000  H
  H83      1.0000 0.62800  0.43700  0.01890  Biso   1.000  H
  H84      1.0000 0.87200  0.06300  0.01890  Biso   1.000  H
  H85      1.0000 0.87200  0.43700  0.51890  Biso   1.000  H
  H86      1.0000 0.62800  0.06300  0.51890  Biso   1.000  H
  H87      1.0000 0.37200  0.56300  0.98110  Biso   1.000  H
  H88      1.0000 0.12800  0.93700  0.98110  Biso   1.000  H
  O33      1.0000 0.15450  0.35480  0.11190  Biso   1.000  O
  O34      1.0000 0.34550  0.14520  0.11190  Biso   1.000  O
  O35      1.0000 0.65450  0.64520  0.38810  Biso   1.000  O
  O36      1.0000 0.84550  0.85480  0.38810  Biso   1.000  O
  O37      1.0000 0.84550  0.64520  0.88810  Biso   1.000  O
  O38      1.0000 0.65450  0.85480  0.88810  Biso   1.000  O
  O39      1.0000 0.34550  0.35480  0.61190  Biso   1.000  O
  O40      1.0000 0.15450  0.14520  0.61190  Biso   1.000  O
  H89      1.0000 0.12800  0.38080  0.12410  Biso   1.000  H
  H90      1.0000 0.37200  0.11920  0.12410  Biso   1.000  H
  H91      1.0000 0.62800  0.61920  0.37590  Biso   1.000  H
  H92      1.0000 0.87200  0.88080  0.37590  Biso   1.000  H
  H93      1.0000 0.87200  0.61920  0.87590  Biso   1.000  H
  H94      1.0000 0.62800  0.88080  0.87590  Biso   1.000  H
  H95      1.0000 0.37200  0.38080  0.62410  Biso   1.000  H
  H96      1.0000 0.12800  0.11920  0.62410  Biso   1.000  H
  H97      1.0000 0.15220  0.29250  0.12720  Biso   1.000  H
  H98      1.0000 0.34780  0.20750  0.12720  Biso   1.000  H
  H99      1.0000 0.65220  0.70750  0.37280  Biso   1.000  H
  H100     1.0000 0.84780  0.79250  0.37280  Biso   1.000  H
  H101     1.0000 0.84780  0.70750  0.87280  Biso   1.000  H
  H102     1.0000 0.65220  0.79250  0.87280  Biso   1.000  H
  H103     1.0000 0.34780  0.29250  0.62720  Biso   1.000  H
  H104     1.0000 0.15220  0.20750  0.62720  Biso   1.000  H
  O41      1.0000 0.20210  0.45770  0.87740  Biso   1.000  O
  O42      1.0000 0.29790  0.04230  0.87740  Biso   1.000  O
  O43      1.0000 0.70210  0.54230  0.62260  Biso   1.000  O
  O44      1.0000 0.79790  0.95770  0.62260  Biso   1.000  O
  O45      1.0000 0.79790  0.54230  0.12260  Biso   1.000  O
  O46      1.0000 0.70210  0.95770  0.12260  Biso   1.000  O
  O47      1.0000 0.29790  0.45770  0.37740  Biso   1.000  O
  O48      1.0000 0.20210  0.04230  0.37740  Biso   1.000  O
  H105     1.0000 0.21910  0.41410  0.91490  Biso   1.000  H
  H106     1.0000 0.28090  0.08590  0.91490  Biso   1.000  H
  H107     1.0000 0.71910  0.58590  0.58510  Biso   1.000  H
  H108     1.0000 0.78090  0.91410  0.58510  Biso   1.000  H
  H109     1.0000 0.78090  0.58590  0.08510  Biso   1.000  H
  H110     1.0000 0.71910  0.91410  0.08510  Biso   1.000  H
  H111     1.0000 0.28090  0.41410  0.41490  Biso   1.000  H
  H112     1.0000 0.21910  0.08590  0.41490  Biso   1.000  H
  H113     1.0000 0.20040  0.50780  0.92950  Biso   1.000  H
  H114     1.0000 0.29960  0.99220  0.92950  Biso   1.000  H
  H115     1.0000 0.70040  0.49220  0.57050  Biso   1.000  H
  H116     1.0000 0.79960  0.00780  0.57050  Biso   1.000  H
  H117     1.0000 0.79960  0.49220  0.07050  Biso   1.000  H
  H118     1.0000 0.70040  0.00780  0.07050  Biso   1.000  H
  H119     1.0000 0.29960  0.50780  0.42950  Biso   1.000  H
  H120     1.0000 0.20040  0.99220  0.42950  Biso   1.000  H
  O49      1.0000 0.21200  0.44740  0.54900  Biso   1.000  O
  O50      1.0000 0.28800  0.05260  0.54900  Biso   1.000  O
  O51      1.0000 0.71200  0.55260  0.95100  Biso   1.000  O
  O52      1.0000 0.78800  0.94740  0.95100  Biso   1.000  O
  O53      1.0000 0.78800  0.55260  0.45100  Biso   1.000  O
  O54      1.0000 0.71200  0.94740  0.45100  Biso   1.000  O
  O55      1.0000 0.28800  0.44740  0.04900  Biso   1.000  O
  O56      1.0000 0.21200  0.05260  0.04900  Biso   1.000  O
  H121     1.0000 0.18380  0.44210  0.52630  Biso   1.000  H
  H122     1.0000 0.31620  0.05790  0.52630  Biso   1.000  H
  H123     1.0000 0.68380  0.55790  0.97370  Biso   1.000  H
  H124     1.0000 0.81620  0.94210  0.97370  Biso   1.000  H
  H125     1.0000 0.81620  0.55790  0.47370  Biso   1.000  H
  H126     1.0000 0.68380  0.94210  0.47370  Biso   1.000  H
  H127     1.0000 0.31620  0.44210  0.02630  Biso   1.000  H
  H128     1.0000 0.18380  0.05790  0.02630  Biso   1.000  H
  H129     1.0000 0.21560  0.41400  0.62110  Biso   1.000  H
  H130     1.0000 0.28440  0.08600  0.62110  Biso   1.000  H
  H131     1.0000 0.71560  0.58600  0.87890  Biso   1.000  H
  H132     1.0000 0.78440  0.91400  0.87890  Biso   1.000  H
  H133     1.0000 0.78440  0.58600  0.37890  Biso   1.000  H
  H134     1.0000 0.71560  0.91400  0.37890  Biso   1.000  H
  H135     1.0000 0.28440  0.41400  0.12110  Biso   1.000  H
  H136     1.0000 0.21560  0.08600  0.12110  Biso   1.000  H
  C137     1.0000 0.22360  0.74350  0.17600  Biso   1.000  C
  C138     1.0000 0.27640  0.75650  0.17600  Biso   1.000  C
  C139     1.0000 0.72360  0.25650  0.32400  Biso   1.000  C
  C140     1.0000 0.77640  0.24350  0.32400  Biso   1.000  C
  C141     1.0000 0.77640  0.25650  0.82400  Biso   1.000  C
  C142     1.0000 0.72360  0.24350  0.82400  Biso   1.000  C
  C143     1.0000 0.27640  0.74350  0.67600  Biso   1.000  C
  C144     1.0000 0.22360  0.75650  0.67600  Biso   1.000  C
  C145     1.0000 0.20300  0.69370  0.06950  Biso   1.000  C
  C146     1.0000 0.29700  0.80630  0.06950  Biso   1.000  C
  C147     1.0000 0.70300  0.30630  0.43050  Biso   1.000  C
  C148     1.0000 0.79700  0.19370  0.43050  Biso   1.000  C
  C149     1.0000 0.79700  0.30630  0.93050  Biso   1.000  C
  C150     1.0000 0.70300  0.19370  0.93050  Biso   1.000  C
  C151     1.0000 0.29700  0.69370  0.56950  Biso   1.000  C
  C152     1.0000 0.20300  0.80630  0.56950  Biso   1.000  C
  C153     1.0000 0.15620  0.67010  0.07430  Biso   1.000  C
  C154     1.0000 0.34380  0.82990  0.07430  Biso   1.000  C
  C155     1.0000 0.65620  0.32990  0.42570  Biso   1.000  C
  C156     1.0000 0.84380  0.17010  0.42570  Biso   1.000  C
  C157     1.0000 0.84380  0.32990  0.92570  Biso   1.000  C
  C158     1.0000 0.65620  0.17010  0.92570  Biso   1.000  C
  C159     1.0000 0.34380  0.67010  0.57430  Biso   1.000  C
  C160     1.0000 0.15620  0.82990  0.57430  Biso   1.000  C
  C161     1.0000 0.15070  0.74620  0.29200  Biso   1.000  C
  C162     1.0000 0.34930  0.75380  0.29200  Biso   1.000  C
  C163     1.0000 0.65070  0.25380  0.20800  Biso   1.000  C
  C164     1.0000 0.84930  0.24620  0.20800  Biso   1.000  C
  C165     1.0000 0.84930  0.25380  0.70800  Biso   1.000  C
  C166     1.0000 0.65070  0.24620  0.70800  Biso   1.000  C
  C167     1.0000 0.34930  0.74620  0.79200  Biso   1.000  C
  C168     1.0000 0.15070  0.75380  0.79200  Biso   1.000  C
  C169     1.0000 0.19750  0.76980  0.28730  Biso   1.000  C
  C170     1.0000 0.30250  0.73020  0.28730  Biso   1.000  C
  C171     1.0000 0.69750  0.23020  0.21270  Biso   1.000  C
  C172     1.0000 0.80250  0.26980  0.21270  Biso   1.000  C
  C173     1.0000 0.80250  0.23020  0.71270  Biso   1.000  C
  C174     1.0000 0.69750  0.26980  0.71270  Biso   1.000  C
  C175     1.0000 0.30250  0.76980  0.78730  Biso   1.000  C
  C176     1.0000 0.19750  0.73020  0.78730  Biso   1.000  C
  H137     1.0000 0.22050  0.67610  0.99510  Biso   1.000  H
  H138     1.0000 0.27950  0.82390  0.99510  Biso   1.000  H
  H139     1.0000 0.72050  0.32390  0.50490  Biso   1.000  H
  H140     1.0000 0.77950  0.17610  0.50490  Biso   1.000  H
  H141     1.0000 0.77950  0.32390  0.00490  Biso   1.000  H
  H142     1.0000 0.72050  0.17610  0.00490  Biso   1.000  H
  H143     1.0000 0.27950  0.67610  0.49510  Biso   1.000  H
  H144     1.0000 0.22050  0.82390  0.49510  Biso   1.000  H
  H145     1.0000 0.14240  0.63680  0.00310  Biso   1.000  H
  H146     1.0000 0.35760  0.86320  0.00310  Biso   1.000  H
  H147     1.0000 0.64240  0.36320  0.49690  Biso   1.000  H
  H148     1.0000 0.85760  0.13680  0.49690  Biso   1.000  H
  H149     1.0000 0.85760  0.36320  0.99690  Biso   1.000  H
  H150     1.0000 0.64240  0.13680  0.99690  Biso   1.000  H
  H151     1.0000 0.35760  0.63680  0.50310  Biso   1.000  H
  H152     1.0000 0.14240  0.86320  0.50310  Biso   1.000  H
  H153     1.0000 0.13320  0.76380  0.36650  Biso   1.000  H
  H154     1.0000 0.36680  0.73620  0.36650  Biso   1.000  H
  H155     1.0000 0.63320  0.23620  0.13350  Biso   1.000  H
  H156     1.0000 0.86680  0.26380  0.13350  Biso   1.000  H
  H157     1.0000 0.86680  0.23620  0.63350  Biso   1.000  H
  H158     1.0000 0.63320  0.26380  0.63350  Biso   1.000  H
  H159     1.0000 0.36680  0.76380  0.86650  Biso   1.000  H
  H160     1.0000 0.13320  0.73620  0.86650  Biso   1.000  H
  H161     1.0000 0.21130  0.80310  0.35850  Biso   1.000  H
  H162     1.0000 0.28870  0.69690  0.35850  Biso   1.000  H
  H163     1.0000 0.71130  0.19690  0.14150  Biso   1.000  H
  H164     1.0000 0.78870  0.30310  0.14150  Biso   1.000  H
  H165     1.0000 0.78870  0.19690  0.64150  Biso   1.000  H
  H166     1.0000 0.71130  0.30310  0.64150  Biso   1.000  H
  H167     1.0000 0.28870  0.80310  0.85850  Biso   1.000  H
  H168     1.0000 0.21130  0.69690  0.85850  Biso   1.000  H
  N25      1.0000 0.13010  0.69640  0.18560  Biso   1.000  N
  N26      1.0000 0.36990  0.80360  0.18560  Biso   1.000  N
  N27      1.0000 0.63010  0.30360  0.31440  Biso   1.000  N
  N28      1.0000 0.86990  0.19640  0.31440  Biso   1.000  N
  N29      1.0000 0.86990  0.30360  0.81440  Biso   1.000  N
  N30      1.0000 0.63010  0.19640  0.81440  Biso   1.000  N
  N31      1.0000 0.36990  0.69640  0.68560  Biso   1.000  N
  N32      1.0000 0.13010  0.80360  0.68560  Biso   1.000  N
