data_image0
_cell_length_a       9.57
_cell_length_b       13.72
_cell_length_c       11.03
_cell_angle_alpha    90
_cell_angle_beta     110.28
_cell_angle_gamma    90

_symmetry_space_group_name_H-M    "P 1"
_symmetry_int_tables_number       1

loop_
  _symmetry_equiv_pos_as_xyz
  'x, y, z'

loop_
  _atom_site_label
  _atom_site_occupancy
  _atom_site_fract_x
  _atom_site_fract_y
  _atom_site_fract_z
  _atom_site_thermal_displace_type
  _atom_site_B_iso_or_equiv
  _atom_site_type_symbol
  Cu1      1.0000 0.53754  0.08558  0.88924  Biso   1.000  Cu
  Cu2      1.0000 0.96246  0.58558  0.11076  Biso   1.000  Cu
  Cu3      1.0000 0.46246  0.91442  0.11076  Biso   1.000  Cu
  Cu4      1.0000 0.03754  0.41442  0.88924  Biso   1.000  Cu
  O1       1.0000 0.48480  0.22270  0.86690  Biso   1.000  O
  O2       1.0000 0.01520  0.72270  0.13310  Biso   1.000  O
  O3       1.0000 0.51520  0.77730  0.13310  Biso   1.000  O
  O4       1.0000 0.98480  0.27730  0.86690  Biso   1.000  O
  O5       1.0000 0.56560  0.37140  0.93470  Biso   1.000  O
  O6       1.0000 0.93440  0.87140  0.06530  Biso   1.000  O
  O7       1.0000 0.43440  0.62860  0.06530  Biso   1.000  O
  O8       1.0000 0.06560  0.12860  0.93470  Biso   1.000  O
  O9       1.0000 0.80070  0.43190  0.21210  Biso   1.000  O
  O10      1.0000 0.69930  0.93190  0.78790  Biso   1.000  O
  O11      1.0000 0.19930  0.56810  0.78790  Biso   1.000  O
  O12      1.0000 0.30070  0.06810  0.21210  Biso   1.000  O
  O13      1.0000 0.91210  0.44660  0.06530  Biso   1.000  O
  O14      1.0000 0.58790  0.94660  0.93470  Biso   1.000  O
  O15      1.0000 0.08790  0.55340  0.93470  Biso   1.000  O
  O16      1.0000 0.41210  0.05340  0.06530  Biso   1.000  O
  O17      1.0000 0.29010  0.19100  0.42280  Biso   1.000  O
  O18      1.0000 0.20990  0.69100  0.57720  Biso   1.000  O
  O19      1.0000 0.70990  0.80900  0.57720  Biso   1.000  O
  O20      1.0000 0.79010  0.30900  0.42280  Biso   1.000  O
  O21      1.0000 0.24740  0.37630  0.74410  Biso   1.000  O
  O22      1.0000 0.25260  0.87630  0.25590  Biso   1.000  O
  O23      1.0000 0.75260  0.62370  0.25590  Biso   1.000  O
  O24      1.0000 0.74740  0.12370  0.74410  Biso   1.000  O
  O25      1.0000 0.09150  0.29140  0.51190  Biso   1.000  O
  O26      1.0000 0.40850  0.79140  0.48810  Biso   1.000  O
  O27      1.0000 0.90850  0.70860  0.48810  Biso   1.000  O
  O28      1.0000 0.59150  0.20860  0.51190  Biso   1.000  O
  N1       1.0000 0.72220  0.13840  0.02210  Biso   1.000  N
  N2       1.0000 0.77780  0.63840  0.97790  Biso   1.000  N
  N3       1.0000 0.27780  0.86160  0.97790  Biso   1.000  N
  N4       1.0000 0.22220  0.36160  0.02210  Biso   1.000  N
  N5       1.0000 0.35100  0.05430  0.74010  Biso   1.000  N
  N6       1.0000 0.14900  0.55430  0.25990  Biso   1.000  N
  N7       1.0000 0.64900  0.94570  0.25990  Biso   1.000  N
  N8       1.0000 0.85100  0.44570  0.74010  Biso   1.000  N
  C1       1.0000 0.58110  0.28280  0.93750  Biso   1.000  C
  C2       1.0000 0.91890  0.78280  0.06250  Biso   1.000  C
  C3       1.0000 0.41890  0.71720  0.06250  Biso   1.000  C
  C4       1.0000 0.08110  0.21720  0.93750  Biso   1.000  C
  C5       1.0000 0.72110  0.23630  0.02850  Biso   1.000  C
  C6       1.0000 0.77890  0.73630  0.97150  Biso   1.000  C
  C7       1.0000 0.27890  0.76370  0.97150  Biso   1.000  C
  C8       1.0000 0.22110  0.26370  0.02850  Biso   1.000  C
  C9       1.0000 0.84100  0.28800  0.11220  Biso   1.000  C
  C10      1.0000 0.65900  0.78800  0.88780  Biso   1.000  C
  C11      1.0000 0.15900  0.71200  0.88780  Biso   1.000  C
  C12      1.0000 0.34100  0.21200  0.11220  Biso   1.000  C
  C13      1.0000 0.96380  0.23370  0.19100  Biso   1.000  C
  C14      1.0000 0.53620  0.73370  0.80900  Biso   1.000  C
  C15      1.0000 0.03620  0.76630  0.80900  Biso   1.000  C
  C16      1.0000 0.46380  0.26630  0.19100  Biso   1.000  C
  C17      1.0000 0.96050  0.13440  0.18390  Biso   1.000  C
  C18      1.0000 0.53950  0.63440  0.81610  Biso   1.000  C
  C19      1.0000 0.03950  0.86560  0.81610  Biso   1.000  C
  C20      1.0000 0.46050  0.36560  0.18390  Biso   1.000  C
  C21      1.0000 0.83810  0.08760  0.09720  Biso   1.000  C
  C22      1.0000 0.66190  0.58760  0.90280  Biso   1.000  C
  C23      1.0000 0.16190  0.91240  0.90280  Biso   1.000  C
  C24      1.0000 0.33810  0.41240  0.09720  Biso   1.000  C
  C25      1.0000 0.84660  0.39790  0.12880  Biso   1.000  C
  C26      1.0000 0.65340  0.89790  0.87120  Biso   1.000  C
  C27      1.0000 0.15340  0.60210  0.87120  Biso   1.000  C
  C28      1.0000 0.34660  0.10210  0.12880  Biso   1.000  C
  C29      1.0000 0.33710  0.98390  0.65200  Biso   1.000  C
  C30      1.0000 0.16290  0.48390  0.34800  Biso   1.000  C
  C31      1.0000 0.66290  0.01610  0.34800  Biso   1.000  C
  C32      1.0000 0.83710  0.51610  0.65200  Biso   1.000  C
  C33      1.0000 0.20210  0.96060  0.55800  Biso   1.000  C
  C34      1.0000 0.29790  0.46060  0.44200  Biso   1.000  C
  C35      1.0000 0.79790  0.03940  0.44200  Biso   1.000  C
  C36      1.0000 0.70210  0.53940  0.55800  Biso   1.000  C
  C37      1.0000 0.07370  0.01180  0.55010  Biso   1.000  C
  C38      1.0000 0.42630  0.51180  0.44990  Biso   1.000  C
  C39      1.0000 0.92630  0.98820  0.44990  Biso   1.000  C
  C40      1.0000 0.57370  0.48820  0.55010  Biso   1.000  C
  C41      1.0000 0.08980  0.08530  0.63950  Biso   1.000  C
  C42      1.0000 0.41020  0.58530  0.36050  Biso   1.000  C
  C43      1.0000 0.91020  0.91470  0.36050  Biso   1.000  C
  C44      1.0000 0.58980  0.41470  0.63950  Biso   1.000  C
  C45      1.0000 0.22840  0.10380  0.73110  Biso   1.000  C
  C46      1.0000 0.27160  0.60380  0.26890  Biso   1.000  C
  C47      1.0000 0.77160  0.89620  0.26890  Biso   1.000  C
  C48      1.0000 0.72840  0.39620  0.73110  Biso   1.000  C
  H1       1.0000 0.04850  0.26610  0.24890  Biso   1.000  H
  H2       1.0000 0.45150  0.76610  0.75110  Biso   1.000  H
  H3       1.0000 0.95150  0.73390  0.75110  Biso   1.000  H
  H4       1.0000 0.54850  0.23390  0.24890  Biso   1.000  H
  H5       1.0000 0.04330  0.09880  0.24440  Biso   1.000  H
  H6       1.0000 0.45670  0.59880  0.75560  Biso   1.000  H
  H7       1.0000 0.95670  0.90120  0.75560  Biso   1.000  H
  H8       1.0000 0.54330  0.40120  0.24440  Biso   1.000  H
  H9       1.0000 0.83230  0.01490  0.08600  Biso   1.000  H
  H10      1.0000 0.66770  0.51490  0.91400  Biso   1.000  H
  H11      1.0000 0.16770  0.98510  0.91400  Biso   1.000  H
  H12      1.0000 0.33230  0.48510  0.08600  Biso   1.000  H
  H13      1.0000 0.43330  0.94120  0.66110  Biso   1.000  H
  H14      1.0000 0.06670  0.44120  0.33890  Biso   1.000  H
  H15      1.0000 0.56670  0.05880  0.33890  Biso   1.000  H
  H16      1.0000 0.93330  0.55880  0.66110  Biso   1.000  H
  H17      1.0000 0.20260  0.90270  0.50050  Biso   1.000  H
  H18      1.0000 0.29740  0.40270  0.49950  Biso   1.000  H
  H19      1.0000 0.79740  0.09730  0.49950  Biso   1.000  H
  H20      1.0000 0.70260  0.59730  0.50050  Biso   1.000  H
  H21      1.0000 0.00610  0.12640  0.63880  Biso   1.000  H
  H22      1.0000 0.49390  0.62640  0.36120  Biso   1.000  H
  H23      1.0000 0.99390  0.87360  0.36120  Biso   1.000  H
  H24      1.0000 0.50610  0.37360  0.63880  Biso   1.000  H
  H25      1.0000 0.24800  0.15800  0.79770  Biso   1.000  H
  H26      1.0000 0.25200  0.65800  0.20230  Biso   1.000  H
  H27      1.0000 0.75200  0.84200  0.20230  Biso   1.000  H
  H28      1.0000 0.74800  0.34200  0.79770  Biso   1.000  H
