data_image0
_cell_length_a       5.5508
_cell_length_b       24.1084
_cell_length_c       9.4429
_cell_angle_alpha    90
_cell_angle_beta     92.127
_cell_angle_gamma    90

_symmetry_space_group_name_H-M    "P 1"
_symmetry_int_tables_number       1

loop_
  _symmetry_equiv_pos_as_xyz
  'x, y, z'

loop_
  _atom_site_label
  _atom_site_occupancy
  _atom_site_fract_x
  _atom_site_fract_y
  _atom_site_fract_z
  _atom_site_thermal_displace_type
  _atom_site_B_iso_or_equiv
  _atom_site_type_symbol
  Cu1      1.0000 0.00000  0.50000  0.00000  Biso   1.000  Cu
  Cu2      1.0000 0.00000  0.00000  0.50000  Biso   1.000  Cu
  C1       1.0000 0.02300  0.60880  0.98060  Biso   1.000  C
  C2       1.0000 0.97700  0.10880  0.51940  Biso   1.000  C
  C3       1.0000 0.97700  0.39120  0.01940  Biso   1.000  C
  C4       1.0000 0.02300  0.89120  0.48060  Biso   1.000  C
  C5       1.0000 0.09840  0.66745  0.99900  Biso   1.000  C
  C6       1.0000 0.90160  0.16745  0.50100  Biso   1.000  C
  C7       1.0000 0.90160  0.33255  0.00100  Biso   1.000  C
  C8       1.0000 0.09840  0.83255  0.49900  Biso   1.000  C
  C9       1.0000 0.97260  0.70989  0.92690  Biso   1.000  C
  C10      1.0000 0.02740  0.20989  0.57310  Biso   1.000  C
  C11      1.0000 0.02740  0.29011  0.07310  Biso   1.000  C
  C12      1.0000 0.97260  0.79011  0.42690  Biso   1.000  C
  C13      1.0000 0.04340  0.76447  0.94390  Biso   1.000  C
  C14      1.0000 0.95660  0.26447  0.55610  Biso   1.000  C
  C15      1.0000 0.95660  0.23553  0.05610  Biso   1.000  C
  C16      1.0000 0.04340  0.73553  0.44390  Biso   1.000  C
  H1       1.0000 0.96030  0.79240  0.89510  Biso   1.000  H
  H2       1.0000 0.03970  0.29240  0.60490  Biso   1.000  H
  H3       1.0000 0.03970  0.20760  0.10490  Biso   1.000  H
  H4       1.0000 0.96030  0.70760  0.39510  Biso   1.000  H
  C17      1.0000 0.23540  0.77741  0.03230  Biso   1.000  C
  C18      1.0000 0.76460  0.27741  0.46770  Biso   1.000  C
  C19      1.0000 0.76460  0.22259  0.96770  Biso   1.000  C
  C20      1.0000 0.23540  0.72259  0.53230  Biso   1.000  C
  C21      1.0000 0.36390  0.73673  0.10430  Biso   1.000  C
  C22      1.0000 0.63610  0.23673  0.39570  Biso   1.000  C
  C23      1.0000 0.63610  0.26327  0.89570  Biso   1.000  C
  C24      1.0000 0.36390  0.76327  0.60430  Biso   1.000  C
  H5       1.0000 0.49510  0.74600  0.16370  Biso   1.000  H
  H6       1.0000 0.50490  0.24600  0.33630  Biso   1.000  H
  H7       1.0000 0.50490  0.25400  0.83630  Biso   1.000  H
  H8       1.0000 0.49510  0.75400  0.66370  Biso   1.000  H
  C25      1.0000 0.29530  0.68206  0.08710  Biso   1.000  C
  C26      1.0000 0.70470  0.18206  0.41290  Biso   1.000  C
  C27      1.0000 0.70470  0.31794  0.91290  Biso   1.000  C
  C28      1.0000 0.29530  0.81794  0.58710  Biso   1.000  C
  H9       1.0000 0.38200  0.65440  0.13520  Biso   1.000  H
  H10      1.0000 0.61800  0.15440  0.36480  Biso   1.000  H
  H11      1.0000 0.61800  0.34560  0.86480  Biso   1.000  H
  H12      1.0000 0.38200  0.84560  0.63520  Biso   1.000  H
  C29      1.0000 0.30890  0.83680  0.05100  Biso   1.000  C
  C30      1.0000 0.69110  0.33680  0.44900  Biso   1.000  C
  C31      1.0000 0.69110  0.16320  0.94900  Biso   1.000  C
  C32      1.0000 0.30890  0.66320  0.55100  Biso   1.000  C
  C33      1.0000 0.40080  0.52403  0.81160  Biso   1.000  C
  C34      1.0000 0.59920  0.02403  0.68840  Biso   1.000  C
  C35      1.0000 0.59920  0.47597  0.18840  Biso   1.000  C
  C36      1.0000 0.40080  0.97597  0.31160  Biso   1.000  C
  H13      1.0000 0.46120  0.54370  0.88990  Biso   1.000  H
  H14      1.0000 0.53880  0.04370  0.61010  Biso   1.000  H
  H15      1.0000 0.53880  0.45630  0.11010  Biso   1.000  H
  H16      1.0000 0.46120  0.95630  0.38990  Biso   1.000  H
  C37      1.0000 0.52350  0.52666  0.68830  Biso   1.000  C
  C38      1.0000 0.47650  0.02666  0.81170  Biso   1.000  C
  C39      1.0000 0.47650  0.47334  0.31170  Biso   1.000  C
  C40      1.0000 0.52350  0.97334  0.18830  Biso   1.000  C
  H17      1.0000 0.66340  0.54780  0.68480  Biso   1.000  H
  H18      1.0000 0.33660  0.04780  0.81520  Biso   1.000  H
  H19      1.0000 0.33660  0.45220  0.31520  Biso   1.000  H
  H20      1.0000 0.66340  0.95220  0.18480  Biso   1.000  H
  C41      1.0000 0.44030  0.49805  0.56890  Biso   1.000  C
  C42      1.0000 0.55970  0.99805  0.93110  Biso   1.000  C
  C43      1.0000 0.55970  0.50195  0.43110  Biso   1.000  C
  C44      1.0000 0.44030  0.00195  0.06890  Biso   1.000  C
  C45      1.0000 0.23420  0.46574  0.58480  Biso   1.000  C
  C46      1.0000 0.76580  0.96574  0.91520  Biso   1.000  C
  C47      1.0000 0.76580  0.53426  0.41520  Biso   1.000  C
  C48      1.0000 0.23420  0.03426  0.08480  Biso   1.000  C
  H21      1.0000 0.17350  0.44470  0.50910  Biso   1.000  H
  H22      1.0000 0.82650  0.94470  0.99090  Biso   1.000  H
  H23      1.0000 0.82650  0.55530  0.49090  Biso   1.000  H
  H24      1.0000 0.17350  0.05530  0.00910  Biso   1.000  H
  C49      1.0000 0.12050  0.46482  0.71150  Biso   1.000  C
  C50      1.0000 0.87950  0.96482  0.78850  Biso   1.000  C
  C51      1.0000 0.87950  0.53518  0.28850  Biso   1.000  C
  C52      1.0000 0.12050  0.03518  0.21150  Biso   1.000  C
  H25      1.0000 0.98420  0.44280  0.71930  Biso   1.000  H
  H26      1.0000 0.01580  0.94280  0.78070  Biso   1.000  H
  H27      1.0000 0.01580  0.55720  0.28070  Biso   1.000  H
  H28      1.0000 0.98420  0.05720  0.21930  Biso   1.000  H
  N1       1.0000 0.19830  0.49452  0.82480  Biso   1.000  N
  N2       1.0000 0.80170  0.99452  0.67520  Biso   1.000  N
  N3       1.0000 0.80170  0.50548  0.17520  Biso   1.000  N
  N4       1.0000 0.19830  0.00548  0.32480  Biso   1.000  N
  O1       1.0000 0.14730  0.57163  0.04710  Biso   1.000  O
  O2       1.0000 0.85270  0.07163  0.45290  Biso   1.000  O
  O3       1.0000 0.85270  0.42837  0.95290  Biso   1.000  O
  O4       1.0000 0.14730  0.92837  0.54710  Biso   1.000  O
  O5       1.0000 0.84550  0.59657  0.90300  Biso   1.000  O
  O6       1.0000 0.15450  0.09657  0.59700  Biso   1.000  O
  O7       1.0000 0.15450  0.40343  0.09700  Biso   1.000  O
  O8       1.0000 0.84550  0.90343  0.40300  Biso   1.000  O
  O9       1.0000 0.78450  0.70007  0.83620  Biso   1.000  O
  O10      1.0000 0.21550  0.20007  0.66380  Biso   1.000  O
  O11      1.0000 0.21550  0.29993  0.16380  Biso   1.000  O
  O12      1.0000 0.78450  0.79993  0.33620  Biso   1.000  O
  H29      1.0000 0.75060  0.66700  0.83770  Biso   1.000  H
  H30      1.0000 0.24940  0.16700  0.66230  Biso   1.000  H
  H31      1.0000 0.24940  0.33300  0.16230  Biso   1.000  H
  H32      1.0000 0.75060  0.83300  0.33770  Biso   1.000  H
  F1       1.0000 0.50490  0.84700  0.98360  Biso   1.000  F
  F2       1.0000 0.49510  0.34700  0.51640  Biso   1.000  F
  F3       1.0000 0.49510  0.15300  0.01640  Biso   1.000  F
  F4       1.0000 0.50490  0.65300  0.48360  Biso   1.000  F
  F5       1.0000 0.36920  0.84820  0.18500  Biso   1.000  F
  F6       1.0000 0.63080  0.34820  0.31500  Biso   1.000  F
  F7       1.0000 0.63080  0.15180  0.81500  Biso   1.000  F
  F8       1.0000 0.36920  0.65180  0.68500  Biso   1.000  F
  F9       1.0000 0.15330  0.87280  0.01120  Biso   1.000  F
  F10      1.0000 0.84670  0.37280  0.48880  Biso   1.000  F
  F11      1.0000 0.84670  0.12720  0.98880  Biso   1.000  F
  F12      1.0000 0.15330  0.62720  0.51120  Biso   1.000  F
  F13      1.0000 0.53780  0.84540  0.07350  Biso   1.000  F
  F14      1.0000 0.46220  0.34540  0.42650  Biso   1.000  F
  F15      1.0000 0.46220  0.15460  0.92650  Biso   1.000  F
  F16      1.0000 0.53780  0.65460  0.57350  Biso   1.000  F
  F17      1.0000 0.20000  0.86140  0.15470  Biso   1.000  F
  F18      1.0000 0.80000  0.36140  0.34530  Biso   1.000  F
  F19      1.0000 0.80000  0.13860  0.84530  Biso   1.000  F
  F20      1.0000 0.20000  0.63860  0.65470  Biso   1.000  F
  F21      1.0000 0.25180  0.86740  0.93980  Biso   1.000  F
  F22      1.0000 0.74820  0.36740  0.56020  Biso   1.000  F
  F23      1.0000 0.74820  0.13260  0.06020  Biso   1.000  F
  F24      1.0000 0.25180  0.63260  0.43980  Biso   1.000  F
