data_image0
_cell_length_a       7.5802
_cell_length_b       6.6177
_cell_length_c       20.082
_cell_angle_alpha    90
_cell_angle_beta     97.707
_cell_angle_gamma    90

_symmetry_space_group_name_H-M    "P 1"
_symmetry_int_tables_number       1

loop_
  _symmetry_equiv_pos_as_xyz
  'x, y, z'

loop_
  _atom_site_label
  _atom_site_occupancy
  _atom_site_fract_x
  _atom_site_fract_y
  _atom_site_fract_z
  _atom_site_thermal_displace_type
  _atom_site_B_iso_or_equiv
  _atom_site_type_symbol
  O1       1.0000 0.60120  0.63630  0.34061  Biso   1.000  O
  O2       1.0000 0.39880  0.13630  0.15939  Biso   1.000  O
  O3       1.0000 0.39880  0.36370  0.65939  Biso   1.000  O
  O4       1.0000 0.60120  0.86370  0.84061  Biso   1.000  O
  Cu1      1.0000 0.47555  0.21817  0.25238  Biso   1.000  Cu
  Cu2      1.0000 0.52445  0.71817  0.24762  Biso   1.000  Cu
  Cu3      1.0000 0.52445  0.78183  0.74762  Biso   1.000  Cu
  Cu4      1.0000 0.47555  0.28183  0.75238  Biso   1.000  Cu
  N1       1.0000 0.35810  0.48450  0.23141  Biso   1.000  N
  N2       1.0000 0.64190  0.98450  0.26859  Biso   1.000  N
  N3       1.0000 0.64190  0.51550  0.76859  Biso   1.000  N
  N4       1.0000 0.35810  0.01550  0.73141  Biso   1.000  N
  N5       1.0000 0.23650  0.49060  0.18518  Biso   1.000  N
  N6       1.0000 0.76350  0.99060  0.31482  Biso   1.000  N
  N7       1.0000 0.76350  0.50940  0.81482  Biso   1.000  N
  N8       1.0000 0.23650  0.00940  0.68518  Biso   1.000  N
  N9       1.0000 0.12040  0.49570  0.14261  Biso   1.000  N
  N10      1.0000 0.87960  0.99570  0.35739  Biso   1.000  N
  N11      1.0000 0.87960  0.50430  0.85739  Biso   1.000  N
  N12      1.0000 0.12040  0.00430  0.64261  Biso   1.000  N
  O5       1.0000 0.55080  0.30280  0.34433  Biso   1.000  O
  O6       1.0000 0.44920  0.80280  0.15567  Biso   1.000  O
  O7       1.0000 0.44920  0.69720  0.65567  Biso   1.000  O
  O8       1.0000 0.55080  0.19720  0.84433  Biso   1.000  O
  O9       1.0000 0.23540  0.04360  0.28704  Biso   1.000  O
  O10      1.0000 0.76460  0.54360  0.21296  Biso   1.000  O
  O11      1.0000 0.76460  0.95640  0.71296  Biso   1.000  O
  O12      1.0000 0.23540  0.45640  0.78704  Biso   1.000  O
  H1       1.0000 0.16570  0.01080  0.25400  Biso   1.000  H
  H2       1.0000 0.83430  0.51080  0.24600  Biso   1.000  H
  H3       1.0000 0.83430  0.98920  0.74600  Biso   1.000  H
  H4       1.0000 0.16570  0.48920  0.75400  Biso   1.000  H
  C1       1.0000 0.67710  0.46490  0.44343  Biso   1.000  C
  C2       1.0000 0.32290  0.96490  0.05657  Biso   1.000  C
  C3       1.0000 0.32290  0.53510  0.55657  Biso   1.000  C
  C4       1.0000 0.67710  0.03510  0.94343  Biso   1.000  C
  C5       1.0000 0.66900  0.28720  0.48016  Biso   1.000  C
  C6       1.0000 0.33100  0.78720  0.01984  Biso   1.000  C
  C7       1.0000 0.33100  0.71280  0.51984  Biso   1.000  C
  C8       1.0000 0.66900  0.21280  0.98016  Biso   1.000  C
  H5       1.0000 0.61680  0.17190  0.45970  Biso   1.000  H
  H6       1.0000 0.38320  0.67190  0.04030  Biso   1.000  H
  H7       1.0000 0.38320  0.82810  0.54030  Biso   1.000  H
  H8       1.0000 0.61680  0.32810  0.95970  Biso   1.000  H
  C9       1.0000 0.60280  0.46980  0.37001  Biso   1.000  C
  C10      1.0000 0.39720  0.96980  0.12999  Biso   1.000  C
  C11      1.0000 0.39720  0.53020  0.62999  Biso   1.000  C
  C12      1.0000 0.60280  0.03020  0.87001  Biso   1.000  C
  C13      1.0000 0.73960  0.28380  0.54765  Biso   1.000  C
  C14      1.0000 0.26040  0.78380  0.95235  Biso   1.000  C
  C15      1.0000 0.26040  0.71620  0.45235  Biso   1.000  C
  C16      1.0000 0.73960  0.21620  0.04765  Biso   1.000  C
  H9       1.0000 0.73330  0.16620  0.57260  Biso   1.000  H
  H10      1.0000 0.26670  0.66620  0.92740  Biso   1.000  H
  H11      1.0000 0.26670  0.83380  0.42740  Biso   1.000  H
  H12      1.0000 0.73330  0.33380  0.07260  Biso   1.000  H
  C17      1.0000 0.82810  0.63230  0.54120  Biso   1.000  C
  C18      1.0000 0.17190  0.13230  0.95880  Biso   1.000  C
  C19      1.0000 0.17190  0.36770  0.45880  Biso   1.000  C
  C20      1.0000 0.82810  0.86770  0.04120  Biso   1.000  C
  H13      1.0000 0.88270  0.74650  0.56160  Biso   1.000  H
  H14      1.0000 0.11730  0.24650  0.93840  Biso   1.000  H
  H15      1.0000 0.11730  0.25350  0.43840  Biso   1.000  H
  H16      1.0000 0.88270  0.75350  0.06160  Biso   1.000  H
  C21      1.0000 0.75590  0.63770  0.47454  Biso   1.000  C
  C22      1.0000 0.24410  0.13770  0.02546  Biso   1.000  C
  C23      1.0000 0.24410  0.36230  0.52546  Biso   1.000  C
  C24      1.0000 0.75590  0.86230  0.97454  Biso   1.000  C
  H17      1.0000 0.75960  0.75670  0.45010  Biso   1.000  H
  H18      1.0000 0.24040  0.25670  0.04990  Biso   1.000  H
  H19      1.0000 0.24040  0.24330  0.54990  Biso   1.000  H
  H20      1.0000 0.75960  0.74330  0.95010  Biso   1.000  H
  O13      1.0000 0.98140  0.57890  0.67953  Biso   1.000  O
  O14      1.0000 0.01860  0.07890  0.82047  Biso   1.000  O
  O15      1.0000 0.01860  0.42110  0.32047  Biso   1.000  O
  O16      1.0000 0.98140  0.92110  0.17953  Biso   1.000  O
  C25      1.0000 0.90180  0.44290  0.64893  Biso   1.000  C
  C26      1.0000 0.09820  0.94290  0.85107  Biso   1.000  C
  C27      1.0000 0.09820  0.55710  0.35107  Biso   1.000  C
  C28      1.0000 0.90180  0.05710  0.14893  Biso   1.000  C
  H21      1.0000 0.89170  0.32180  0.67160  Biso   1.000  H
  H22      1.0000 0.10830  0.82180  0.82840  Biso   1.000  H
  H23      1.0000 0.10830  0.67820  0.32840  Biso   1.000  H
  H24      1.0000 0.89170  0.17820  0.17160  Biso   1.000  H
  C29      1.0000 0.81900  0.45450  0.57797  Biso   1.000  C
  C30      1.0000 0.18100  0.95450  0.92203  Biso   1.000  C
  C31      1.0000 0.18100  0.54550  0.42203  Biso   1.000  C
  C32      1.0000 0.81900  0.04550  0.07797  Biso   1.000  C
  H25      1.0000 0.18100  0.08400  0.30800  Biso   1.000  H
  H26      1.0000 0.81900  0.58400  0.19200  Biso   1.000  H
  H27      1.0000 0.81900  0.91600  0.69200  Biso   1.000  H
  H28      1.0000 0.18100  0.41600  0.80800  Biso   1.000  H
