data_image0
_cell_length_a       12.1611
_cell_length_b       14.0702
_cell_length_c       21.8204
_cell_angle_alpha    90
_cell_angle_beta     119.503
_cell_angle_gamma    90

_symmetry_space_group_name_H-M    "P 1"
_symmetry_int_tables_number       1

loop_
  _symmetry_equiv_pos_as_xyz
  'x, y, z'

loop_
  _atom_site_label
  _atom_site_occupancy
  _atom_site_fract_x
  _atom_site_fract_y
  _atom_site_fract_z
  _atom_site_thermal_displace_type
  _atom_site_B_iso_or_equiv
  _atom_site_type_symbol
  Cu1      1.0000 0.24578  0.26444  0.40204  Biso   1.000  Cu
  Cu2      1.0000 0.75422  0.76444  0.09796  Biso   1.000  Cu
  Cu3      1.0000 0.75422  0.73556  0.59796  Biso   1.000  Cu
  Cu4      1.0000 0.24578  0.23556  0.90204  Biso   1.000  Cu
  Cu5      1.0000 0.10561  0.61324  0.32284  Biso   1.000  Cu
  Cu6      1.0000 0.89439  0.11324  0.17716  Biso   1.000  Cu
  Cu7      1.0000 0.89439  0.38676  0.67716  Biso   1.000  Cu
  Cu8      1.0000 0.10561  0.88676  0.82284  Biso   1.000  Cu
  S1       1.0000 0.75504  0.78515  0.26760  Biso   1.000  S
  S2       1.0000 0.24496  0.28515  0.23240  Biso   1.000  S
  S3       1.0000 0.24496  0.21485  0.73240  Biso   1.000  S
  S4       1.0000 0.75504  0.71485  0.76760  Biso   1.000  S
  S5       1.0000 0.32457  0.87897  0.33914  Biso   1.000  S
  S6       1.0000 0.67543  0.37897  0.16086  Biso   1.000  S
  S7       1.0000 0.67543  0.12103  0.66086  Biso   1.000  S
  S8       1.0000 0.32457  0.62103  0.83914  Biso   1.000  S
  O1       1.0000 0.14480  0.15250  0.36855  Biso   1.000  O
  O2       1.0000 0.85520  0.65250  0.13145  Biso   1.000  O
  O3       1.0000 0.85520  0.84750  0.63145  Biso   1.000  O
  O4       1.0000 0.14480  0.34750  0.86855  Biso   1.000  O
  O5       1.0000 0.97020  0.07607  0.29584  Biso   1.000  O
  O6       1.0000 0.02980  0.57607  0.20416  Biso   1.000  O
  O7       1.0000 0.02980  0.92393  0.70416  Biso   1.000  O
  O8       1.0000 0.97020  0.42393  0.79584  Biso   1.000  O
  O9       1.0000 0.03140  0.49763  0.33760  Biso   1.000  O
  O10      1.0000 0.96860  0.99763  0.16240  Biso   1.000  O
  O11      1.0000 0.96860  0.50237  0.66240  Biso   1.000  O
  O12      1.0000 0.03140  0.00237  0.83760  Biso   1.000  O
  O13      1.0000 0.25930  0.53773  0.36185  Biso   1.000  O
  O14      1.0000 0.74070  0.03773  0.13815  Biso   1.000  O
  O15      1.0000 0.74070  0.46227  0.63815  Biso   1.000  O
  O16      1.0000 0.25930  0.96227  0.86185  Biso   1.000  O
  N1       1.0000 0.09500  0.34260  0.37656  Biso   1.000  N
  N2       1.0000 0.90500  0.84260  0.12344  Biso   1.000  N
  N3       1.0000 0.90500  0.65740  0.62344  Biso   1.000  N
  N4       1.0000 0.09500  0.15740  0.87656  Biso   1.000  N
  N5       1.0000 0.32460  0.38540  0.40274  Biso   1.000  N
  N6       1.0000 0.67540  0.88540  0.09726  Biso   1.000  N
  N7       1.0000 0.67540  0.61460  0.59726  Biso   1.000  N
  N8       1.0000 0.32460  0.11460  0.90274  Biso   1.000  N
  N9       1.0000 0.41240  0.19230  0.45200  Biso   1.000  N
  N10      1.0000 0.58760  0.69230  0.04800  Biso   1.000  N
  N11      1.0000 0.58760  0.80770  0.54800  Biso   1.000  N
  N12      1.0000 0.41240  0.30770  0.95200  Biso   1.000  N
  H1       1.0000 0.43740  0.18680  0.49860  Biso   1.000  H
  H2       1.0000 0.56260  0.68680  0.00140  Biso   1.000  H
  H3       1.0000 0.56260  0.81320  0.50140  Biso   1.000  H
  H4       1.0000 0.43740  0.31320  0.99860  Biso   1.000  H
  N13      1.0000 0.96010  0.69690  0.30028  Biso   1.000  N
  N14      1.0000 0.03990  0.19690  0.19972  Biso   1.000  N
  N15      1.0000 0.03990  0.30310  0.69972  Biso   1.000  N
  N16      1.0000 0.96010  0.80310  0.80028  Biso   1.000  N
  N17      1.0000 0.18690  0.73470  0.32476  Biso   1.000  N
  N18      1.0000 0.81310  0.23470  0.17524  Biso   1.000  N
  N19      1.0000 0.81310  0.26530  0.67524  Biso   1.000  N
  N20      1.0000 0.18690  0.76530  0.82476  Biso   1.000  N
  N21      1.0000 0.79180  0.59580  0.27985  Biso   1.000  N
  N22      1.0000 0.20820  0.09580  0.22015  Biso   1.000  N
  N23      1.0000 0.20820  0.40420  0.72015  Biso   1.000  N
  N24      1.0000 0.79180  0.90420  0.77985  Biso   1.000  N
  H5       1.0000 0.83710  0.54560  0.28760  Biso   1.000  H
  H6       1.0000 0.16290  0.04560  0.21240  Biso   1.000  H
  H7       1.0000 0.16290  0.45440  0.71240  Biso   1.000  H
  H8       1.0000 0.83710  0.95440  0.78760  Biso   1.000  H
  H9       1.0000 0.71390  0.59070  0.26920  Biso   1.000  H
  H10      1.0000 0.28610  0.09070  0.23080  Biso   1.000  H
  H11      1.0000 0.28610  0.40930  0.73080  Biso   1.000  H
  H12      1.0000 0.71390  0.90930  0.76920  Biso   1.000  H
  N25      1.0000 0.39020  0.69450  0.34690  Biso   1.000  N
  N26      1.0000 0.60980  0.19450  0.15310  Biso   1.000  N
  N27      1.0000 0.60980  0.30550  0.65310  Biso   1.000  N
  N28      1.0000 0.39020  0.80550  0.84690  Biso   1.000  N
  H13      1.0000 0.37420  0.63460  0.34410  Biso   1.000  H
  H14      1.0000 0.62580  0.13460  0.15590  Biso   1.000  H
  H15      1.0000 0.62580  0.36540  0.65590  Biso   1.000  H
  H16      1.0000 0.37420  0.86540  0.84410  Biso   1.000  H
  H17      1.0000 0.46340  0.71380  0.35540  Biso   1.000  H
  H18      1.0000 0.53660  0.21380  0.14460  Biso   1.000  H
  H19      1.0000 0.53660  0.28620  0.64460  Biso   1.000  H
  H20      1.0000 0.46340  0.78620  0.85540  Biso   1.000  H
  C1       1.0000 0.02510  0.14350  0.33690  Biso   1.000  C
  C2       1.0000 0.97490  0.64350  0.16310  Biso   1.000  C
  C3       1.0000 0.97490  0.85650  0.66310  Biso   1.000  C
  C4       1.0000 0.02510  0.35650  0.83690  Biso   1.000  C
  C5       1.0000 0.94580  0.21310  0.34980  Biso   1.000  C
  C6       1.0000 0.05420  0.71310  0.15020  Biso   1.000  C
  C7       1.0000 0.05420  0.78690  0.65020  Biso   1.000  C
  C8       1.0000 0.94580  0.28690  0.84980  Biso   1.000  C
  C9       1.0000 0.97760  0.30930  0.36730  Biso   1.000  C
  C10      1.0000 0.02240  0.80930  0.13270  Biso   1.000  C
  C11      1.0000 0.02240  0.69070  0.63270  Biso   1.000  C
  C12      1.0000 0.97760  0.19070  0.86730  Biso   1.000  C
  C13      1.0000 0.89650  0.36770  0.37830  Biso   1.000  C
  C14      1.0000 0.10350  0.86770  0.12170  Biso   1.000  C
  C15      1.0000 0.10350  0.63230  0.62170  Biso   1.000  C
  C16      1.0000 0.89650  0.13230  0.87830  Biso   1.000  C
  H21      1.0000 0.91820  0.43090  0.39090  Biso   1.000  H
  H22      1.0000 0.08180  0.93090  0.10910  Biso   1.000  H
  H23      1.0000 0.08180  0.56910  0.60910  Biso   1.000  H
  H24      1.0000 0.91820  0.06910  0.89090  Biso   1.000  H
  C17      1.0000 0.78430  0.33300  0.37080  Biso   1.000  C
  C18      1.0000 0.21570  0.83300  0.12920  Biso   1.000  C
  C19      1.0000 0.21570  0.66700  0.62920  Biso   1.000  C
  C20      1.0000 0.78430  0.16700  0.87080  Biso   1.000  C
  H25      1.0000 0.73100  0.37290  0.37820  Biso   1.000  H
  H26      1.0000 0.26900  0.87290  0.12180  Biso   1.000  H
  H27      1.0000 0.26900  0.62710  0.62180  Biso   1.000  H
  H28      1.0000 0.73100  0.12710  0.87820  Biso   1.000  H
  C21      1.0000 0.75130  0.24000  0.35240  Biso   1.000  C
  C22      1.0000 0.24870  0.74000  0.14760  Biso   1.000  C
  C23      1.0000 0.24870  0.76000  0.64760  Biso   1.000  C
  C24      1.0000 0.75130  0.26000  0.85240  Biso   1.000  C
  H29      1.0000 0.67550  0.21670  0.34700  Biso   1.000  H
  H30      1.0000 0.32450  0.71670  0.15300  Biso   1.000  H
  H31      1.0000 0.32450  0.78330  0.65300  Biso   1.000  H
  H32      1.0000 0.67550  0.28330  0.84700  Biso   1.000  H
  C25      1.0000 0.83150  0.18100  0.34200  Biso   1.000  C
  C26      1.0000 0.16850  0.68100  0.15800  Biso   1.000  C
  C27      1.0000 0.16850  0.81900  0.65800  Biso   1.000  C
  C28      1.0000 0.83150  0.31900  0.84200  Biso   1.000  C
  H33      1.0000 0.80830  0.11800  0.32950  Biso   1.000  H
  H34      1.0000 0.19170  0.61800  0.17050  Biso   1.000  H
  H35      1.0000 0.19170  0.88200  0.67050  Biso   1.000  H
  H36      1.0000 0.80830  0.38200  0.82950  Biso   1.000  H
  C29      1.0000 0.11050  0.43000  0.36252  Biso   1.000  C
  C30      1.0000 0.88950  0.93000  0.13748  Biso   1.000  C
  C31      1.0000 0.88950  0.57000  0.63748  Biso   1.000  C
  C32      1.0000 0.11050  0.07000  0.86252  Biso   1.000  C
  C33      1.0000 0.24240  0.45360  0.37680  Biso   1.000  C
  C34      1.0000 0.75760  0.95360  0.12320  Biso   1.000  C
  C35      1.0000 0.75760  0.54640  0.62320  Biso   1.000  C
  C36      1.0000 0.24240  0.04640  0.87680  Biso   1.000  C
  C37      1.0000 0.45470  0.40500  0.41840  Biso   1.000  C
  C38      1.0000 0.54530  0.90500  0.08160  Biso   1.000  C
  C39      1.0000 0.54530  0.59500  0.58160  Biso   1.000  C
  C40      1.0000 0.45470  0.09500  0.91840  Biso   1.000  C
  H37      1.0000 0.47930  0.46820  0.43840  Biso   1.000  H
  H38      1.0000 0.52070  0.96820  0.06160  Biso   1.000  H
  H39      1.0000 0.52070  0.53180  0.56160  Biso   1.000  H
  H40      1.0000 0.47930  0.03180  0.93840  Biso   1.000  H
  H41      1.0000 0.45870  0.40320  0.37510  Biso   1.000  H
  H42      1.0000 0.54130  0.90320  0.12490  Biso   1.000  H
  H43      1.0000 0.54130  0.59680  0.62490  Biso   1.000  H
  H44      1.0000 0.45870  0.09680  0.87510  Biso   1.000  H
  C41      1.0000 0.54470  0.33310  0.46920  Biso   1.000  C
  C42      1.0000 0.45530  0.83310  0.03080  Biso   1.000  C
  C43      1.0000 0.45530  0.66690  0.53080  Biso   1.000  C
  C44      1.0000 0.54470  0.16690  0.96920  Biso   1.000  C
  H45      1.0000 0.54100  0.33680  0.51260  Biso   1.000  H
  H46      1.0000 0.45900  0.83680  0.98740  Biso   1.000  H
  H47      1.0000 0.45900  0.66320  0.48740  Biso   1.000  H
  H48      1.0000 0.54100  0.16320  0.01260  Biso   1.000  H
  H49      1.0000 0.62980  0.35010  0.48020  Biso   1.000  H
  H50      1.0000 0.37020  0.85010  0.01980  Biso   1.000  H
  H51      1.0000 0.37020  0.64990  0.51980  Biso   1.000  H
  H52      1.0000 0.62980  0.14990  0.98020  Biso   1.000  H
  C45      1.0000 0.51990  0.23130  0.44340  Biso   1.000  C
  C46      1.0000 0.48010  0.73130  0.05660  Biso   1.000  C
  C47      1.0000 0.48010  0.76870  0.55660  Biso   1.000  C
  C48      1.0000 0.51990  0.26870  0.94340  Biso   1.000  C
  H53      1.0000 0.49800  0.22880  0.39430  Biso   1.000  H
  H54      1.0000 0.50200  0.72880  0.10570  Biso   1.000  H
  H55      1.0000 0.50200  0.77120  0.60570  Biso   1.000  H
  H56      1.0000 0.49800  0.27120  0.89430  Biso   1.000  H
  H57      1.0000 0.59530  0.19330  0.47040  Biso   1.000  H
  H58      1.0000 0.40470  0.69330  0.02960  Biso   1.000  H
  H59      1.0000 0.40470  0.80670  0.52960  Biso   1.000  H
  H60      1.0000 0.59530  0.30670  0.97040  Biso   1.000  H
  C49      1.0000 0.40350  0.09770  0.42170  Biso   1.000  C
  C50      1.0000 0.59650  0.59770  0.07830  Biso   1.000  C
  C51      1.0000 0.59650  0.90230  0.57830  Biso   1.000  C
  C52      1.0000 0.40350  0.40230  0.92170  Biso   1.000  C
  H61      1.0000 0.33770  0.06220  0.42350  Biso   1.000  H
  H62      1.0000 0.66230  0.56220  0.07650  Biso   1.000  H
  H63      1.0000 0.66230  0.93780  0.57650  Biso   1.000  H
  H64      1.0000 0.33770  0.43780  0.92350  Biso   1.000  H
  H65      1.0000 0.48250  0.06500  0.44820  Biso   1.000  H
  H66      1.0000 0.51750  0.56500  0.05180  Biso   1.000  H
  H67      1.0000 0.51750  0.93500  0.55180  Biso   1.000  H
  H68      1.0000 0.48250  0.43500  0.94820  Biso   1.000  H
  H69      1.0000 0.38450  0.10400  0.37370  Biso   1.000  H
  H70      1.0000 0.61550  0.60400  0.12630  Biso   1.000  H
  H71      1.0000 0.61550  0.89600  0.62630  Biso   1.000  H
  H72      1.0000 0.38450  0.39600  0.87370  Biso   1.000  H
  C53      1.0000 0.84230  0.68140  0.28440  Biso   1.000  C
  C54      1.0000 0.15770  0.18140  0.21560  Biso   1.000  C
  C55      1.0000 0.15770  0.31860  0.71560  Biso   1.000  C
  C56      1.0000 0.84230  0.81860  0.78440  Biso   1.000  C
  C57      1.0000 0.88690  0.85100  0.28450  Biso   1.000  C
  C58      1.0000 0.11310  0.35100  0.21550  Biso   1.000  C
  C59      1.0000 0.11310  0.14900  0.71550  Biso   1.000  C
  C60      1.0000 0.88690  0.64900  0.78450  Biso   1.000  C
  H73      1.0000 0.88920  0.91700  0.28300  Biso   1.000  H
  H74      1.0000 0.11080  0.41700  0.21700  Biso   1.000  H
  H75      1.0000 0.11080  0.08300  0.71700  Biso   1.000  H
  H76      1.0000 0.88920  0.58300  0.78300  Biso   1.000  H
  C61      1.0000 0.98470  0.79430  0.30004  Biso   1.000  C
  C62      1.0000 0.01530  0.29430  0.19996  Biso   1.000  C
  C63      1.0000 0.01530  0.20570  0.69996  Biso   1.000  C
  C64      1.0000 0.98470  0.70570  0.80004  Biso   1.000  C
  C65      1.0000 0.11380  0.81450  0.31540  Biso   1.000  C
  C66      1.0000 0.88620  0.31450  0.18460  Biso   1.000  C
  C67      1.0000 0.88620  0.18550  0.68460  Biso   1.000  C
  C68      1.0000 0.11380  0.68550  0.81540  Biso   1.000  C
  C69      1.0000 0.17220  0.89770  0.32130  Biso   1.000  C
  C70      1.0000 0.82780  0.39770  0.17870  Biso   1.000  C
  C71      1.0000 0.82780  0.10230  0.67870  Biso   1.000  C
  C72      1.0000 0.17220  0.60230  0.82130  Biso   1.000  C
  H77      1.0000 0.13530  0.95720  0.31640  Biso   1.000  H
  H78      1.0000 0.86470  0.45720  0.18360  Biso   1.000  H
  H79      1.0000 0.86470  0.04280  0.68360  Biso   1.000  H
  H80      1.0000 0.13530  0.54280  0.81640  Biso   1.000  H
  C73      1.0000 0.30160  0.75720  0.33790  Biso   1.000  C
  C74      1.0000 0.69840  0.25720  0.16210  Biso   1.000  C
  C75      1.0000 0.69840  0.24280  0.66210  Biso   1.000  C
  C76      1.0000 0.30160  0.74280  0.83790  Biso   1.000  C
  O17      1.0000 0.53050  0.59980  0.24310  Biso   1.000  O
  O18      1.0000 0.46950  0.09980  0.25690  Biso   1.000  O
  O19      1.0000 0.46950  0.40020  0.75690  Biso   1.000  O
  O20      1.0000 0.53050  0.90020  0.74310  Biso   1.000  O
  H81      1.0000 0.46700  0.57300  0.21200  Biso   1.000  H
  H82      1.0000 0.53300  0.07300  0.28800  Biso   1.000  H
  H83      1.0000 0.53300  0.42700  0.78800  Biso   1.000  H
  H84      1.0000 0.46700  0.92700  0.71200  Biso   1.000  H
  H85      1.0000 0.54030  0.58060  0.28000  Biso   1.000  H
  H86      1.0000 0.45970  0.08060  0.22000  Biso   1.000  H
  H87      1.0000 0.45970  0.41940  0.72000  Biso   1.000  H
  H88      1.0000 0.54030  0.91940  0.78000  Biso   1.000  H
  O21      1.0000 0.62810  0.76620  0.43110  Biso   1.000  O
  O22      1.0000 0.37190  0.26620  0.06890  Biso   1.000  O
  O23      1.0000 0.37190  0.23380  0.56890  Biso   1.000  O
  O24      1.0000 0.62810  0.73380  0.93110  Biso   1.000  O
  O25      1.0000 0.65410  0.58510  0.42180  Biso   1.000  O
  O26      1.0000 0.34590  0.08510  0.07820  Biso   1.000  O
  O27      1.0000 0.34590  0.41490  0.57820  Biso   1.000  O
  O28      1.0000 0.65410  0.91490  0.92180  Biso   1.000  O
  O29      1.0000 0.84810  0.53890  0.47310  Biso   1.000  O
  O30      1.0000 0.15190  0.03890  0.02690  Biso   1.000  O
  O31      1.0000 0.15190  0.46110  0.52690  Biso   1.000  O
  O32      1.0000 0.84810  0.96110  0.97310  Biso   1.000  O
  O33      1.0000 0.16660  0.73990  0.47050  Biso   1.000  O
  O34      1.0000 0.83340  0.23990  0.02950  Biso   1.000  O
  O35      1.0000 0.83340  0.26010  0.52950  Biso   1.000  O
  O36      1.0000 0.16660  0.76010  0.97050  Biso   1.000  O
  O37      1.0000 0.14910  0.88990  0.47770  Biso   1.000  O
  O38      1.0000 0.85090  0.38990  0.02230  Biso   1.000  O
  O39      1.0000 0.85090  0.11010  0.52230  Biso   1.000  O
  O40      1.0000 0.14910  0.61010  0.97770  Biso   1.000  O
  O41      1.0000 0.69780  0.99370  0.36280  Biso   1.000  O
  O42      1.0000 0.30220  0.49370  0.13720  Biso   1.000  O
  O43      1.0000 0.30220  0.00630  0.63720  Biso   1.000  O
  O44      1.0000 0.69780  0.50630  0.86280  Biso   1.000  O
  O45      1.0000 0.63740  0.95800  0.43610  Biso   1.000  O
  O46      1.0000 0.36260  0.45800  0.06390  Biso   1.000  O
  O47      1.0000 0.36260  0.04200  0.56390  Biso   1.000  O
  O48      1.0000 0.63740  0.54200  0.93610  Biso   1.000  O
  N29      1.0000 0.76970  0.60030  0.44740  Biso   1.000  N
  N30      1.0000 0.23030  0.10030  0.05260  Biso   1.000  N
  N31      1.0000 0.23030  0.39970  0.55260  Biso   1.000  N
  N32      1.0000 0.76970  0.89970  0.94740  Biso   1.000  N
  N33      1.0000 0.10650  0.80950  0.47040  Biso   1.000  N
  N34      1.0000 0.89350  0.30950  0.02960  Biso   1.000  N
  N35      1.0000 0.89350  0.19050  0.52960  Biso   1.000  N
  N36      1.0000 0.10650  0.69050  0.97040  Biso   1.000  N
  N37      1.0000 0.69740  0.94670  0.40830  Biso   1.000  N
  N38      1.0000 0.30260  0.44670  0.09170  Biso   1.000  N
  N39      1.0000 0.30260  0.05330  0.59170  Biso   1.000  N
  N40      1.0000 0.69740  0.55330  0.90830  Biso   1.000  N
  C77      1.0000 0.73540  0.77490  0.43280  Biso   1.000  C
  C78      1.0000 0.26460  0.27490  0.06720  Biso   1.000  C
  C79      1.0000 0.26460  0.22510  0.56720  Biso   1.000  C
  C80      1.0000 0.73540  0.72510  0.93280  Biso   1.000  C
  C81      1.0000 0.81260  0.69590  0.44630  Biso   1.000  C
  C82      1.0000 0.18740  0.19590  0.05370  Biso   1.000  C
  C83      1.0000 0.18740  0.30410  0.55370  Biso   1.000  C
  C84      1.0000 0.81260  0.80410  0.94630  Biso   1.000  C
  C85      1.0000 0.93540  0.70700  0.45860  Biso   1.000  C
  C86      1.0000 0.06460  0.20700  0.04140  Biso   1.000  C
  C87      1.0000 0.06460  0.29300  0.54140  Biso   1.000  C
  C88      1.0000 0.93540  0.79300  0.95860  Biso   1.000  C
  H89      1.0000 0.98710  0.65420  0.46770  Biso   1.000  H
  H90      1.0000 0.01290  0.15420  0.03230  Biso   1.000  H
  H91      1.0000 0.01290  0.34580  0.53230  Biso   1.000  H
  H92      1.0000 0.98710  0.84580  0.96770  Biso   1.000  H
  C89      1.0000 0.98110  0.79720  0.45750  Biso   1.000  C
  C90      1.0000 0.01890  0.29720  0.04250  Biso   1.000  C
  C91      1.0000 0.01890  0.20280  0.54250  Biso   1.000  C
  C92      1.0000 0.98110  0.70280  0.95750  Biso   1.000  C
  C93      1.0000 0.90380  0.87620  0.44400  Biso   1.000  C
  C94      1.0000 0.09620  0.37620  0.05600  Biso   1.000  C
  C95      1.0000 0.09620  0.12380  0.55600  Biso   1.000  C
  C96      1.0000 0.90380  0.62380  0.94400  Biso   1.000  C
  H93      1.0000 0.93440  0.93660  0.44320  Biso   1.000  H
  H94      1.0000 0.06560  0.43660  0.05680  Biso   1.000  H
  H95      1.0000 0.06560  0.06340  0.55680  Biso   1.000  H
  H96      1.0000 0.93440  0.56340  0.94320  Biso   1.000  H
  C97      1.0000 0.78100  0.86510  0.43160  Biso   1.000  C
  C98      1.0000 0.21900  0.36510  0.06840  Biso   1.000  C
  C99      1.0000 0.21900  0.13490  0.56840  Biso   1.000  C
  C100     1.0000 0.78100  0.63490  0.93160  Biso   1.000  C
  O49      1.0000 0.64400  0.75960  0.44000  Biso   1.000  O
  O50      1.0000 0.35600  0.25960  0.06000  Biso   1.000  O
  O51      1.0000 0.35600  0.24040  0.56000  Biso   1.000  O
  O52      1.0000 0.64400  0.74040  0.94000  Biso   1.000  O
  O53      1.0000 0.64870  0.57020  0.39380  Biso   1.000  O
  O54      1.0000 0.35130  0.07020  0.10620  Biso   1.000  O
  O55      1.0000 0.35130  0.42980  0.60620  Biso   1.000  O
  O56      1.0000 0.64870  0.92980  0.89380  Biso   1.000  O
  O57      1.0000 0.81280  0.51290  0.48260  Biso   1.000  O
  O58      1.0000 0.18720  0.01290  0.01740  Biso   1.000  O
  O59      1.0000 0.18720  0.48710  0.51740  Biso   1.000  O
  O60      1.0000 0.81280  0.98710  0.98260  Biso   1.000  O
  O61      1.0000 0.15330  0.65690  0.45780  Biso   1.000  O
  O62      1.0000 0.84670  0.15690  0.04220  Biso   1.000  O
  O63      1.0000 0.84670  0.34310  0.54220  Biso   1.000  O
  O64      1.0000 0.15330  0.84310  0.95780  Biso   1.000  O
  O65      1.0000 0.17000  0.80960  0.46740  Biso   1.000  O
  O66      1.0000 0.83000  0.30960  0.03260  Biso   1.000  O
  O67      1.0000 0.83000  0.19040  0.53260  Biso   1.000  O
  O68      1.0000 0.17000  0.69040  0.96740  Biso   1.000  O
  O69      1.0000 0.65100  0.93100  0.38600  Biso   1.000  O
  O70      1.0000 0.34900  0.43100  0.11400  Biso   1.000  O
  O71      1.0000 0.34900  0.06900  0.61400  Biso   1.000  O
  O72      1.0000 0.65100  0.56900  0.88600  Biso   1.000  O
  O73      1.0000 0.82300  0.99080  0.47220  Biso   1.000  O
  O74      1.0000 0.17700  0.49080  0.02780  Biso   1.000  O
  O75      1.0000 0.17700  0.00920  0.52780  Biso   1.000  O
  O76      1.0000 0.82300  0.50920  0.97220  Biso   1.000  O
  N41      1.0000 0.75400  0.57230  0.44080  Biso   1.000  N
  N42      1.0000 0.24600  0.07230  0.05920  Biso   1.000  N
  N43      1.0000 0.24600  0.42770  0.55920  Biso   1.000  N
  N44      1.0000 0.75400  0.92770  0.94080  Biso   1.000  N
  N45      1.0000 0.11550  0.73500  0.46110  Biso   1.000  N
  N46      1.0000 0.88450  0.23500  0.03890  Biso   1.000  N
  N47      1.0000 0.88450  0.26500  0.53890  Biso   1.000  N
  N48      1.0000 0.11550  0.76500  0.96110  Biso   1.000  N
  N49      1.0000 0.75900  0.92820  0.43260  Biso   1.000  N
  N50      1.0000 0.24100  0.42820  0.06740  Biso   1.000  N
  N51      1.0000 0.24100  0.07180  0.56740  Biso   1.000  N
  N52      1.0000 0.75900  0.57180  0.93260  Biso   1.000  N
  C101     1.0000 0.75570  0.75390  0.44680  Biso   1.000  C
  C102     1.0000 0.24430  0.25390  0.05320  Biso   1.000  C
  C103     1.0000 0.24430  0.24610  0.55320  Biso   1.000  C
  C104     1.0000 0.75570  0.74610  0.94680  Biso   1.000  C
  C105     1.0000 0.80930  0.66510  0.45110  Biso   1.000  C
  C106     1.0000 0.19070  0.16510  0.04890  Biso   1.000  C
  C107     1.0000 0.19070  0.33490  0.54890  Biso   1.000  C
  C108     1.0000 0.80930  0.83490  0.95110  Biso   1.000  C
  C109     1.0000 0.92770  0.65820  0.45640  Biso   1.000  C
  C110     1.0000 0.07230  0.15820  0.04360  Biso   1.000  C
  C111     1.0000 0.07230  0.34180  0.54360  Biso   1.000  C
  C112     1.0000 0.92770  0.84180  0.95640  Biso   1.000  C
  H97      1.0000 0.96350  0.59890  0.45930  Biso   1.000  H
  H98      1.0000 0.03650  0.09890  0.04070  Biso   1.000  H
  H99      1.0000 0.03650  0.40110  0.54070  Biso   1.000  H
  H100     1.0000 0.96350  0.90110  0.95930  Biso   1.000  H
  C113     1.0000 0.99250  0.74010  0.45740  Biso   1.000  C
  C114     1.0000 0.00750  0.24010  0.04260  Biso   1.000  C
  C115     1.0000 0.00750  0.25990  0.54260  Biso   1.000  C
  C116     1.0000 0.99250  0.75990  0.95740  Biso   1.000  C
  C117     1.0000 0.93900  0.82890  0.45300  Biso   1.000  C
  C118     1.0000 0.06100  0.32890  0.04700  Biso   1.000  C
  C119     1.0000 0.06100  0.17110  0.54700  Biso   1.000  C
  C120     1.0000 0.93900  0.67110  0.95300  Biso   1.000  C
  H101     1.0000 0.98240  0.88360  0.45370  Biso   1.000  H
  H102     1.0000 0.01760  0.38360  0.04630  Biso   1.000  H
  H103     1.0000 0.01760  0.11640  0.54630  Biso   1.000  H
  H104     1.0000 0.98240  0.61640  0.95370  Biso   1.000  H
  C121     1.0000 0.82060  0.83580  0.44770  Biso   1.000  C
  C122     1.0000 0.17940  0.33580  0.05230  Biso   1.000  C
  C123     1.0000 0.17940  0.16420  0.55230  Biso   1.000  C
  C124     1.0000 0.82060  0.66420  0.94770  Biso   1.000  C
  C125     1.0000 0.52630  0.31730  0.42150  Biso   1.000  C
  C126     1.0000 0.47370  0.81730  0.07850  Biso   1.000  C
  C127     1.0000 0.47370  0.68270  0.57850  Biso   1.000  C
  C128     1.0000 0.52630  0.18270  0.92150  Biso   1.000  C
  C129     1.0000 0.51100  0.24020  0.46520  Biso   1.000  C
  C130     1.0000 0.48900  0.74020  0.03480  Biso   1.000  C
  C131     1.0000 0.48900  0.75980  0.53480  Biso   1.000  C
  C132     1.0000 0.51100  0.25980  0.96520  Biso   1.000  C
  C133     1.0000 0.40500  0.09360  0.45720  Biso   1.000  C
  C134     1.0000 0.59500  0.59360  0.04280  Biso   1.000  C
  C135     1.0000 0.59500  0.90640  0.54280  Biso   1.000  C
  C136     1.0000 0.40500  0.40640  0.95720  Biso   1.000  C
  H105     1.0000 0.49870  0.43810  0.46310  Biso   1.000  H
  H106     1.0000 0.50130  0.93810  0.03690  Biso   1.000  H
  H107     1.0000 0.50130  0.56190  0.53690  Biso   1.000  H
  H108     1.0000 0.49870  0.06190  0.96310  Biso   1.000  H
  H109     1.0000 0.45260  0.44680  0.38250  Biso   1.000  H
  H110     1.0000 0.54740  0.94680  0.11750  Biso   1.000  H
  H111     1.0000 0.54740  0.55320  0.61750  Biso   1.000  H
  H112     1.0000 0.45260  0.05320  0.88250  Biso   1.000  H
  H113     1.0000 0.61520  0.33280  0.44170  Biso   1.000  H
  H114     1.0000 0.38480  0.83280  0.05830  Biso   1.000  H
  H115     1.0000 0.38480  0.66720  0.55830  Biso   1.000  H
  H116     1.0000 0.61520  0.16720  0.94170  Biso   1.000  H
  H117     1.0000 0.49650  0.29390  0.37410  Biso   1.000  H
  H118     1.0000 0.50350  0.79390  0.12590  Biso   1.000  H
  H119     1.0000 0.50350  0.70610  0.62590  Biso   1.000  H
  H120     1.0000 0.49650  0.20610  0.87410  Biso   1.000  H
  H121     1.0000 0.58320  0.19770  0.48340  Biso   1.000  H
  H122     1.0000 0.41680  0.69770  0.01660  Biso   1.000  H
  H123     1.0000 0.41680  0.80230  0.51660  Biso   1.000  H
  H124     1.0000 0.58320  0.30230  0.98340  Biso   1.000  H
  H125     1.0000 0.50850  0.26880  0.50490  Biso   1.000  H
  H126     1.0000 0.49150  0.76880  0.99510  Biso   1.000  H
  H127     1.0000 0.49150  0.73120  0.49510  Biso   1.000  H
  H128     1.0000 0.50850  0.23120  0.00490  Biso   1.000  H
  H129     1.0000 0.32520  0.06140  0.43580  Biso   1.000  H
  H130     1.0000 0.67480  0.56140  0.06420  Biso   1.000  H
  H131     1.0000 0.67480  0.93860  0.56420  Biso   1.000  H
  H132     1.0000 0.32520  0.43860  0.93580  Biso   1.000  H
  H133     1.0000 0.43280  0.10450  0.50610  Biso   1.000  H
  H134     1.0000 0.56720  0.60450  0.99390  Biso   1.000  H
  H135     1.0000 0.56720  0.89550  0.49390  Biso   1.000  H
  H136     1.0000 0.43280  0.39550  0.00610  Biso   1.000  H
  H137     1.0000 0.46630  0.05500  0.45300  Biso   1.000  H
  H138     1.0000 0.53370  0.55500  0.04700  Biso   1.000  H
  H139     1.0000 0.53370  0.94500  0.54700  Biso   1.000  H
  H140     1.0000 0.46630  0.44500  0.95300  Biso   1.000  H
  H141     1.0000 0.38780  0.17170  0.37990  Biso   1.000  H
  H142     1.0000 0.61220  0.67170  0.12010  Biso   1.000  H
  H143     1.0000 0.61220  0.82830  0.62010  Biso   1.000  H
  H144     1.0000 0.38780  0.32830  0.87990  Biso   1.000  H
  N53      1.0000 0.39200  0.18450  0.42190  Biso   1.000  N
  N54      1.0000 0.60800  0.68450  0.07810  Biso   1.000  N
  N55      1.0000 0.60800  0.81550  0.57810  Biso   1.000  N
  N56      1.0000 0.39200  0.31550  0.92190  Biso   1.000  N
