data_image0
_cell_length_a       9.7779
_cell_length_b       9.8023
_cell_length_c       17.679
_cell_angle_alpha    103.344
_cell_angle_beta     93.076
_cell_angle_gamma    101.911

_symmetry_space_group_name_H-M    "P 1"
_symmetry_int_tables_number       1

loop_
  _symmetry_equiv_pos_as_xyz
  'x, y, z'

loop_
  _atom_site_label
  _atom_site_occupancy
  _atom_site_fract_x
  _atom_site_fract_y
  _atom_site_fract_z
  _atom_site_thermal_displace_type
  _atom_site_B_iso_or_equiv
  _atom_site_type_symbol
  Cu1      1.0000 0.02094  0.37058  0.46951  Biso   1.000  Cu
  Cu2      1.0000 0.97906  0.62942  0.53049  Biso   1.000  Cu
  Cu3      1.0000 0.90579  0.99315  0.05072  Biso   1.000  Cu
  Cu4      1.0000 0.09421  0.00685  0.94928  Biso   1.000  Cu
  O1       1.0000 0.21020  0.47510  0.45750  Biso   1.000  O
  O2       1.0000 0.78980  0.52490  0.54250  Biso   1.000  O
  O3       1.0000 0.17500  0.69140  0.51110  Biso   1.000  O
  O4       1.0000 0.82500  0.30860  0.48890  Biso   1.000  O
  O5       1.0000 0.94800  0.40220  0.37089  Biso   1.000  O
  O6       1.0000 0.05200  0.59780  0.62911  Biso   1.000  O
  O7       1.0000 0.91110  0.61910  0.42185  Biso   1.000  O
  O8       1.0000 0.08890  0.38090  0.57815  Biso   1.000  O
  O9       1.0000 0.85640  0.15130  0.01229  Biso   1.000  O
  O10      1.0000 0.14360  0.84870  0.98771  Biso   1.000  O
  O11      1.0000 0.01320  0.15900  0.92510  Biso   1.000  O
  O12      1.0000 0.98680  0.84100  0.07490  Biso   1.000  O
  O13      1.0000 0.05010  0.13560  0.12653  Biso   1.000  O
  O14      1.0000 0.94990  0.86440  0.87347  Biso   1.000  O
  O15      1.0000 0.20750  0.14650  0.04100  Biso   1.000  O
  O16      1.0000 0.79250  0.85350  0.95900  Biso   1.000  O
  N1       1.0000 0.05770  0.16090  0.41930  Biso   1.000  N
  N2       1.0000 0.94230  0.83910  0.58070  Biso   1.000  N
  N3       1.0000 0.73400  0.97440  0.12280  Biso   1.000  N
  N4       1.0000 0.26600  0.02560  0.87720  Biso   1.000  N
  C1       1.0000 0.03050  0.10110  0.34340  Biso   1.000  C
  C2       1.0000 0.96950  0.89890  0.65660  Biso   1.000  C
  H1       1.0000 0.98160  0.14540  0.31330  Biso   1.000  H
  H2       1.0000 0.01840  0.85460  0.68670  Biso   1.000  H
  C3       1.0000 0.06910  0.97930  0.30640  Biso   1.000  C
  C4       1.0000 0.93090  0.02070  0.69360  Biso   1.000  C
  H3       1.0000 0.04740  0.94290  0.25270  Biso   1.000  H
  H4       1.0000 0.95260  0.05710  0.74730  Biso   1.000  H
  C5       1.0000 0.14040  0.91080  0.34920  Biso   1.000  C
  C6       1.0000 0.85960  0.08920  0.65080  Biso   1.000  C
  C7       1.0000 0.16610  0.96840  0.42720  Biso   1.000  C
  C8       1.0000 0.83390  0.03160  0.57280  Biso   1.000  C
  H5       1.0000 0.21170  0.92350  0.45850  Biso   1.000  H
  H6       1.0000 0.78830  0.07650  0.54150  Biso   1.000  H
  C9       1.0000 0.12500  0.09360  0.46080  Biso   1.000  C
  C10      1.0000 0.87500  0.90640  0.53920  Biso   1.000  C
  H7       1.0000 0.14540  0.13190  0.51440  Biso   1.000  H
  H8       1.0000 0.85460  0.86810  0.48560  Biso   1.000  H
  C11      1.0000 0.19310  0.77980  0.31100  Biso   1.000  C
  C12      1.0000 0.80690  0.22020  0.68900  Biso   1.000  C
  H9       1.0000 0.19850  0.72200  0.34830  Biso   1.000  H
  H10      1.0000 0.80150  0.27800  0.65170  Biso   1.000  H
  H11      1.0000 0.12580  0.72220  0.26720  Biso   1.000  H
  H12      1.0000 0.87420  0.27780  0.73280  Biso   1.000  H
  C13      1.0000 0.33500  0.81580  0.28220  Biso   1.000  C
  C14      1.0000 0.66500  0.18420  0.71780  Biso   1.000  C
  H13      1.0000 0.40490  0.84030  0.32710  Biso   1.000  H
  H14      1.0000 0.59510  0.15970  0.67290  Biso   1.000  H
  H15      1.0000 0.34920  0.72850  0.24770  Biso   1.000  H
  H16      1.0000 0.65080  0.27150  0.75230  Biso   1.000  H
  C15      1.0000 0.36390  0.92230  0.24390  Biso   1.000  C
  C16      1.0000 0.63610  0.07770  0.75610  Biso   1.000  C
  H17      1.0000 0.36460  0.01270  0.28080  Biso   1.000  H
  H18      1.0000 0.63540  0.98730  0.71920  Biso   1.000  H
  H19      1.0000 0.28700  0.90600  0.20360  Biso   1.000  H
  H20      1.0000 0.71300  0.09400  0.79640  Biso   1.000  H
  C17      1.0000 0.72800  0.92450  0.17820  Biso   1.000  C
  C18      1.0000 0.27200  0.07550  0.82180  Biso   1.000  C
  H21      1.0000 0.80680  0.89460  0.19380  Biso   1.000  H
  H22      1.0000 0.19320  0.10540  0.80620  Biso   1.000  H
  C19      1.0000 0.61220  0.90650  0.22260  Biso   1.000  C
  C20      1.0000 0.38780  0.09350  0.77740  Biso   1.000  C
  H23      1.0000 0.61990  0.86810  0.26560  Biso   1.000  H
  H24      1.0000 0.38010  0.13190  0.73440  Biso   1.000  H
  C21      1.0000 0.50050  0.94040  0.20590  Biso   1.000  C
  C22      1.0000 0.49950  0.05960  0.79410  Biso   1.000  C
  C23      1.0000 0.50100  0.00010  0.14290  Biso   1.000  C
  C24      1.0000 0.49900  0.99990  0.85710  Biso   1.000  C
  H25      1.0000 0.42160  0.02850  0.12670  Biso   1.000  H
  H26      1.0000 0.57840  0.97150  0.87330  Biso   1.000  H
  C25      1.0000 0.61890  0.01810  0.10350  Biso   1.000  C
  C26      1.0000 0.38110  0.98190  0.89650  Biso   1.000  C
  H27      1.0000 0.61840  0.06210  0.06220  Biso   1.000  H
  H28      1.0000 0.38160  0.93790  0.93780  Biso   1.000  H
  C27      1.0000 0.25070  0.60790  0.48360  Biso   1.000  C
  C28      1.0000 0.74930  0.39210  0.51640  Biso   1.000  C
  C29      1.0000 0.40230  0.67570  0.48330  Biso   1.000  C
  C30      1.0000 0.59770  0.32430  0.51670  Biso   1.000  C
  C31      1.0000 0.48240  0.59760  0.43020  Biso   1.000  C
  C32      1.0000 0.51760  0.40240  0.56980  Biso   1.000  C
  H29      1.0000 0.58070  0.63140  0.44830  Biso   1.000  H
  H30      1.0000 0.41930  0.36860  0.55170  Biso   1.000  H
  H31      1.0000 0.46580  0.61250  0.37910  Biso   1.000  H
  H32      1.0000 0.53420  0.38750  0.62090  Biso   1.000  H
  H33      1.0000 0.45420  0.49680  0.42800  Biso   1.000  H
  H34      1.0000 0.54580  0.50320  0.57200  Biso   1.000  H
  C33      1.0000 0.46120  0.80590  0.53330  Biso   1.000  C
  C34      1.0000 0.53880  0.19410  0.46670  Biso   1.000  C
  H35      1.0000 0.55600  0.84700  0.53380  Biso   1.000  H
  H36      1.0000 0.44400  0.15300  0.46620  Biso   1.000  H
  H37      1.0000 0.40650  0.85360  0.56680  Biso   1.000  H
  H38      1.0000 0.59350  0.14640  0.43320  Biso   1.000  H
  C35      1.0000 0.90250  0.51020  0.36640  Biso   1.000  C
  C36      1.0000 0.09750  0.48980  0.63360  Biso   1.000  C
  C37      1.0000 0.83390  0.51270  0.28990  Biso   1.000  C
  C38      1.0000 0.16610  0.48730  0.71010  Biso   1.000  C
  C39      1.0000 0.78490  0.62690  0.28080  Biso   1.000  C
  C40      1.0000 0.21510  0.37310  0.71920  Biso   1.000  C
  H39      1.0000 0.73740  0.62440  0.23330  Biso   1.000  H
  H40      1.0000 0.26260  0.37560  0.76670  Biso   1.000  H
  H41      1.0000 0.79840  0.70850  0.32200  Biso   1.000  H
  H42      1.0000 0.20160  0.29150  0.67800  Biso   1.000  H
  C41      1.0000 0.81540  0.38290  0.22730  Biso   1.000  C
  C42      1.0000 0.18460  0.61710  0.77270  Biso   1.000  C
  H43      1.0000 0.77440  0.39820  0.18030  Biso   1.000  H
  H44      1.0000 0.22560  0.60180  0.81970  Biso   1.000  H
  H45      1.0000 0.75460  0.30470  0.24150  Biso   1.000  H
  H46      1.0000 0.24540  0.69530  0.75850  Biso   1.000  H
  H47      1.0000 0.90510  0.36010  0.21870  Biso   1.000  H
  H48      1.0000 0.09490  0.63990  0.78130  Biso   1.000  H
  C43      1.0000 0.91710  0.20280  0.96110  Biso   1.000  C
  C44      1.0000 0.08290  0.79720  0.03890  Biso   1.000  C
  C45      1.0000 0.87100  0.32810  0.94330  Biso   1.000  C
  C46      1.0000 0.12900  0.67190  0.05670  Biso   1.000  C
  C47      1.0000 0.94270  0.40230  0.89770  Biso   1.000  C
  C48      1.0000 0.05730  0.59770  0.10230  Biso   1.000  C
  H49      1.0000 0.91460  0.48170  0.88720  Biso   1.000  H
  H50      1.0000 0.08540  0.51830  0.11280  Biso   1.000  H
  H51      1.0000 0.02060  0.37440  0.87650  Biso   1.000  H
  H52      1.0000 0.97940  0.62560  0.12350  Biso   1.000  H
  C49      1.0000 0.74600  0.36740  0.97870  Biso   1.000  C
  C50      1.0000 0.25400  0.63260  0.02130  Biso   1.000  C
  H53      1.0000 0.73640  0.45840  0.97030  Biso   1.000  H
  H54      1.0000 0.26360  0.54160  0.02970  Biso   1.000  H
  H55      1.0000 0.75720  0.37420  0.03380  Biso   1.000  H
  H56      1.0000 0.24280  0.62580  0.96620  Biso   1.000  H
  H57      1.0000 0.66340  0.29490  0.95500  Biso   1.000  H
  H58      1.0000 0.33660  0.70510  0.04500  Biso   1.000  H
  C51      1.0000 0.16880  0.18610  0.10750  Biso   1.000  C
  C52      1.0000 0.83120  0.81390  0.89250  Biso   1.000  C
  C53      1.0000 0.26700  0.30000  0.16870  Biso   1.000  C
  C54      1.0000 0.73300  0.70000  0.83130  Biso   1.000  C
  C55      1.0000 0.23050  0.34750  0.24020  Biso   1.000  C
  C56      1.0000 0.76950  0.65250  0.75980  Biso   1.000  C
  H59      1.0000 0.29250  0.42080  0.27670  Biso   1.000  H
  H60      1.0000 0.70750  0.57920  0.72330  Biso   1.000  H
  H61      1.0000 0.14310  0.30730  0.25340  Biso   1.000  H
  H62      1.0000 0.85690  0.69270  0.74660  Biso   1.000  H
  C57      1.0000 0.40190  0.35740  0.14350  Biso   1.000  C
  C58      1.0000 0.59810  0.64260  0.85650  Biso   1.000  C
  H63      1.0000 0.44920  0.44360  0.18150  Biso   1.000  H
  H64      1.0000 0.55080  0.55640  0.81850  Biso   1.000  H
  H65      1.0000 0.38660  0.37900  0.09390  Biso   1.000  H
  H66      1.0000 0.61340  0.62100  0.90610  Biso   1.000  H
  H67      1.0000 0.45860  0.28730  0.13860  Biso   1.000  H
  H68      1.0000 0.54140  0.71270  0.86140  Biso   1.000  H
