data_image0
_cell_length_a       16.194
_cell_length_b       18.476
_cell_length_c       8.9306
_cell_angle_alpha    90
_cell_angle_beta     91.295
_cell_angle_gamma    90

_symmetry_space_group_name_H-M    "P 1"
_symmetry_int_tables_number       1

loop_
  _symmetry_equiv_pos_as_xyz
  'x, y, z'

loop_
  _atom_site_label
  _atom_site_occupancy
  _atom_site_fract_x
  _atom_site_fract_y
  _atom_site_fract_z
  _atom_site_thermal_displace_type
  _atom_site_B_iso_or_equiv
  _atom_site_type_symbol
  Cu1      1.0000 0.44637  0.01291  0.88927  Biso   1.000  Cu
  Cu2      1.0000 0.55363  0.51291  0.61073  Biso   1.000  Cu
  Cu3      1.0000 0.55363  0.98709  0.11073  Biso   1.000  Cu
  Cu4      1.0000 0.44637  0.48709  0.38927  Biso   1.000  Cu
  Cu5      1.0000 0.00000  0.50000  0.50000  Biso   1.000  Cu
  Cu6      1.0000 0.00000  0.00000  0.00000  Biso   1.000  Cu
  N1       1.0000 0.37097  0.02867  0.68960  Biso   1.000  N
  N2       1.0000 0.62903  0.52867  0.81040  Biso   1.000  N
  N3       1.0000 0.62903  0.97133  0.31040  Biso   1.000  N
  N4       1.0000 0.37097  0.47133  0.18960  Biso   1.000  N
  N5       1.0000 0.04910  0.40863  0.41920  Biso   1.000  N
  N6       1.0000 0.95090  0.90863  0.08080  Biso   1.000  N
  N7       1.0000 0.95090  0.59137  0.58080  Biso   1.000  N
  N8       1.0000 0.04910  0.09137  0.91920  Biso   1.000  N
  O1       1.0000 0.36210  0.97018  0.01700  Biso   1.000  O
  O2       1.0000 0.63790  0.47018  0.48300  Biso   1.000  O
  O3       1.0000 0.63790  0.02982  0.98300  Biso   1.000  O
  O4       1.0000 0.36210  0.52982  0.51700  Biso   1.000  O
  O5       1.0000 0.45357  0.94525  0.19960  Biso   1.000  O
  O6       1.0000 0.54643  0.44525  0.30040  Biso   1.000  O
  O7       1.0000 0.54643  0.05475  0.80040  Biso   1.000  O
  O8       1.0000 0.45357  0.55475  0.69960  Biso   1.000  O
  O9       1.0000 0.47995  0.91459  0.83230  Biso   1.000  O
  O10      1.0000 0.52005  0.41459  0.66770  Biso   1.000  O
  O11      1.0000 0.52005  0.08541  0.16770  Biso   1.000  O
  O12      1.0000 0.47995  0.58541  0.33230  Biso   1.000  O
  O13      1.0000 0.57242  0.89229  0.01450  Biso   1.000  O
  O14      1.0000 0.42758  0.39229  0.48550  Biso   1.000  O
  O15      1.0000 0.42758  0.10771  0.98550  Biso   1.000  O
  O16      1.0000 0.57242  0.60771  0.51450  Biso   1.000  O
  O17      1.0000 0.91641  0.44222  0.60170  Biso   1.000  O
  O18      1.0000 0.08359  0.94222  0.89830  Biso   1.000  O
  O19      1.0000 0.08359  0.55778  0.39830  Biso   1.000  O
  O20      1.0000 0.91641  0.05778  0.10170  Biso   1.000  O
  O21      1.0000 0.01710  0.45460  0.76990  Biso   1.000  O
  O22      1.0000 0.98290  0.95460  0.73010  Biso   1.000  O
  O23      1.0000 0.98290  0.54540  0.23010  Biso   1.000  O
  O24      1.0000 0.01710  0.04540  0.26990  Biso   1.000  O
  C1       1.0000 0.40320  0.05808  0.56690  Biso   1.000  C
  C2       1.0000 0.59680  0.55808  0.93310  Biso   1.000  C
  C3       1.0000 0.59680  0.94192  0.43310  Biso   1.000  C
  C4       1.0000 0.40320  0.44192  0.06690  Biso   1.000  C
  H1       1.0000 0.45990  0.06600  0.56590  Biso   1.000  H
  H2       1.0000 0.54010  0.56600  0.93410  Biso   1.000  H
  H3       1.0000 0.54010  0.93400  0.43410  Biso   1.000  H
  H4       1.0000 0.45990  0.43400  0.06590  Biso   1.000  H
  C5       1.0000 0.35700  0.07704  0.44320  Biso   1.000  C
  C6       1.0000 0.64300  0.57704  0.05680  Biso   1.000  C
  C7       1.0000 0.64300  0.92296  0.55680  Biso   1.000  C
  C8       1.0000 0.35700  0.42296  0.94320  Biso   1.000  C
  H5       1.0000 0.38240  0.09740  0.36090  Biso   1.000  H
  H6       1.0000 0.61760  0.59740  0.13910  Biso   1.000  H
  H7       1.0000 0.61760  0.90260  0.63910  Biso   1.000  H
  H8       1.0000 0.38240  0.40260  0.86090  Biso   1.000  H
  C9       1.0000 0.27300  0.06612  0.44010  Biso   1.000  C
  C10      1.0000 0.72700  0.56612  0.05990  Biso   1.000  C
  C11      1.0000 0.72700  0.93388  0.55990  Biso   1.000  C
  C12      1.0000 0.27300  0.43388  0.94010  Biso   1.000  C
  C13      1.0000 0.24060  0.03388  0.56380  Biso   1.000  C
  C14      1.0000 0.75940  0.53388  0.93620  Biso   1.000  C
  C15      1.0000 0.75940  0.96612  0.43620  Biso   1.000  C
  C16      1.0000 0.24060  0.46612  0.06380  Biso   1.000  C
  H9       1.0000 0.18430  0.02390  0.56600  Biso   1.000  H
  H10      1.0000 0.81570  0.52390  0.93400  Biso   1.000  H
  H11      1.0000 0.81570  0.97610  0.43400  Biso   1.000  H
  H12      1.0000 0.18430  0.47610  0.06600  Biso   1.000  H
  C17      1.0000 0.29050  0.01610  0.68460  Biso   1.000  C
  C18      1.0000 0.70950  0.51610  0.81540  Biso   1.000  C
  C19      1.0000 0.70950  0.98390  0.31540  Biso   1.000  C
  C20      1.0000 0.29050  0.48390  0.18460  Biso   1.000  C
  H13      1.0000 0.26660  0.99420  0.76680  Biso   1.000  H
  H14      1.0000 0.73340  0.49420  0.73320  Biso   1.000  H
  H15      1.0000 0.73340  0.00580  0.23320  Biso   1.000  H
  H16      1.0000 0.26660  0.50580  0.26680  Biso   1.000  H
  C21      1.0000 0.22010  0.09435  0.31370  Biso   1.000  C
  C22      1.0000 0.77990  0.59435  0.18630  Biso   1.000  C
  C23      1.0000 0.77990  0.90565  0.68630  Biso   1.000  C
  C24      1.0000 0.22010  0.40565  0.81370  Biso   1.000  C
  H17      1.0000 0.17430  0.06170  0.29380  Biso   1.000  H
  H18      1.0000 0.82570  0.56170  0.20620  Biso   1.000  H
  H19      1.0000 0.82570  0.93830  0.70620  Biso   1.000  H
  H20      1.0000 0.17430  0.43830  0.79380  Biso   1.000  H
  H21      1.0000 0.25220  0.09820  0.22360  Biso   1.000  H
  H22      1.0000 0.74780  0.59820  0.27640  Biso   1.000  H
  H23      1.0000 0.74780  0.90180  0.77640  Biso   1.000  H
  H24      1.0000 0.25220  0.40180  0.72360  Biso   1.000  H
  C25      1.0000 0.18740  0.17000  0.35900  Biso   1.000  C
  C26      1.0000 0.81260  0.67000  0.14100  Biso   1.000  C
  C27      1.0000 0.81260  0.83000  0.64100  Biso   1.000  C
  C28      1.0000 0.18740  0.33000  0.85900  Biso   1.000  C
  H25      1.0000 0.14990  0.16390  0.44130  Biso   1.000  H
  H26      1.0000 0.85010  0.66390  0.05870  Biso   1.000  H
  H27      1.0000 0.85010  0.83610  0.55870  Biso   1.000  H
  H28      1.0000 0.14990  0.33610  0.94130  Biso   1.000  H
  H29      1.0000 0.23360  0.19890  0.39540  Biso   1.000  H
  H30      1.0000 0.76640  0.69890  0.10460  Biso   1.000  H
  H31      1.0000 0.76640  0.80110  0.60460  Biso   1.000  H
  H32      1.0000 0.23360  0.30110  0.89540  Biso   1.000  H
  C29      1.0000 0.14430  0.21010  0.23900  Biso   1.000  C
  C30      1.0000 0.85570  0.71010  0.26100  Biso   1.000  C
  C31      1.0000 0.85570  0.78990  0.76100  Biso   1.000  C
  C32      1.0000 0.14430  0.28990  0.73900  Biso   1.000  C
  H33      1.0000 0.09990  0.18070  0.19680  Biso   1.000  H
  H34      1.0000 0.90010  0.68070  0.30320  Biso   1.000  H
  H35      1.0000 0.90010  0.81930  0.80320  Biso   1.000  H
  H36      1.0000 0.09990  0.31930  0.69680  Biso   1.000  H
  H37      1.0000 0.18250  0.22090  0.15990  Biso   1.000  H
  H38      1.0000 0.81750  0.72090  0.34010  Biso   1.000  H
  H39      1.0000 0.81750  0.77910  0.84010  Biso   1.000  H
  H40      1.0000 0.18250  0.27910  0.65990  Biso   1.000  H
  C33      1.0000 0.10870  0.28080  0.30020  Biso   1.000  C
  C34      1.0000 0.89130  0.78080  0.19980  Biso   1.000  C
  C35      1.0000 0.89130  0.71920  0.69980  Biso   1.000  C
  C36      1.0000 0.10870  0.21920  0.80020  Biso   1.000  C
  C37      1.0000 0.16090  0.33860  0.33610  Biso   1.000  C
  C38      1.0000 0.83910  0.83860  0.16390  Biso   1.000  C
  C39      1.0000 0.83910  0.66140  0.66390  Biso   1.000  C
  C40      1.0000 0.16090  0.16140  0.83610  Biso   1.000  C
  H41      1.0000 0.21730  0.33490  0.31980  Biso   1.000  H
  H42      1.0000 0.78270  0.83490  0.18020  Biso   1.000  H
  H43      1.0000 0.78270  0.66510  0.68020  Biso   1.000  H
  H44      1.0000 0.21730  0.16510  0.81980  Biso   1.000  H
  C41      1.0000 0.12860  0.40190  0.39660  Biso   1.000  C
  C42      1.0000 0.87140  0.90190  0.10340  Biso   1.000  C
  C43      1.0000 0.87140  0.59810  0.60340  Biso   1.000  C
  C44      1.0000 0.12860  0.09810  0.89660  Biso   1.000  C
  H45      1.0000 0.16390  0.44000  0.42140  Biso   1.000  H
  H46      1.0000 0.83610  0.94000  0.07860  Biso   1.000  H
  H47      1.0000 0.83610  0.56000  0.57860  Biso   1.000  H
  H48      1.0000 0.16390  0.06000  0.92140  Biso   1.000  H
  C45      1.0000 0.00120  0.35150  0.38540  Biso   1.000  C
  C46      1.0000 0.99880  0.85150  0.11460  Biso   1.000  C
  C47      1.0000 0.99880  0.64850  0.61460  Biso   1.000  C
  C48      1.0000 0.00120  0.14850  0.88540  Biso   1.000  C
  H49      1.0000 0.94510  0.35490  0.40480  Biso   1.000  H
  H50      1.0000 0.05490  0.85490  0.09520  Biso   1.000  H
  H51      1.0000 0.05490  0.64510  0.59520  Biso   1.000  H
  H52      1.0000 0.94510  0.14510  0.90480  Biso   1.000  H
  C49      1.0000 0.02900  0.28890  0.32460  Biso   1.000  C
  C50      1.0000 0.97100  0.78890  0.17540  Biso   1.000  C
  C51      1.0000 0.97100  0.71110  0.67540  Biso   1.000  C
  C52      1.0000 0.02900  0.21110  0.82460  Biso   1.000  C
  H53      1.0000 0.99210  0.25200  0.30020  Biso   1.000  H
  H54      1.0000 0.00790  0.75200  0.19980  Biso   1.000  H
  H55      1.0000 0.00790  0.74800  0.69980  Biso   1.000  H
  H56      1.0000 0.99210  0.24800  0.80020  Biso   1.000  H
  C53      1.0000 0.38270  0.94302  0.14140  Biso   1.000  C
  C54      1.0000 0.61730  0.44302  0.35860  Biso   1.000  C
  C55      1.0000 0.61730  0.05698  0.85860  Biso   1.000  C
  C56      1.0000 0.38270  0.55698  0.64140  Biso   1.000  C
  C57      1.0000 0.31860  0.90478  0.22880  Biso   1.000  C
  C58      1.0000 0.68140  0.40478  0.27120  Biso   1.000  C
  C59      1.0000 0.68140  0.09522  0.77120  Biso   1.000  C
  C60      1.0000 0.31860  0.59522  0.72880  Biso   1.000  C
  C61      1.0000 0.24100  0.90130  0.17110  Biso   1.000  C
  C62      1.0000 0.75900  0.40130  0.32890  Biso   1.000  C
  C63      1.0000 0.75900  0.09870  0.82890  Biso   1.000  C
  C64      1.0000 0.24100  0.59870  0.67110  Biso   1.000  C
  H57      1.0000 0.19960  0.87900  0.22490  Biso   1.000  H
  H58      1.0000 0.80040  0.37900  0.27510  Biso   1.000  H
  H59      1.0000 0.80040  0.12100  0.77510  Biso   1.000  H
  H60      1.0000 0.19960  0.62100  0.72490  Biso   1.000  H
  H61      1.0000 0.22890  0.92120  0.07750  Biso   1.000  H
  H62      1.0000 0.77110  0.42120  0.42250  Biso   1.000  H
  H63      1.0000 0.77110  0.07880  0.92250  Biso   1.000  H
  H64      1.0000 0.22890  0.57880  0.57750  Biso   1.000  H
  C65      1.0000 0.34160  0.87510  0.37330  Biso   1.000  C
  C66      1.0000 0.65840  0.37510  0.12670  Biso   1.000  C
  C67      1.0000 0.65840  0.12490  0.62670  Biso   1.000  C
  C68      1.0000 0.34160  0.62490  0.87330  Biso   1.000  C
  H65      1.0000 0.29310  0.85760  0.42160  Biso   1.000  H
  H66      1.0000 0.70690  0.35760  0.07840  Biso   1.000  H
  H67      1.0000 0.70690  0.14240  0.57840  Biso   1.000  H
  H68      1.0000 0.29310  0.64240  0.92160  Biso   1.000  H
  H69      1.0000 0.36720  0.91200  0.43390  Biso   1.000  H
  H70      1.0000 0.63280  0.41200  0.06610  Biso   1.000  H
  H71      1.0000 0.63280  0.08800  0.56610  Biso   1.000  H
  H72      1.0000 0.36720  0.58800  0.93390  Biso   1.000  H
  H73      1.0000 0.37960  0.83580  0.36040  Biso   1.000  H
  H74      1.0000 0.62040  0.33580  0.13960  Biso   1.000  H
  H75      1.0000 0.62040  0.16420  0.63960  Biso   1.000  H
  H76      1.0000 0.37960  0.66420  0.86040  Biso   1.000  H
  C69      1.0000 0.53230  0.87518  0.90110  Biso   1.000  C
  C70      1.0000 0.46770  0.37518  0.59890  Biso   1.000  C
  C71      1.0000 0.46770  0.12482  0.09890  Biso   1.000  C
  C72      1.0000 0.53230  0.62482  0.40110  Biso   1.000  C
  C73      1.0000 0.54470  0.80101  0.83590  Biso   1.000  C
  C74      1.0000 0.45530  0.30101  0.66410  Biso   1.000  C
  C75      1.0000 0.45530  0.19899  0.16410  Biso   1.000  C
  C76      1.0000 0.54470  0.69899  0.33590  Biso   1.000  C
  C77      1.0000 0.61220  0.76200  0.88640  Biso   1.000  C
  C78      1.0000 0.38780  0.26200  0.61360  Biso   1.000  C
  C79      1.0000 0.38780  0.23800  0.11360  Biso   1.000  C
  C80      1.0000 0.61220  0.73800  0.38640  Biso   1.000  C
  H77      1.0000 0.62230  0.71610  0.84800  Biso   1.000  H
  H78      1.0000 0.37770  0.21610  0.65200  Biso   1.000  H
  H79      1.0000 0.37770  0.28390  0.15200  Biso   1.000  H
  H80      1.0000 0.62230  0.78390  0.34800  Biso   1.000  H
  H81      1.0000 0.64780  0.78150  0.95900  Biso   1.000  H
  H82      1.0000 0.35220  0.28150  0.54100  Biso   1.000  H
  H83      1.0000 0.35220  0.21850  0.04100  Biso   1.000  H
  H84      1.0000 0.64780  0.71850  0.45900  Biso   1.000  H
  C81      1.0000 0.48650  0.77680  0.72620  Biso   1.000  C
  C82      1.0000 0.51350  0.27680  0.77380  Biso   1.000  C
  C83      1.0000 0.51350  0.22320  0.27380  Biso   1.000  C
  C84      1.0000 0.48650  0.72320  0.22620  Biso   1.000  C
  H85      1.0000 0.49950  0.72810  0.69770  Biso   1.000  H
  H86      1.0000 0.50050  0.22810  0.80230  Biso   1.000  H
  H87      1.0000 0.50050  0.27190  0.30230  Biso   1.000  H
  H88      1.0000 0.49950  0.77190  0.19770  Biso   1.000  H
  H89      1.0000 0.48860  0.80770  0.63990  Biso   1.000  H
  H90      1.0000 0.51140  0.30770  0.86010  Biso   1.000  H
  H91      1.0000 0.51140  0.19230  0.36010  Biso   1.000  H
  H92      1.0000 0.48860  0.69230  0.13990  Biso   1.000  H
  H93      1.0000 0.43210  0.77820  0.76650  Biso   1.000  H
  H94      1.0000 0.56790  0.27820  0.73350  Biso   1.000  H
  H95      1.0000 0.56790  0.22180  0.23350  Biso   1.000  H
  H96      1.0000 0.43210  0.72180  0.26650  Biso   1.000  H
  C85      1.0000 0.94900  0.42920  0.73320  Biso   1.000  C
  C86      1.0000 0.05100  0.92920  0.76680  Biso   1.000  C
  C87      1.0000 0.05100  0.57080  0.26680  Biso   1.000  C
  C88      1.0000 0.94900  0.07080  0.23320  Biso   1.000  C
  C89      1.0000 0.90340  0.38440  0.83650  Biso   1.000  C
  C90      1.0000 0.09660  0.88440  0.66350  Biso   1.000  C
  C91      1.0000 0.09660  0.61560  0.16350  Biso   1.000  C
  C92      1.0000 0.90340  0.11560  0.33650  Biso   1.000  C
  C93      1.0000 0.83960  0.34550  0.78180  Biso   1.000  C
  C94      1.0000 0.16040  0.84550  0.71820  Biso   1.000  C
  C95      1.0000 0.16040  0.65450  0.21820  Biso   1.000  C
  C96      1.0000 0.83960  0.15450  0.28180  Biso   1.000  C
  H97      1.0000 0.81180  0.31370  0.84390  Biso   1.000  H
  H98      1.0000 0.18820  0.81370  0.65610  Biso   1.000  H
  H99      1.0000 0.18820  0.68630  0.15610  Biso   1.000  H
  H100     1.0000 0.81180  0.18630  0.34390  Biso   1.000  H
  H101     1.0000 0.82310  0.35020  0.68190  Biso   1.000  H
  H102     1.0000 0.17690  0.85020  0.81810  Biso   1.000  H
  H103     1.0000 0.17690  0.64980  0.31810  Biso   1.000  H
  H104     1.0000 0.82310  0.14980  0.18190  Biso   1.000  H
  C97      1.0000 0.93130  0.37920  0.98950  Biso   1.000  C
  C98      1.0000 0.06870  0.87920  0.51050  Biso   1.000  C
  C99      1.0000 0.06870  0.62080  0.01050  Biso   1.000  C
  C100     1.0000 0.93130  0.12080  0.48950  Biso   1.000  C
  H105     1.0000 0.90030  0.34250  0.03940  Biso   1.000  H
  H106     1.0000 0.09970  0.84250  0.46060  Biso   1.000  H
  H107     1.0000 0.09970  0.65750  0.96060  Biso   1.000  H
  H108     1.0000 0.90030  0.15750  0.53940  Biso   1.000  H
  H109     1.0000 0.92340  0.42480  0.03850  Biso   1.000  H
  H110     1.0000 0.07660  0.92480  0.46150  Biso   1.000  H
  H111     1.0000 0.07660  0.57520  0.96150  Biso   1.000  H
  H112     1.0000 0.92340  0.07520  0.53850  Biso   1.000  H
  H113     1.0000 0.98880  0.36680  0.99310  Biso   1.000  H
  H114     1.0000 0.01120  0.86680  0.50690  Biso   1.000  H
  H115     1.0000 0.01120  0.63320  0.00690  Biso   1.000  H
  H116     1.0000 0.98880  0.13320  0.49310  Biso   1.000  H
