data_image0
_cell_length_a       19.117
_cell_length_b       16.1905
_cell_length_c       17.7411
_cell_angle_alpha    90
_cell_angle_beta     105.859
_cell_angle_gamma    90

_symmetry_space_group_name_H-M    "P 1"
_symmetry_int_tables_number       1

loop_
  _symmetry_equiv_pos_as_xyz
  'x, y, z'

loop_
  _atom_site_label
  _atom_site_occupancy
  _atom_site_fract_x
  _atom_site_fract_y
  _atom_site_fract_z
  _atom_site_thermal_displace_type
  _atom_site_B_iso_or_equiv
  _atom_site_type_symbol
  C1       1.0000 0.26702  0.96356  0.17598  Biso   1.000  C
  C2       1.0000 0.73298  0.46356  0.32402  Biso   1.000  C
  C3       1.0000 0.73298  0.03644  0.82402  Biso   1.000  C
  C4       1.0000 0.26702  0.53644  0.67598  Biso   1.000  C
  C5       1.0000 0.28333  0.04412  0.17664  Biso   1.000  C
  C6       1.0000 0.71667  0.54412  0.32336  Biso   1.000  C
  C7       1.0000 0.71667  0.95588  0.82336  Biso   1.000  C
  C8       1.0000 0.28333  0.45588  0.67664  Biso   1.000  C
  H1       1.0000 0.30410  0.06480  0.13890  Biso   1.000  H
  H2       1.0000 0.69590  0.56480  0.36110  Biso   1.000  H
  H3       1.0000 0.69590  0.93520  0.86110  Biso   1.000  H
  H4       1.0000 0.30410  0.43520  0.63890  Biso   1.000  H
  C9       1.0000 0.26985  0.09738  0.23242  Biso   1.000  C
  C10      1.0000 0.73015  0.59738  0.26758  Biso   1.000  C
  C11      1.0000 0.73015  0.90262  0.76758  Biso   1.000  C
  C12      1.0000 0.26985  0.40262  0.73242  Biso   1.000  C
  C13      1.0000 0.23463  0.06610  0.28657  Biso   1.000  C
  C14      1.0000 0.76537  0.56610  0.21343  Biso   1.000  C
  C15      1.0000 0.76537  0.93390  0.71343  Biso   1.000  C
  C16      1.0000 0.23463  0.43390  0.78657  Biso   1.000  C
  H5       1.0000 0.22350  0.10100  0.32330  Biso   1.000  H
  H6       1.0000 0.77650  0.60100  0.17670  Biso   1.000  H
  H7       1.0000 0.77650  0.89900  0.67670  Biso   1.000  H
  H8       1.0000 0.22350  0.39900  0.82330  Biso   1.000  H
  C17      1.0000 0.21669  0.98302  0.28480  Biso   1.000  C
  C18      1.0000 0.78331  0.48302  0.21520  Biso   1.000  C
  C19      1.0000 0.78331  0.01698  0.71520  Biso   1.000  C
  C20      1.0000 0.21669  0.51698  0.78480  Biso   1.000  C
  C21      1.0000 0.23281  0.93073  0.23379  Biso   1.000  C
  C22      1.0000 0.76719  0.43073  0.26621  Biso   1.000  C
  C23      1.0000 0.76719  0.06927  0.76621  Biso   1.000  C
  C24      1.0000 0.23281  0.56927  0.73379  Biso   1.000  C
  H9       1.0000 0.22250  0.87470  0.23510  Biso   1.000  H
  H10      1.0000 0.77750  0.37470  0.26490  Biso   1.000  H
  H11      1.0000 0.77750  0.12530  0.76490  Biso   1.000  H
  H12      1.0000 0.22250  0.62530  0.73510  Biso   1.000  H
  C25      1.0000 0.27305  0.90470  0.10747  Biso   1.000  C
  C26      1.0000 0.72695  0.40470  0.39253  Biso   1.000  C
  C27      1.0000 0.72695  0.09530  0.89253  Biso   1.000  C
  C28      1.0000 0.27305  0.59530  0.60747  Biso   1.000  C
  H13      1.0000 0.23540  0.86290  0.09980  Biso   1.000  H
  H14      1.0000 0.76460  0.36290  0.40020  Biso   1.000  H
  H15      1.0000 0.76460  0.13710  0.90020  Biso   1.000  H
  H16      1.0000 0.23540  0.63710  0.59980  Biso   1.000  H
  H17      1.0000 0.26420  0.93660  0.05950  Biso   1.000  H
  H18      1.0000 0.73580  0.43660  0.44050  Biso   1.000  H
  H19      1.0000 0.73580  0.06340  0.94050  Biso   1.000  H
  H20      1.0000 0.26420  0.56340  0.55950  Biso   1.000  H
  C29      1.0000 0.28932  0.18588  0.23176  Biso   1.000  C
  C30      1.0000 0.71068  0.68588  0.26824  Biso   1.000  C
  C31      1.0000 0.71068  0.81412  0.76824  Biso   1.000  C
  C32      1.0000 0.28932  0.31412  0.73176  Biso   1.000  C
  H21      1.0000 0.24870  0.21870  0.23760  Biso   1.000  H
  H22      1.0000 0.75130  0.71870  0.26240  Biso   1.000  H
  H23      1.0000 0.75130  0.78130  0.76240  Biso   1.000  H
  H24      1.0000 0.24870  0.28130  0.73760  Biso   1.000  H
  H25      1.0000 0.29660  0.19900  0.18110  Biso   1.000  H
  H26      1.0000 0.70340  0.69900  0.31890  Biso   1.000  H
  H27      1.0000 0.70340  0.80100  0.81890  Biso   1.000  H
  H28      1.0000 0.29660  0.30100  0.68110  Biso   1.000  H
  C33      1.0000 0.17698  0.94833  0.34535  Biso   1.000  C
  C34      1.0000 0.82302  0.44833  0.15465  Biso   1.000  C
  C35      1.0000 0.82302  0.05167  0.65465  Biso   1.000  C
  C36      1.0000 0.17698  0.55167  0.84535  Biso   1.000  C
  H29      1.0000 0.19710  0.89490  0.36450  Biso   1.000  H
  H30      1.0000 0.80290  0.39490  0.13550  Biso   1.000  H
  H31      1.0000 0.80290  0.10510  0.63550  Biso   1.000  H
  H32      1.0000 0.19710  0.60510  0.86450  Biso   1.000  H
  H33      1.0000 0.18470  0.98550  0.38970  Biso   1.000  H
  H34      1.0000 0.81530  0.48550  0.11030  Biso   1.000  H
  H35      1.0000 0.81530  0.01450  0.61030  Biso   1.000  H
  H36      1.0000 0.18470  0.51450  0.88970  Biso   1.000  H
  C37      1.0000 0.37034  0.92430  0.91581  Biso   1.000  C
  C38      1.0000 0.62966  0.42430  0.58419  Biso   1.000  C
  C39      1.0000 0.62966  0.07570  0.08419  Biso   1.000  C
  C40      1.0000 0.37034  0.57570  0.41581  Biso   1.000  C
  H37      1.0000 0.35510  0.88490  0.87660  Biso   1.000  H
  H38      1.0000 0.64490  0.38490  0.62340  Biso   1.000  H
  H39      1.0000 0.64490  0.11510  0.12340  Biso   1.000  H
  H40      1.0000 0.35510  0.61510  0.37660  Biso   1.000  H
  C41      1.0000 0.39039  0.00510  0.89327  Biso   1.000  C
  C42      1.0000 0.60961  0.50510  0.60673  Biso   1.000  C
  C43      1.0000 0.60961  0.99490  0.10673  Biso   1.000  C
  C44      1.0000 0.39039  0.49490  0.39327  Biso   1.000  C
  H41      1.0000 0.38730  0.01930  0.84170  Biso   1.000  H
  H42      1.0000 0.61270  0.51930  0.65830  Biso   1.000  H
  H43      1.0000 0.61270  0.98070  0.15830  Biso   1.000  H
  H44      1.0000 0.38730  0.48070  0.34170  Biso   1.000  H
  C45      1.0000 0.41489  0.05988  0.95624  Biso   1.000  C
  C46      1.0000 0.58511  0.55988  0.54376  Biso   1.000  C
  C47      1.0000 0.58511  0.94012  0.04376  Biso   1.000  C
  C48      1.0000 0.41489  0.44012  0.45624  Biso   1.000  C
  H45      1.0000 0.42780  0.11340  0.94650  Biso   1.000  H
  H46      1.0000 0.57220  0.61340  0.55350  Biso   1.000  H
  H47      1.0000 0.57220  0.88660  0.05350  Biso   1.000  H
  H48      1.0000 0.42780  0.38660  0.44650  Biso   1.000  H
  C49      1.0000 0.42055  0.03478  0.03682  Biso   1.000  C
  C50      1.0000 0.57945  0.53478  0.46318  Biso   1.000  C
  C51      1.0000 0.57945  0.96522  0.96318  Biso   1.000  C
  C52      1.0000 0.42055  0.46522  0.53682  Biso   1.000  C
  H49      1.0000 0.43860  0.07010  0.07900  Biso   1.000  H
  H50      1.0000 0.56140  0.57010  0.42100  Biso   1.000  H
  H51      1.0000 0.56140  0.92990  0.92100  Biso   1.000  H
  H52      1.0000 0.43860  0.42990  0.57900  Biso   1.000  H
  C53      1.0000 0.39741  0.95479  0.04691  Biso   1.000  C
  C54      1.0000 0.60259  0.45479  0.45309  Biso   1.000  C
  C55      1.0000 0.60259  0.04521  0.95309  Biso   1.000  C
  C56      1.0000 0.39741  0.54521  0.54691  Biso   1.000  C
  C57      1.0000 0.40661  0.92138  0.13101  Biso   1.000  C
  C58      1.0000 0.59339  0.42138  0.36899  Biso   1.000  C
  C59      1.0000 0.59339  0.07862  0.86899  Biso   1.000  C
  C60      1.0000 0.40661  0.57862  0.63101  Biso   1.000  C
  H53      1.0000 0.45300  0.89370  0.15060  Biso   1.000  H
  H54      1.0000 0.54700  0.39370  0.34940  Biso   1.000  H
  H55      1.0000 0.54700  0.10630  0.84940  Biso   1.000  H
  H56      1.0000 0.45300  0.60630  0.65060  Biso   1.000  H
  H57      1.0000 0.40330  0.96580  0.16660  Biso   1.000  H
  H58      1.0000 0.59670  0.46580  0.33340  Biso   1.000  H
  H59      1.0000 0.59670  0.03420  0.83340  Biso   1.000  H
  H60      1.0000 0.40330  0.53420  0.66660  Biso   1.000  H
  C61      1.0000 0.36004  0.80579  0.18754  Biso   1.000  C
  C62      1.0000 0.63996  0.30579  0.31246  Biso   1.000  C
  C63      1.0000 0.63996  0.19421  0.81246  Biso   1.000  C
  C64      1.0000 0.36004  0.69421  0.68754  Biso   1.000  C
  H61      1.0000 0.34930  0.83180  0.23240  Biso   1.000  H
  H62      1.0000 0.65070  0.33180  0.26760  Biso   1.000  H
  H63      1.0000 0.65070  0.16820  0.76760  Biso   1.000  H
  H64      1.0000 0.34930  0.66820  0.73240  Biso   1.000  H
  H65      1.0000 0.41080  0.78940  0.20230  Biso   1.000  H
  H66      1.0000 0.58920  0.28940  0.29770  Biso   1.000  H
  H67      1.0000 0.58920  0.21060  0.79770  Biso   1.000  H
  H68      1.0000 0.41080  0.71060  0.70230  Biso   1.000  H
  C65      1.0000 0.31095  0.73012  0.16125  Biso   1.000  C
  C66      1.0000 0.68905  0.23012  0.33875  Biso   1.000  C
  C67      1.0000 0.68905  0.26988  0.83875  Biso   1.000  C
  C68      1.0000 0.31095  0.76988  0.66125  Biso   1.000  C
  C69      1.0000 0.29018  0.68212  0.21423  Biso   1.000  C
  C70      1.0000 0.70982  0.18212  0.28577  Biso   1.000  C
  C71      1.0000 0.70982  0.31788  0.78577  Biso   1.000  C
  C72      1.0000 0.29018  0.81788  0.71423  Biso   1.000  C
  H69      1.0000 0.30240  0.69360  0.26760  Biso   1.000  H
  H70      1.0000 0.69760  0.19360  0.23240  Biso   1.000  H
  H71      1.0000 0.69760  0.30640  0.73240  Biso   1.000  H
  H72      1.0000 0.30240  0.80640  0.76760  Biso   1.000  H
  C73      1.0000 0.24625  0.61002  0.17859  Biso   1.000  C
  C74      1.0000 0.75375  0.11002  0.32141  Biso   1.000  C
  C75      1.0000 0.75375  0.38998  0.82141  Biso   1.000  C
  C76      1.0000 0.24625  0.88998  0.67859  Biso   1.000  C
  H73      1.0000 0.22920  0.57460  0.21090  Biso   1.000  H
  H74      1.0000 0.77080  0.07460  0.28910  Biso   1.000  H
  H75      1.0000 0.77080  0.42540  0.78910  Biso   1.000  H
  H76      1.0000 0.22920  0.92540  0.71090  Biso   1.000  H
  C77      1.0000 0.22991  0.59355  0.10219  Biso   1.000  C
  C78      1.0000 0.77009  0.09355  0.39781  Biso   1.000  C
  C79      1.0000 0.77009  0.40645  0.89781  Biso   1.000  C
  C80      1.0000 0.22991  0.90645  0.60219  Biso   1.000  C
  H77      1.0000 0.19970  0.54960  0.08080  Biso   1.000  H
  H78      1.0000 0.80030  0.04960  0.41920  Biso   1.000  H
  H79      1.0000 0.80030  0.45040  0.91920  Biso   1.000  H
  H80      1.0000 0.19970  0.95040  0.58080  Biso   1.000  H
  C81      1.0000 0.25999  0.64513  0.05471  Biso   1.000  C
  C82      1.0000 0.74001  0.14513  0.44529  Biso   1.000  C
  C83      1.0000 0.74001  0.35487  0.94529  Biso   1.000  C
  C84      1.0000 0.25999  0.85487  0.55471  Biso   1.000  C
  H81      1.0000 0.25320  0.63170  0.00220  Biso   1.000  H
  H82      1.0000 0.74680  0.13170  0.49780  Biso   1.000  H
  H83      1.0000 0.74680  0.36830  0.99780  Biso   1.000  H
  H84      1.0000 0.25320  0.86830  0.50220  Biso   1.000  H
  C85      1.0000 0.50530  0.19089  0.17680  Biso   1.000  C
  C86      1.0000 0.49470  0.69089  0.32320  Biso   1.000  C
  C87      1.0000 0.49470  0.80911  0.82320  Biso   1.000  C
  C88      1.0000 0.50530  0.30911  0.67680  Biso   1.000  C
  H85      1.0000 0.53190  0.14200  0.18320  Biso   1.000  H
  H86      1.0000 0.46810  0.64200  0.31680  Biso   1.000  H
  H87      1.0000 0.46810  0.85800  0.81680  Biso   1.000  H
  H88      1.0000 0.53190  0.35800  0.68320  Biso   1.000  H
  C89      1.0000 0.51016  0.24896  0.11747  Biso   1.000  C
  C90      1.0000 0.48984  0.74896  0.38253  Biso   1.000  C
  C91      1.0000 0.48984  0.75104  0.88253  Biso   1.000  C
  C92      1.0000 0.51016  0.25104  0.61747  Biso   1.000  C
  H89      1.0000 0.54140  0.23890  0.08640  Biso   1.000  H
  H90      1.0000 0.45860  0.73890  0.41360  Biso   1.000  H
  H91      1.0000 0.45860  0.76110  0.91360  Biso   1.000  H
  H92      1.0000 0.54140  0.26110  0.58640  Biso   1.000  H
  C93      1.0000 0.47001  0.31729  0.10680  Biso   1.000  C
  C94      1.0000 0.52999  0.81729  0.39320  Biso   1.000  C
  C95      1.0000 0.52999  0.68271  0.89320  Biso   1.000  C
  C96      1.0000 0.47001  0.18271  0.60680  Biso   1.000  C
  H93      1.0000 0.47150  0.35290  0.06610  Biso   1.000  H
  H94      1.0000 0.52850  0.85290  0.43390  Biso   1.000  H
  H95      1.0000 0.52850  0.64710  0.93390  Biso   1.000  H
  H96      1.0000 0.47150  0.14710  0.56610  Biso   1.000  H
  C97      1.0000 0.42626  0.33662  0.15462  Biso   1.000  C
  C98      1.0000 0.57374  0.83662  0.34538  Biso   1.000  C
  C99      1.0000 0.57374  0.66338  0.84538  Biso   1.000  C
  C100     1.0000 0.42626  0.16338  0.65462  Biso   1.000  C
  H97      1.0000 0.39910  0.38500  0.14810  Biso   1.000  H
  H98      1.0000 0.60090  0.88500  0.35190  Biso   1.000  H
  H99      1.0000 0.60090  0.61500  0.85190  Biso   1.000  H
  H100     1.0000 0.39910  0.11500  0.64810  Biso   1.000  H
  C101     1.0000 0.42491  0.27784  0.21529  Biso   1.000  C
  C102     1.0000 0.57509  0.77784  0.28471  Biso   1.000  C
  C103     1.0000 0.57509  0.72216  0.78471  Biso   1.000  C
  C104     1.0000 0.42491  0.22216  0.71529  Biso   1.000  C
  C105     1.0000 0.37914  0.29295  0.27496  Biso   1.000  C
  C106     1.0000 0.62086  0.79295  0.22504  Biso   1.000  C
  C107     1.0000 0.62086  0.70705  0.72504  Biso   1.000  C
  C108     1.0000 0.37914  0.20705  0.77496  Biso   1.000  C
  H101     1.0000 0.40810  0.32110  0.32130  Biso   1.000  H
  H102     1.0000 0.59190  0.82110  0.17870  Biso   1.000  H
  H103     1.0000 0.59190  0.67890  0.67870  Biso   1.000  H
  H104     1.0000 0.40810  0.17890  0.82130  Biso   1.000  H
  H105     1.0000 0.33670  0.32640  0.25130  Biso   1.000  H
  H106     1.0000 0.66330  0.82640  0.24870  Biso   1.000  H
  H107     1.0000 0.66330  0.67360  0.74870  Biso   1.000  H
  H108     1.0000 0.33670  0.17360  0.75130  Biso   1.000  H
  C109     1.0000 0.34197  0.21217  0.37435  Biso   1.000  C
  C110     1.0000 0.65803  0.71217  0.12565  Biso   1.000  C
  C111     1.0000 0.65803  0.78783  0.62565  Biso   1.000  C
  C112     1.0000 0.34197  0.28783  0.87435  Biso   1.000  C
  H109     1.0000 0.29110  0.22490  0.36800  Biso   1.000  H
  H110     1.0000 0.70890  0.72490  0.13200  Biso   1.000  H
  H111     1.0000 0.70890  0.77510  0.63200  Biso   1.000  H
  H112     1.0000 0.29110  0.27510  0.86800  Biso   1.000  H
  H113     1.0000 0.37110  0.25440  0.40720  Biso   1.000  H
  H114     1.0000 0.62890  0.75440  0.09280  Biso   1.000  H
  H115     1.0000 0.62890  0.74560  0.59280  Biso   1.000  H
  H116     1.0000 0.37110  0.24560  0.90720  Biso   1.000  H
  C113     1.0000 0.36021  0.12729  0.41332  Biso   1.000  C
  C114     1.0000 0.63979  0.62729  0.08668  Biso   1.000  C
  C115     1.0000 0.63979  0.87271  0.58668  Biso   1.000  C
  C116     1.0000 0.36021  0.37271  0.91332  Biso   1.000  C
  C117     1.0000 0.32988  0.10383  0.47210  Biso   1.000  C
  C118     1.0000 0.67012  0.60383  0.02790  Biso   1.000  C
  C119     1.0000 0.67012  0.89617  0.52790  Biso   1.000  C
  C120     1.0000 0.32988  0.39617  0.97210  Biso   1.000  C
  H117     1.0000 0.30070  0.13960  0.49130  Biso   1.000  H
  H118     1.0000 0.69930  0.63960  0.00870  Biso   1.000  H
  H119     1.0000 0.69930  0.86040  0.50870  Biso   1.000  H
  H120     1.0000 0.30070  0.36040  0.99130  Biso   1.000  H
  C121     1.0000 0.34437  0.02693  0.50039  Biso   1.000  C
  C122     1.0000 0.65563  0.52693  0.99961  Biso   1.000  C
  C123     1.0000 0.65563  0.97307  0.49961  Biso   1.000  C
  C124     1.0000 0.34437  0.47307  0.00039  Biso   1.000  C
  H121     1.0000 0.32260  0.00710  0.53770  Biso   1.000  H
  H122     1.0000 0.67740  0.50710  0.96230  Biso   1.000  H
  H123     1.0000 0.67740  0.99290  0.46230  Biso   1.000  H
  H124     1.0000 0.32260  0.49290  0.03770  Biso   1.000  H
  C125     1.0000 0.39193  0.97687  0.47384  Biso   1.000  C
  C126     1.0000 0.60807  0.47687  0.02616  Biso   1.000  C
  C127     1.0000 0.60807  0.02313  0.52616  Biso   1.000  C
  C128     1.0000 0.39193  0.52313  0.97384  Biso   1.000  C
  H125     1.0000 0.40470  0.92540  0.49670  Biso   1.000  H
  H126     1.0000 0.59530  0.42540  0.00330  Biso   1.000  H
  H127     1.0000 0.59530  0.07460  0.50330  Biso   1.000  H
  H128     1.0000 0.40470  0.57460  0.99670  Biso   1.000  H
  C129     1.0000 0.42024  0.00231  0.41457  Biso   1.000  C
  C130     1.0000 0.57976  0.50231  0.08543  Biso   1.000  C
  C131     1.0000 0.57976  0.99769  0.58543  Biso   1.000  C
  C132     1.0000 0.42024  0.49769  0.91457  Biso   1.000  C
  H129     1.0000 0.44840  0.96660  0.39390  Biso   1.000  H
  H130     1.0000 0.55160  0.46660  0.10610  Biso   1.000  H
  H131     1.0000 0.55160  0.03340  0.60610  Biso   1.000  H
  H132     1.0000 0.44840  0.53340  0.89390  Biso   1.000  H
  C133     1.0000 0.06739  0.01445  0.08837  Biso   1.000  C
  C134     1.0000 0.93261  0.51445  0.41163  Biso   1.000  C
  C135     1.0000 0.93261  0.98555  0.91163  Biso   1.000  C
  C136     1.0000 0.06739  0.48555  0.58837  Biso   1.000  C
  H133     1.0000 0.06390  0.97460  0.04970  Biso   1.000  H
  H134     1.0000 0.93610  0.47460  0.45030  Biso   1.000  H
  H135     1.0000 0.93610  0.02540  0.95030  Biso   1.000  H
  H136     1.0000 0.06390  0.52540  0.54970  Biso   1.000  H
  C137     1.0000 0.07378  0.10370  0.07028  Biso   1.000  C
  C138     1.0000 0.92622  0.60370  0.42972  Biso   1.000  C
  C139     1.0000 0.92622  0.89630  0.92972  Biso   1.000  C
  C140     1.0000 0.07378  0.39630  0.57028  Biso   1.000  C
  H137     1.0000 0.08090  0.11860  0.02230  Biso   1.000  H
  H138     1.0000 0.91910  0.61860  0.47770  Biso   1.000  H
  H139     1.0000 0.91910  0.88140  0.97770  Biso   1.000  H
  H140     1.0000 0.08090  0.38140  0.52230  Biso   1.000  H
  C141     1.0000 0.06976  0.15996  0.11915  Biso   1.000  C
  C142     1.0000 0.93024  0.65996  0.38085  Biso   1.000  C
  C143     1.0000 0.93024  0.84004  0.88085  Biso   1.000  C
  C144     1.0000 0.06976  0.34004  0.61915  Biso   1.000  C
  H141     1.0000 0.07010  0.21550  0.10600  Biso   1.000  H
  H142     1.0000 0.92990  0.71550  0.39400  Biso   1.000  H
  H143     1.0000 0.92990  0.78450  0.89400  Biso   1.000  H
  H144     1.0000 0.07010  0.28450  0.60600  Biso   1.000  H
  C145     1.0000 0.06466  0.13505  0.19478  Biso   1.000  C
  C146     1.0000 0.93534  0.63505  0.30522  Biso   1.000  C
  C147     1.0000 0.93534  0.86495  0.80522  Biso   1.000  C
  C148     1.0000 0.06466  0.36495  0.69478  Biso   1.000  C
  H145     1.0000 0.06230  0.17260  0.23360  Biso   1.000  H
  H146     1.0000 0.93770  0.67260  0.26640  Biso   1.000  H
  H147     1.0000 0.93770  0.82740  0.76640  Biso   1.000  H
  H148     1.0000 0.06230  0.32740  0.73360  Biso   1.000  H
  C149     1.0000 0.06356  0.04999  0.20551  Biso   1.000  C
  C150     1.0000 0.93644  0.54999  0.29449  Biso   1.000  C
  C151     1.0000 0.93644  0.95001  0.79449  Biso   1.000  C
  C152     1.0000 0.06356  0.45001  0.70551  Biso   1.000  C
  C153     1.0000 0.06060  0.02521  0.28880  Biso   1.000  C
  C154     1.0000 0.93940  0.52521  0.21120  Biso   1.000  C
  C155     1.0000 0.93940  0.97479  0.71120  Biso   1.000  C
  C156     1.0000 0.06060  0.47479  0.78880  Biso   1.000  C
  H149     1.0000 0.08650  0.06530  0.32690  Biso   1.000  H
  H150     1.0000 0.91350  0.56530  0.17310  Biso   1.000  H
  H151     1.0000 0.91350  0.93470  0.67310  Biso   1.000  H
  H152     1.0000 0.08650  0.43470  0.82690  Biso   1.000  H
  H153     1.0000 0.01060  0.02280  0.29120  Biso   1.000  H
  H154     1.0000 0.98940  0.52280  0.20880  Biso   1.000  H
  H155     1.0000 0.98940  0.97720  0.70880  Biso   1.000  H
  H156     1.0000 0.01060  0.47720  0.79120  Biso   1.000  H
  C157     1.0000 0.06697  0.89057  0.36025  Biso   1.000  C
  C158     1.0000 0.93303  0.39057  0.13975  Biso   1.000  C
  C159     1.0000 0.93303  0.10943  0.63975  Biso   1.000  C
  C160     1.0000 0.06697  0.60943  0.86025  Biso   1.000  C
  H157     1.0000 0.01460  0.89700  0.34790  Biso   1.000  H
  H158     1.0000 0.98540  0.39700  0.15210  Biso   1.000  H
  H159     1.0000 0.98540  0.10300  0.65210  Biso   1.000  H
  H160     1.0000 0.01460  0.60300  0.84790  Biso   1.000  H
  H161     1.0000 0.08830  0.90780  0.41400  Biso   1.000  H
  H162     1.0000 0.91170  0.40780  0.08600  Biso   1.000  H
  H163     1.0000 0.91170  0.09220  0.58600  Biso   1.000  H
  H164     1.0000 0.08830  0.59220  0.91400  Biso   1.000  H
  C161     1.0000 0.08651  0.80221  0.34900  Biso   1.000  C
  C162     1.0000 0.91349  0.30221  0.15100  Biso   1.000  C
  C163     1.0000 0.91349  0.19779  0.65100  Biso   1.000  C
  C164     1.0000 0.08651  0.69779  0.84900  Biso   1.000  C
  C165     1.0000 0.10040  0.74459  0.41265  Biso   1.000  C
  C166     1.0000 0.89960  0.24459  0.08735  Biso   1.000  C
  C167     1.0000 0.89960  0.25541  0.58735  Biso   1.000  C
  C168     1.0000 0.10040  0.75541  0.91265  Biso   1.000  C
  H165     1.0000 0.09870  0.75950  0.46270  Biso   1.000  H
  H166     1.0000 0.90130  0.25950  0.03730  Biso   1.000  H
  H167     1.0000 0.90130  0.24050  0.53730  Biso   1.000  H
  H168     1.0000 0.09870  0.74050  0.96270  Biso   1.000  H
  C169     1.0000 0.11664  0.66468  0.39408  Biso   1.000  C
  C170     1.0000 0.88336  0.16468  0.10592  Biso   1.000  C
  C171     1.0000 0.88336  0.33532  0.60592  Biso   1.000  C
  C172     1.0000 0.11664  0.83532  0.89408  Biso   1.000  C
  H169     1.0000 0.12460  0.62400  0.43250  Biso   1.000  H
  H170     1.0000 0.87540  0.12400  0.06750  Biso   1.000  H
  H171     1.0000 0.87540  0.37600  0.56750  Biso   1.000  H
  H172     1.0000 0.12460  0.87600  0.93250  Biso   1.000  H
  C173     1.0000 0.12139  0.64350  0.31705  Biso   1.000  C
  C174     1.0000 0.87861  0.14350  0.18295  Biso   1.000  C
  C175     1.0000 0.87861  0.35650  0.68295  Biso   1.000  C
  C176     1.0000 0.12139  0.85650  0.81705  Biso   1.000  C
  H173     1.0000 0.13350  0.59040  0.30510  Biso   1.000  H
  H174     1.0000 0.86650  0.09040  0.19490  Biso   1.000  H
  H175     1.0000 0.86650  0.40960  0.69490  Biso   1.000  H
  H176     1.0000 0.13350  0.90960  0.80510  Biso   1.000  H
  C177     1.0000 0.10783  0.70283  0.26372  Biso   1.000  C
  C178     1.0000 0.89217  0.20283  0.23628  Biso   1.000  C
  C179     1.0000 0.89217  0.29717  0.73628  Biso   1.000  C
  C180     1.0000 0.10783  0.79717  0.76372  Biso   1.000  C
  H177     1.0000 0.11070  0.68930  0.21370  Biso   1.000  H
  H178     1.0000 0.88930  0.18930  0.28630  Biso   1.000  H
  H179     1.0000 0.88930  0.31070  0.78630  Biso   1.000  H
  H180     1.0000 0.11070  0.81070  0.71370  Biso   1.000  H
  Cl1      1.0000 0.30346  0.73379  0.90728  Biso   1.000  Cl
  Cl2      1.0000 0.69654  0.23379  0.59272  Biso   1.000  Cl
  Cl3      1.0000 0.69654  0.26621  0.09272  Biso   1.000  Cl
  Cl4      1.0000 0.30346  0.76621  0.40728  Biso   1.000  Cl
  Cl5      1.0000 0.52206  0.03502  0.29394  Biso   1.000  Cl
  Cl6      1.0000 0.47794  0.53502  0.20606  Biso   1.000  Cl
  Cl7      1.0000 0.47794  0.96498  0.70606  Biso   1.000  Cl
  Cl8      1.0000 0.52206  0.46498  0.79394  Biso   1.000  Cl
  Cl9      1.0000 0.08791  0.81238  0.09812  Biso   1.000  Cl
  Cl10     1.0000 0.91209  0.31238  0.40188  Biso   1.000  Cl
  Cl11     1.0000 0.91209  0.18762  0.90188  Biso   1.000  Cl
  Cl12     1.0000 0.08791  0.68762  0.59812  Biso   1.000  Cl
  Cl13     1.0000 0.52825  0.23539  0.42157  Biso   1.000  Cl
  Cl14     1.0000 0.47175  0.73539  0.07843  Biso   1.000  Cl
  Cl15     1.0000 0.47175  0.76461  0.57843  Biso   1.000  Cl
  Cl16     1.0000 0.52825  0.26461  0.92157  Biso   1.000  Cl
  Cl17     1.0000 0.93279  0.87879  0.18205  Biso   1.000  Cl
  Cl18     1.0000 0.06721  0.37879  0.31795  Biso   1.000  Cl
  Cl19     1.0000 0.06721  0.12121  0.81795  Biso   1.000  Cl
  Cl20     1.0000 0.93279  0.62121  0.68205  Biso   1.000  Cl
  Cl21     1.0000 0.27810  0.29827  0.52853  Biso   1.000  Cl
  Cl22     1.0000 0.72190  0.79827  0.97147  Biso   1.000  Cl
  Cl23     1.0000 0.72190  0.70173  0.47147  Biso   1.000  Cl
  Cl24     1.0000 0.27810  0.20173  0.02853  Biso   1.000  Cl
  Cu1      1.0000 0.34152  0.79358  0.02525  Biso   1.000  Cu
  Cu2      1.0000 0.65848  0.29358  0.47475  Biso   1.000  Cu
  Cu3      1.0000 0.65848  0.20642  0.97475  Biso   1.000  Cu
  Cu4      1.0000 0.34152  0.70642  0.52525  Biso   1.000  Cu
  Cu5      1.0000 0.44540  0.13505  0.30698  Biso   1.000  Cu
  Cu6      1.0000 0.55460  0.63505  0.19302  Biso   1.000  Cu
  Cu7      1.0000 0.55460  0.86495  0.69302  Biso   1.000  Cu
  Cu8      1.0000 0.44540  0.36495  0.80698  Biso   1.000  Cu
  Cu9      1.0000 0.07068  0.87913  0.20167  Biso   1.000  Cu
  Cu10     1.0000 0.92932  0.37913  0.29833  Biso   1.000  Cu
  Cu11     1.0000 0.92932  0.12087  0.79833  Biso   1.000  Cu
  Cu12     1.0000 0.07068  0.62087  0.70167  Biso   1.000  Cu
  N1       1.0000 0.34580  0.86266  0.12205  Biso   1.000  N
  N2       1.0000 0.65420  0.36266  0.37795  Biso   1.000  N
  N3       1.0000 0.65420  0.13734  0.87795  Biso   1.000  N
  N4       1.0000 0.34580  0.63734  0.62205  Biso   1.000  N
  N5       1.0000 0.35736  0.21127  0.29543  Biso   1.000  N
  N6       1.0000 0.64264  0.71127  0.20457  Biso   1.000  N
  N7       1.0000 0.64264  0.78873  0.70457  Biso   1.000  N
  N8       1.0000 0.35736  0.28873  0.79543  Biso   1.000  N
  N9       1.0000 0.09646  0.93988  0.30639  Biso   1.000  N
  N10      1.0000 0.90354  0.43988  0.19361  Biso   1.000  N
  N11      1.0000 0.90354  0.06012  0.69361  Biso   1.000  N
  N12      1.0000 0.09646  0.56012  0.80639  Biso   1.000  N
  N13      1.0000 0.37217  0.90249  0.98891  Biso   1.000  N
  N14      1.0000 0.62783  0.40249  0.51109  Biso   1.000  N
  N15      1.0000 0.62783  0.09751  0.01109  Biso   1.000  N
  N16      1.0000 0.37217  0.59751  0.48891  Biso   1.000  N
  N17      1.0000 0.29764  0.71235  0.08356  Biso   1.000  N
  N18      1.0000 0.70236  0.21235  0.41644  Biso   1.000  N
  N19      1.0000 0.70236  0.28765  0.91644  Biso   1.000  N
  N20      1.0000 0.29764  0.78765  0.58356  Biso   1.000  N
  N21      1.0000 0.46162  0.20780  0.22356  Biso   1.000  N
  N22      1.0000 0.53838  0.70780  0.27644  Biso   1.000  N
  N23      1.0000 0.53838  0.79220  0.77644  Biso   1.000  N
  N24      1.0000 0.46162  0.29220  0.72356  Biso   1.000  N
  N25      1.0000 0.40629  0.08234  0.38571  Biso   1.000  N
  N26      1.0000 0.59371  0.58234  0.11429  Biso   1.000  N
  N27      1.0000 0.59371  0.91766  0.61429  Biso   1.000  N
  N28      1.0000 0.40629  0.41766  0.88571  Biso   1.000  N
  N29      1.0000 0.06678  0.99345  0.15769  Biso   1.000  N
  N30      1.0000 0.93322  0.49345  0.34231  Biso   1.000  N
  N31      1.0000 0.93322  0.00655  0.84231  Biso   1.000  N
  N32      1.0000 0.06678  0.50655  0.65769  Biso   1.000  N
  N33      1.0000 0.09042  0.78043  0.27589  Biso   1.000  N
  N34      1.0000 0.90958  0.28043  0.22411  Biso   1.000  N
  N35      1.0000 0.90958  0.21957  0.72411  Biso   1.000  N
  N36      1.0000 0.09042  0.71957  0.77589  Biso   1.000  N
  O1       1.0000 0.15890  0.21730  0.39380  Biso   1.000  O
  O2       1.0000 0.84110  0.71730  0.10620  Biso   1.000  O
  O3       1.0000 0.84110  0.78270  0.60620  Biso   1.000  O
  O4       1.0000 0.15890  0.28270  0.89380  Biso   1.000  O
  H181     1.0000 0.16600  0.26600  0.37960  Biso   1.000  H
  H182     1.0000 0.83400  0.76600  0.12040  Biso   1.000  H
  H183     1.0000 0.83400  0.73400  0.62040  Biso   1.000  H
  H184     1.0000 0.16600  0.23400  0.87960  Biso   1.000  H
  H185     1.0000 0.12210  0.19660  0.36110  Biso   1.000  H
  H186     1.0000 0.87790  0.69660  0.13890  Biso   1.000  H
  H187     1.0000 0.87790  0.80340  0.63890  Biso   1.000  H
  H188     1.0000 0.12210  0.30340  0.86110  Biso   1.000  H
  O5       1.0000 0.22430  0.13560  0.60940  Biso   1.000  O
  O6       1.0000 0.77570  0.63560  0.89060  Biso   1.000  O
  O7       1.0000 0.77570  0.86440  0.39060  Biso   1.000  O
  O8       1.0000 0.22430  0.36440  0.10940  Biso   1.000  O
  H189     1.0000 0.21010  0.15340  0.56260  Biso   1.000  H
  H190     1.0000 0.78990  0.65340  0.93740  Biso   1.000  H
  H191     1.0000 0.78990  0.84660  0.43740  Biso   1.000  H
  H192     1.0000 0.21010  0.34660  0.06260  Biso   1.000  H
  H193     1.0000 0.20520  0.16430  0.63860  Biso   1.000  H
  H194     1.0000 0.79480  0.66430  0.86140  Biso   1.000  H
  H195     1.0000 0.79480  0.83570  0.36140  Biso   1.000  H
  H196     1.0000 0.20520  0.33570  0.13860  Biso   1.000  H
  O9       1.0000 0.20460  0.03660  0.94560  Biso   1.000  O
  O10      1.0000 0.79540  0.53660  0.55440  Biso   1.000  O
  O11      1.0000 0.79540  0.96340  0.05440  Biso   1.000  O
  O12      1.0000 0.20460  0.46340  0.44560  Biso   1.000  O
  H197     1.0000 0.20720  0.05000  0.90020  Biso   1.000  H
  H198     1.0000 0.79280  0.55000  0.59980  Biso   1.000  H
  H199     1.0000 0.79280  0.95000  0.09980  Biso   1.000  H
  H200     1.0000 0.20720  0.45000  0.40020  Biso   1.000  H
  H201     1.0000 0.19280  0.07860  0.96820  Biso   1.000  H
  H202     1.0000 0.80720  0.57860  0.53180  Biso   1.000  H
  H203     1.0000 0.80720  0.92140  0.03180  Biso   1.000  H
  H204     1.0000 0.19280  0.42140  0.46820  Biso   1.000  H
  O13      1.0000 0.10500  0.44290  0.99780  Biso   1.000  O
  O14      1.0000 0.89500  0.94290  0.50220  Biso   1.000  O
  O15      1.0000 0.89500  0.55710  0.00220  Biso   1.000  O
  O16      1.0000 0.10500  0.05710  0.49780  Biso   1.000  O
  H205     1.0000 0.09820  0.44800  0.04290  Biso   1.000  H
  H206     1.0000 0.90180  0.94800  0.45710  Biso   1.000  H
  H207     1.0000 0.90180  0.55200  0.95710  Biso   1.000  H
  H208     1.0000 0.09820  0.05200  0.54290  Biso   1.000  H
  H209     1.0000 0.06600  0.45480  0.96290  Biso   1.000  H
  H210     1.0000 0.93400  0.95480  0.53710  Biso   1.000  H
  H211     1.0000 0.93400  0.54520  0.03710  Biso   1.000  H
  H212     1.0000 0.06600  0.04520  0.46290  Biso   1.000  H
  O17      1.0000 0.21150  0.08690  0.76800  Biso   1.000  O
  O18      1.0000 0.78850  0.58690  0.73200  Biso   1.000  O
  O19      1.0000 0.78850  0.91310  0.23200  Biso   1.000  O
  O20      1.0000 0.21150  0.41310  0.26800  Biso   1.000  O
  H213     1.0000 0.19960  0.12650  0.79350  Biso   1.000  H
  H214     1.0000 0.80040  0.62650  0.70650  Biso   1.000  H
  H215     1.0000 0.80040  0.87350  0.20650  Biso   1.000  H
  H216     1.0000 0.19960  0.37350  0.29350  Biso   1.000  H
  H217     1.0000 0.21220  0.10390  0.72280  Biso   1.000  H
  H218     1.0000 0.78780  0.60390  0.77720  Biso   1.000  H
  H219     1.0000 0.78780  0.89610  0.27720  Biso   1.000  H
  H220     1.0000 0.21220  0.39610  0.22280  Biso   1.000  H
  O21      1.0000 0.04060  0.55220  0.06190  Biso   1.000  O
  O22      1.0000 0.95940  0.05220  0.43810  Biso   1.000  O
  O23      1.0000 0.95940  0.44780  0.93810  Biso   1.000  O
  O24      1.0000 0.04060  0.94780  0.56190  Biso   1.000  O
  H221     1.0000 0.04870  0.52310  0.02530  Biso   1.000  H
  H222     1.0000 0.95130  0.02310  0.47470  Biso   1.000  H
  H223     1.0000 0.95130  0.47690  0.97470  Biso   1.000  H
  H224     1.0000 0.04870  0.97690  0.52530  Biso   1.000  H
  H225     1.0000 0.06680  0.59540  0.06830  Biso   1.000  H
  H226     1.0000 0.93320  0.09540  0.43170  Biso   1.000  H
  H227     1.0000 0.93320  0.40460  0.93170  Biso   1.000  H
  H228     1.0000 0.06680  0.90460  0.56830  Biso   1.000  H
