data_image0
_cell_length_a       18.5324
_cell_length_b       18.5324
_cell_length_c       40.25
_cell_angle_alpha    90
_cell_angle_beta     90
_cell_angle_gamma    120

_symmetry_space_group_name_H-M    "P 1"
_symmetry_int_tables_number       1

loop_
  _symmetry_equiv_pos_as_xyz
  'x, y, z'

loop_
  _atom_site_label
  _atom_site_occupancy
  _atom_site_fract_x
  _atom_site_fract_y
  _atom_site_fract_z
  _atom_site_thermal_displace_type
  _atom_site_B_iso_or_equiv
  _atom_site_type_symbol
  Cu1      1.0000 0.52375  0.04750  0.52697  Biso   1.000  Cu
  Cu2      1.0000 0.95250  0.47625  0.52697  Biso   1.000  Cu
  Cu3      1.0000 0.52375  0.47625  0.52697  Biso   1.000  Cu
  Cu4      1.0000 0.47625  0.95250  0.02697  Biso   1.000  Cu
  Cu5      1.0000 0.04750  0.52375  0.02697  Biso   1.000  Cu
  Cu6      1.0000 0.47625  0.52375  0.02697  Biso   1.000  Cu
  Cu7      1.0000 0.04750  0.52375  0.47303  Biso   1.000  Cu
  Cu8      1.0000 0.47625  0.95250  0.47303  Biso   1.000  Cu
  Cu9      1.0000 0.47625  0.52375  0.47303  Biso   1.000  Cu
  Cu10     1.0000 0.95250  0.47625  0.97303  Biso   1.000  Cu
  Cu11     1.0000 0.52375  0.04750  0.97303  Biso   1.000  Cu
  Cu12     1.0000 0.52375  0.47625  0.97303  Biso   1.000  Cu
  Ga1      1.0000 0.11900  0.05950  0.75000  Biso   1.000  Ga
  Ga2      1.0000 0.94050  0.05950  0.75000  Biso   1.000  Ga
  Ga3      1.0000 0.94050  0.88100  0.75000  Biso   1.000  Ga
  Ga4      1.0000 0.88100  0.94050  0.25000  Biso   1.000  Ga
  Ga5      1.0000 0.05950  0.94050  0.25000  Biso   1.000  Ga
  Ga6      1.0000 0.05950  0.11900  0.25000  Biso   1.000  Ga
  O1       1.0000 0.41025  0.97003  0.54216  Biso   1.000  O
  O2       1.0000 0.02997  0.44022  0.54216  Biso   1.000  O
  O3       1.0000 0.55978  0.58975  0.54216  Biso   1.000  O
  O4       1.0000 0.58975  0.02997  0.04216  Biso   1.000  O
  O5       1.0000 0.97003  0.55978  0.04216  Biso   1.000  O
  O6       1.0000 0.44022  0.41025  0.04216  Biso   1.000  O
  O7       1.0000 0.97003  0.41025  0.45784  Biso   1.000  O
  O8       1.0000 0.44022  0.02997  0.45784  Biso   1.000  O
  O9       1.0000 0.58975  0.55978  0.45784  Biso   1.000  O
  O10      1.0000 0.02997  0.58975  0.95784  Biso   1.000  O
  O11      1.0000 0.55978  0.97003  0.95784  Biso   1.000  O
  O12      1.0000 0.41025  0.44022  0.95784  Biso   1.000  O
  O13      1.0000 0.58975  0.02997  0.45784  Biso   1.000  O
  O14      1.0000 0.97003  0.55978  0.45784  Biso   1.000  O
  O15      1.0000 0.44022  0.41025  0.45784  Biso   1.000  O
  O16      1.0000 0.41025  0.97003  0.95784  Biso   1.000  O
  O17      1.0000 0.02997  0.44022  0.95784  Biso   1.000  O
  O18      1.0000 0.55978  0.58975  0.95784  Biso   1.000  O
  O19      1.0000 0.02997  0.58975  0.54216  Biso   1.000  O
  O20      1.0000 0.55978  0.97003  0.54216  Biso   1.000  O
  O21      1.0000 0.41025  0.44022  0.54216  Biso   1.000  O
  O22      1.0000 0.97003  0.41025  0.04216  Biso   1.000  O
  O23      1.0000 0.44022  0.02997  0.04216  Biso   1.000  O
  O24      1.0000 0.58975  0.55978  0.04216  Biso   1.000  O
  O25      1.0000 0.37159  0.88989  0.49700  Biso   1.000  O
  O26      1.0000 0.11011  0.48170  0.49700  Biso   1.000  O
  O27      1.0000 0.51830  0.62841  0.49700  Biso   1.000  O
  O28      1.0000 0.62841  0.11011  0.99700  Biso   1.000  O
  O29      1.0000 0.88989  0.51830  0.99700  Biso   1.000  O
  O30      1.0000 0.48170  0.37159  0.99700  Biso   1.000  O
  O31      1.0000 0.88989  0.37159  0.50300  Biso   1.000  O
  O32      1.0000 0.48170  0.11011  0.50300  Biso   1.000  O
  O33      1.0000 0.62841  0.51830  0.50300  Biso   1.000  O
  O34      1.0000 0.11011  0.62841  0.00300  Biso   1.000  O
  O35      1.0000 0.51830  0.88989  0.00300  Biso   1.000  O
  O36      1.0000 0.37159  0.48170  0.00300  Biso   1.000  O
  O37      1.0000 0.62841  0.11011  0.50300  Biso   1.000  O
  O38      1.0000 0.88989  0.51830  0.50300  Biso   1.000  O
  O39      1.0000 0.48170  0.37159  0.50300  Biso   1.000  O
  O40      1.0000 0.37159  0.88989  0.00300  Biso   1.000  O
  O41      1.0000 0.11011  0.48170  0.00300  Biso   1.000  O
  O42      1.0000 0.51830  0.62841  0.00300  Biso   1.000  O
  O43      1.0000 0.11011  0.62841  0.49700  Biso   1.000  O
  O44      1.0000 0.51830  0.88989  0.49700  Biso   1.000  O
  O45      1.0000 0.37159  0.48170  0.49700  Biso   1.000  O
  O46      1.0000 0.88989  0.37159  0.99700  Biso   1.000  O
  O47      1.0000 0.48170  0.11011  0.99700  Biso   1.000  O
  O48      1.0000 0.62841  0.51830  0.99700  Biso   1.000  O
  O49      1.0000 0.55890  0.11780  0.57165  Biso   1.000  O
  O50      1.0000 0.88220  0.44110  0.57165  Biso   1.000  O
  O51      1.0000 0.55890  0.44110  0.57165  Biso   1.000  O
  O52      1.0000 0.44110  0.88220  0.07165  Biso   1.000  O
  O53      1.0000 0.11780  0.55890  0.07165  Biso   1.000  O
  O54      1.0000 0.44110  0.55890  0.07165  Biso   1.000  O
  O55      1.0000 0.11780  0.55890  0.42835  Biso   1.000  O
  O56      1.0000 0.44110  0.88220  0.42835  Biso   1.000  O
  O57      1.0000 0.44110  0.55890  0.42835  Biso   1.000  O
  O58      1.0000 0.88220  0.44110  0.92835  Biso   1.000  O
  O59      1.0000 0.55890  0.11780  0.92835  Biso   1.000  O
  O60      1.0000 0.55890  0.44110  0.92835  Biso   1.000  O
  H1       1.0000 0.60820  0.15730  0.57000  Biso   1.000  H
  H2       1.0000 0.84270  0.45090  0.57000  Biso   1.000  H
  H3       1.0000 0.54910  0.39180  0.57000  Biso   1.000  H
  H4       1.0000 0.39180  0.84270  0.07000  Biso   1.000  H
  H5       1.0000 0.15730  0.54910  0.07000  Biso   1.000  H
  H6       1.0000 0.45090  0.60820  0.07000  Biso   1.000  H
  H7       1.0000 0.15730  0.60820  0.43000  Biso   1.000  H
  H8       1.0000 0.45090  0.84270  0.43000  Biso   1.000  H
  H9       1.0000 0.39180  0.54910  0.43000  Biso   1.000  H
  H10      1.0000 0.84270  0.39180  0.93000  Biso   1.000  H
  H11      1.0000 0.54910  0.15730  0.93000  Biso   1.000  H
  H12      1.0000 0.60820  0.45090  0.93000  Biso   1.000  H
  H13      1.0000 0.39180  0.84270  0.43000  Biso   1.000  H
  H14      1.0000 0.15730  0.54910  0.43000  Biso   1.000  H
  H15      1.0000 0.45090  0.60820  0.43000  Biso   1.000  H
  H16      1.0000 0.60820  0.15730  0.93000  Biso   1.000  H
  H17      1.0000 0.84270  0.45090  0.93000  Biso   1.000  H
  H18      1.0000 0.54910  0.39180  0.93000  Biso   1.000  H
  H19      1.0000 0.84270  0.39180  0.57000  Biso   1.000  H
  H20      1.0000 0.54910  0.15730  0.57000  Biso   1.000  H
  H21      1.0000 0.60820  0.45090  0.57000  Biso   1.000  H
  H22      1.0000 0.15730  0.60820  0.07000  Biso   1.000  H
  H23      1.0000 0.45090  0.84270  0.07000  Biso   1.000  H
  H24      1.0000 0.39180  0.54910  0.07000  Biso   1.000  H
  C1       1.0000 0.36050  0.90850  0.52523  Biso   1.000  C
  C2       1.0000 0.09150  0.45200  0.52523  Biso   1.000  C
  C3       1.0000 0.54800  0.63950  0.52523  Biso   1.000  C
  C4       1.0000 0.63950  0.09150  0.02523  Biso   1.000  C
  C5       1.0000 0.90850  0.54800  0.02523  Biso   1.000  C
  C6       1.0000 0.45200  0.36050  0.02523  Biso   1.000  C
  C7       1.0000 0.90850  0.36050  0.47477  Biso   1.000  C
  C8       1.0000 0.45200  0.09150  0.47477  Biso   1.000  C
  C9       1.0000 0.63950  0.54800  0.47477  Biso   1.000  C
  C10      1.0000 0.09150  0.63950  0.97477  Biso   1.000  C
  C11      1.0000 0.54800  0.90850  0.97477  Biso   1.000  C
  C12      1.0000 0.36050  0.45200  0.97477  Biso   1.000  C
  C13      1.0000 0.63950  0.09150  0.47477  Biso   1.000  C
  C14      1.0000 0.90850  0.54800  0.47477  Biso   1.000  C
  C15      1.0000 0.45200  0.36050  0.47477  Biso   1.000  C
  C16      1.0000 0.36050  0.90850  0.97477  Biso   1.000  C
  C17      1.0000 0.09150  0.45200  0.97477  Biso   1.000  C
  C18      1.0000 0.54800  0.63950  0.97477  Biso   1.000  C
  C19      1.0000 0.09150  0.63950  0.52523  Biso   1.000  C
  C20      1.0000 0.54800  0.90850  0.52523  Biso   1.000  C
  C21      1.0000 0.36050  0.45200  0.52523  Biso   1.000  C
  C22      1.0000 0.90850  0.36050  0.02523  Biso   1.000  C
  C23      1.0000 0.45200  0.09150  0.02523  Biso   1.000  C
  C24      1.0000 0.63950  0.54800  0.02523  Biso   1.000  C
  O61      1.0000 0.24820  0.12410  0.75000  Biso   1.000  O
  O62      1.0000 0.87590  0.12410  0.75000  Biso   1.000  O
  O63      1.0000 0.87590  0.75180  0.75000  Biso   1.000  O
  O64      1.0000 0.75180  0.87590  0.25000  Biso   1.000  O
  O65      1.0000 0.12410  0.87590  0.25000  Biso   1.000  O
  O66      1.0000 0.12410  0.24820  0.25000  Biso   1.000  O
  C25      1.0000 0.22340  0.77660  0.52599  Biso   1.000  C
  C26      1.0000 0.22340  0.44680  0.52599  Biso   1.000  C
  C27      1.0000 0.55320  0.77660  0.52599  Biso   1.000  C
  C28      1.0000 0.77660  0.22340  0.02599  Biso   1.000  C
  C29      1.0000 0.77660  0.55320  0.02599  Biso   1.000  C
  C30      1.0000 0.44680  0.22340  0.02599  Biso   1.000  C
  C31      1.0000 0.77660  0.22340  0.47401  Biso   1.000  C
  C32      1.0000 0.44680  0.22340  0.47401  Biso   1.000  C
  C33      1.0000 0.77660  0.55320  0.47401  Biso   1.000  C
  C34      1.0000 0.22340  0.77660  0.97401  Biso   1.000  C
  C35      1.0000 0.55320  0.77660  0.97401  Biso   1.000  C
  C36      1.0000 0.22340  0.44680  0.97401  Biso   1.000  C
  H25      1.0000 0.23800  0.76200  0.50540  Biso   1.000  H
  H26      1.0000 0.23800  0.47600  0.50540  Biso   1.000  H
  H27      1.0000 0.52400  0.76200  0.50540  Biso   1.000  H
  H28      1.0000 0.76200  0.23800  0.00540  Biso   1.000  H
  H29      1.0000 0.76200  0.52400  0.00540  Biso   1.000  H
  H30      1.0000 0.47600  0.23800  0.00540  Biso   1.000  H
  H31      1.0000 0.76200  0.23800  0.49460  Biso   1.000  H
  H32      1.0000 0.47600  0.23800  0.49460  Biso   1.000  H
  H33      1.0000 0.76200  0.52400  0.49460  Biso   1.000  H
  H34      1.0000 0.23800  0.76200  0.99460  Biso   1.000  H
  H35      1.0000 0.52400  0.76200  0.99460  Biso   1.000  H
  H36      1.0000 0.23800  0.47600  0.99460  Biso   1.000  H
  C37      1.0000 0.27710  0.85180  0.54131  Biso   1.000  C
  C38      1.0000 0.14820  0.42530  0.54131  Biso   1.000  C
  C39      1.0000 0.57470  0.72290  0.54131  Biso   1.000  C
  C40      1.0000 0.72290  0.14820  0.04131  Biso   1.000  C
  C41      1.0000 0.85180  0.57470  0.04131  Biso   1.000  C
  C42      1.0000 0.42530  0.27710  0.04131  Biso   1.000  C
  C43      1.0000 0.85180  0.27710  0.45869  Biso   1.000  C
  C44      1.0000 0.42530  0.14820  0.45869  Biso   1.000  C
  C45      1.0000 0.72290  0.57470  0.45869  Biso   1.000  C
  C46      1.0000 0.14820  0.72290  0.95869  Biso   1.000  C
  C47      1.0000 0.57470  0.85180  0.95869  Biso   1.000  C
  C48      1.0000 0.27710  0.42530  0.95869  Biso   1.000  C
  C49      1.0000 0.72290  0.14820  0.45869  Biso   1.000  C
  C50      1.0000 0.85180  0.57470  0.45869  Biso   1.000  C
  C51      1.0000 0.42530  0.27710  0.45869  Biso   1.000  C
  C52      1.0000 0.27710  0.85180  0.95869  Biso   1.000  C
  C53      1.0000 0.14820  0.42530  0.95869  Biso   1.000  C
  C54      1.0000 0.57470  0.72290  0.95869  Biso   1.000  C
  C55      1.0000 0.14820  0.72290  0.54131  Biso   1.000  C
  C56      1.0000 0.57470  0.85180  0.54131  Biso   1.000  C
  C57      1.0000 0.27710  0.42530  0.54131  Biso   1.000  C
  C58      1.0000 0.85180  0.27710  0.04131  Biso   1.000  C
  C59      1.0000 0.42530  0.14820  0.04131  Biso   1.000  C
  C60      1.0000 0.72290  0.57470  0.04131  Biso   1.000  C
  C61      1.0000 0.17900  0.82100  0.58653  Biso   1.000  C
  C62      1.0000 0.17900  0.35800  0.58653  Biso   1.000  C
  C63      1.0000 0.64200  0.82100  0.58653  Biso   1.000  C
  C64      1.0000 0.82100  0.17900  0.08653  Biso   1.000  C
  C65      1.0000 0.82100  0.64200  0.08653  Biso   1.000  C
  C66      1.0000 0.35800  0.17900  0.08653  Biso   1.000  C
  C67      1.0000 0.82100  0.17900  0.41347  Biso   1.000  C
  C68      1.0000 0.35800  0.17900  0.41347  Biso   1.000  C
  C69      1.0000 0.82100  0.64200  0.41347  Biso   1.000  C
  C70      1.0000 0.17900  0.82100  0.91347  Biso   1.000  C
  C71      1.0000 0.64200  0.82100  0.91347  Biso   1.000  C
  C72      1.0000 0.17900  0.35800  0.91347  Biso   1.000  C
  C73      1.0000 0.25520  0.87320  0.57112  Biso   1.000  C
  C74      1.0000 0.12680  0.38200  0.57112  Biso   1.000  C
  C75      1.0000 0.61800  0.74480  0.57112  Biso   1.000  C
  C76      1.0000 0.74480  0.12680  0.07112  Biso   1.000  C
  C77      1.0000 0.87320  0.61800  0.07112  Biso   1.000  C
  C78      1.0000 0.38200  0.25520  0.07112  Biso   1.000  C
  C79      1.0000 0.87320  0.25520  0.42888  Biso   1.000  C
  C80      1.0000 0.38200  0.12680  0.42888  Biso   1.000  C
  C81      1.0000 0.74480  0.61800  0.42888  Biso   1.000  C
  C82      1.0000 0.12680  0.74480  0.92888  Biso   1.000  C
  C83      1.0000 0.61800  0.87320  0.92888  Biso   1.000  C
  C84      1.0000 0.25520  0.38200  0.92888  Biso   1.000  C
  C85      1.0000 0.74480  0.12680  0.42888  Biso   1.000  C
  C86      1.0000 0.87320  0.61800  0.42888  Biso   1.000  C
  C87      1.0000 0.38200  0.25520  0.42888  Biso   1.000  C
  C88      1.0000 0.25520  0.87320  0.92888  Biso   1.000  C
  C89      1.0000 0.12680  0.38200  0.92888  Biso   1.000  C
  C90      1.0000 0.61800  0.74480  0.92888  Biso   1.000  C
  C91      1.0000 0.12680  0.74480  0.57112  Biso   1.000  C
  C92      1.0000 0.61800  0.87320  0.57112  Biso   1.000  C
  C93      1.0000 0.25520  0.38200  0.57112  Biso   1.000  C
  C94      1.0000 0.87320  0.25520  0.07112  Biso   1.000  C
  C95      1.0000 0.38200  0.12680  0.07112  Biso   1.000  C
  C96      1.0000 0.74480  0.61800  0.07112  Biso   1.000  C
  H37      1.0000 0.29300  0.92480  0.58130  Biso   1.000  H
  H38      1.0000 0.07520  0.36820  0.58130  Biso   1.000  H
  H39      1.0000 0.63180  0.70700  0.58130  Biso   1.000  H
  H40      1.0000 0.70700  0.07520  0.08130  Biso   1.000  H
  H41      1.0000 0.92480  0.63180  0.08130  Biso   1.000  H
  H42      1.0000 0.36820  0.29300  0.08130  Biso   1.000  H
  H43      1.0000 0.92480  0.29300  0.41870  Biso   1.000  H
  H44      1.0000 0.36820  0.07520  0.41870  Biso   1.000  H
  H45      1.0000 0.70700  0.63180  0.41870  Biso   1.000  H
  H46      1.0000 0.07520  0.70700  0.91870  Biso   1.000  H
  H47      1.0000 0.63180  0.92480  0.91870  Biso   1.000  H
  H48      1.0000 0.29300  0.36820  0.91870  Biso   1.000  H
  H49      1.0000 0.70700  0.07520  0.41870  Biso   1.000  H
  H50      1.0000 0.92480  0.63180  0.41870  Biso   1.000  H
  H51      1.0000 0.36820  0.29300  0.41870  Biso   1.000  H
  H52      1.0000 0.29300  0.92480  0.91870  Biso   1.000  H
  H53      1.0000 0.07520  0.36820  0.91870  Biso   1.000  H
  H54      1.0000 0.63180  0.70700  0.91870  Biso   1.000  H
  H55      1.0000 0.07520  0.70700  0.58130  Biso   1.000  H
  H56      1.0000 0.63180  0.92480  0.58130  Biso   1.000  H
  H57      1.0000 0.29300  0.36820  0.58130  Biso   1.000  H
  H58      1.0000 0.92480  0.29300  0.08130  Biso   1.000  H
  H59      1.0000 0.36820  0.07520  0.08130  Biso   1.000  H
  H60      1.0000 0.70700  0.63180  0.08130  Biso   1.000  H
  C97      1.0000 0.15450  0.84550  0.61737  Biso   1.000  C
  C98      1.0000 0.15450  0.30900  0.61737  Biso   1.000  C
  C99      1.0000 0.69100  0.84550  0.61737  Biso   1.000  C
  C100     1.0000 0.84550  0.15450  0.11737  Biso   1.000  C
  C101     1.0000 0.84550  0.69100  0.11737  Biso   1.000  C
  C102     1.0000 0.30900  0.15450  0.11737  Biso   1.000  C
  C103     1.0000 0.84550  0.15450  0.38263  Biso   1.000  C
  C104     1.0000 0.30900  0.15450  0.38263  Biso   1.000  C
  C105     1.0000 0.84550  0.69100  0.38263  Biso   1.000  C
  C106     1.0000 0.15450  0.84550  0.88263  Biso   1.000  C
  C107     1.0000 0.69100  0.84550  0.88263  Biso   1.000  C
  C108     1.0000 0.15450  0.30900  0.88263  Biso   1.000  C
  O67      1.0000 0.12450  0.99050  0.71543  Biso   1.000  O
  O68      1.0000 0.00950  0.13400  0.71543  Biso   1.000  O
  O69      1.0000 0.86600  0.87550  0.71543  Biso   1.000  O
  O70      1.0000 0.87550  0.00950  0.21543  Biso   1.000  O
  O71      1.0000 0.99050  0.86600  0.21543  Biso   1.000  O
  O72      1.0000 0.13400  0.12450  0.21543  Biso   1.000  O
  O73      1.0000 0.99050  0.12450  0.28457  Biso   1.000  O
  O74      1.0000 0.13400  0.00950  0.28457  Biso   1.000  O
  O75      1.0000 0.87550  0.86600  0.28457  Biso   1.000  O
  O76      1.0000 0.00950  0.87550  0.78457  Biso   1.000  O
  O77      1.0000 0.86600  0.99050  0.78457  Biso   1.000  O
  O78      1.0000 0.12450  0.13400  0.78457  Biso   1.000  O
  O79      1.0000 0.87550  0.00950  0.28457  Biso   1.000  O
  O80      1.0000 0.99050  0.86600  0.28457  Biso   1.000  O
  O81      1.0000 0.13400  0.12450  0.28457  Biso   1.000  O
  O82      1.0000 0.12450  0.99050  0.78457  Biso   1.000  O
  O83      1.0000 0.00950  0.13400  0.78457  Biso   1.000  O
  O84      1.0000 0.86600  0.87550  0.78457  Biso   1.000  O
  O85      1.0000 0.00950  0.87550  0.71543  Biso   1.000  O
  O86      1.0000 0.86600  0.99050  0.71543  Biso   1.000  O
  O87      1.0000 0.12450  0.13400  0.71543  Biso   1.000  O
  O88      1.0000 0.99050  0.12450  0.21543  Biso   1.000  O
  O89      1.0000 0.13400  0.00950  0.21543  Biso   1.000  O
  O90      1.0000 0.87550  0.86600  0.21543  Biso   1.000  O
  O91      1.0000 0.00000  0.00000  0.75000  Biso   1.000  O
  O92      1.0000 0.00000  0.00000  0.25000  Biso   1.000  O
  C109     1.0000 0.07769  0.92231  0.70412  Biso   1.000  C
  C110     1.0000 0.07769  0.15538  0.70412  Biso   1.000  C
  C111     1.0000 0.84462  0.92231  0.70412  Biso   1.000  C
  C112     1.0000 0.92231  0.07769  0.20412  Biso   1.000  C
  C113     1.0000 0.92231  0.84462  0.20412  Biso   1.000  C
  C114     1.0000 0.15538  0.07769  0.20412  Biso   1.000  C
  C115     1.0000 0.92231  0.07769  0.29588  Biso   1.000  C
  C116     1.0000 0.15538  0.07769  0.29588  Biso   1.000  C
  C117     1.0000 0.92231  0.84462  0.29588  Biso   1.000  C
  C118     1.0000 0.07769  0.92231  0.79588  Biso   1.000  C
  C119     1.0000 0.84462  0.92231  0.79588  Biso   1.000  C
  C120     1.0000 0.07769  0.15538  0.79588  Biso   1.000  C
  C121     1.0000 0.10510  0.89490  0.67431  Biso   1.000  C
  C122     1.0000 0.10510  0.21020  0.67431  Biso   1.000  C
  C123     1.0000 0.78980  0.89490  0.67431  Biso   1.000  C
  C124     1.0000 0.89490  0.10510  0.17431  Biso   1.000  C
  C125     1.0000 0.89490  0.78980  0.17431  Biso   1.000  C
  C126     1.0000 0.21020  0.10510  0.17431  Biso   1.000  C
  C127     1.0000 0.89490  0.10510  0.32569  Biso   1.000  C
  C128     1.0000 0.21020  0.10510  0.32569  Biso   1.000  C
  C129     1.0000 0.89490  0.78980  0.32569  Biso   1.000  C
  C130     1.0000 0.10510  0.89490  0.82569  Biso   1.000  C
  C131     1.0000 0.78980  0.89490  0.82569  Biso   1.000  C
  C132     1.0000 0.10510  0.21020  0.82569  Biso   1.000  C
  C133     1.0000 0.17620  0.94230  0.66050  Biso   1.000  C
  C134     1.0000 0.05770  0.23390  0.66050  Biso   1.000  C
  C135     1.0000 0.76610  0.82380  0.66050  Biso   1.000  C
  C136     1.0000 0.82380  0.05770  0.16050  Biso   1.000  C
  C137     1.0000 0.94230  0.76610  0.16050  Biso   1.000  C
  C138     1.0000 0.23390  0.17620  0.16050  Biso   1.000  C
  C139     1.0000 0.94230  0.17620  0.33950  Biso   1.000  C
  C140     1.0000 0.23390  0.05770  0.33950  Biso   1.000  C
  C141     1.0000 0.82380  0.76610  0.33950  Biso   1.000  C
  C142     1.0000 0.05770  0.82380  0.83950  Biso   1.000  C
  C143     1.0000 0.76610  0.94230  0.83950  Biso   1.000  C
  C144     1.0000 0.17620  0.23390  0.83950  Biso   1.000  C
  C145     1.0000 0.82380  0.05770  0.33950  Biso   1.000  C
  C146     1.0000 0.94230  0.76610  0.33950  Biso   1.000  C
  C147     1.0000 0.23390  0.17620  0.33950  Biso   1.000  C
  C148     1.0000 0.17620  0.94230  0.83950  Biso   1.000  C
  C149     1.0000 0.05770  0.23390  0.83950  Biso   1.000  C
  C150     1.0000 0.76610  0.82380  0.83950  Biso   1.000  C
  C151     1.0000 0.05770  0.82380  0.66050  Biso   1.000  C
  C152     1.0000 0.76610  0.94230  0.66050  Biso   1.000  C
  C153     1.0000 0.17620  0.23390  0.66050  Biso   1.000  C
  C154     1.0000 0.94230  0.17620  0.16050  Biso   1.000  C
  C155     1.0000 0.23390  0.05770  0.16050  Biso   1.000  C
  C156     1.0000 0.82380  0.76610  0.16050  Biso   1.000  C
  H61      1.0000 0.21310  0.99480  0.67010  Biso   1.000  H
  H62      1.0000 0.00520  0.21830  0.67010  Biso   1.000  H
  H63      1.0000 0.78170  0.78690  0.67010  Biso   1.000  H
  H64      1.0000 0.78690  0.00520  0.17010  Biso   1.000  H
  H65      1.0000 0.99480  0.78170  0.17010  Biso   1.000  H
  H66      1.0000 0.21830  0.21310  0.17010  Biso   1.000  H
  H67      1.0000 0.99480  0.21310  0.32990  Biso   1.000  H
  H68      1.0000 0.21830  0.00520  0.32990  Biso   1.000  H
  H69      1.0000 0.78690  0.78170  0.32990  Biso   1.000  H
  H70      1.0000 0.00520  0.78690  0.82990  Biso   1.000  H
  H71      1.0000 0.78170  0.99480  0.82990  Biso   1.000  H
  H72      1.0000 0.21310  0.21830  0.82990  Biso   1.000  H
  H73      1.0000 0.78690  0.00520  0.32990  Biso   1.000  H
  H74      1.0000 0.99480  0.78170  0.32990  Biso   1.000  H
  H75      1.0000 0.21830  0.21310  0.32990  Biso   1.000  H
  H76      1.0000 0.21310  0.99480  0.82990  Biso   1.000  H
  H77      1.0000 0.00520  0.21830  0.82990  Biso   1.000  H
  H78      1.0000 0.78170  0.78690  0.82990  Biso   1.000  H
  H79      1.0000 0.00520  0.78690  0.67010  Biso   1.000  H
  H80      1.0000 0.78170  0.99480  0.67010  Biso   1.000  H
  H81      1.0000 0.21310  0.21830  0.67010  Biso   1.000  H
  H82      1.0000 0.99480  0.21310  0.17010  Biso   1.000  H
  H83      1.0000 0.21830  0.00520  0.17010  Biso   1.000  H
  H84      1.0000 0.78690  0.78170  0.17010  Biso   1.000  H
  C157     1.0000 0.20060  0.91810  0.63130  Biso   1.000  C
  C158     1.0000 0.08190  0.28250  0.63130  Biso   1.000  C
  C159     1.0000 0.71750  0.79940  0.63130  Biso   1.000  C
  C160     1.0000 0.79940  0.08190  0.13130  Biso   1.000  C
  C161     1.0000 0.91810  0.71750  0.13130  Biso   1.000  C
  C162     1.0000 0.28250  0.20060  0.13130  Biso   1.000  C
  C163     1.0000 0.91810  0.20060  0.36870  Biso   1.000  C
  C164     1.0000 0.28250  0.08190  0.36870  Biso   1.000  C
  C165     1.0000 0.79940  0.71750  0.36870  Biso   1.000  C
  C166     1.0000 0.08190  0.79940  0.86870  Biso   1.000  C
  C167     1.0000 0.71750  0.91810  0.86870  Biso   1.000  C
  C168     1.0000 0.20060  0.28250  0.86870  Biso   1.000  C
  C169     1.0000 0.79940  0.08190  0.36870  Biso   1.000  C
  C170     1.0000 0.91810  0.71750  0.36870  Biso   1.000  C
  C171     1.0000 0.28250  0.20060  0.36870  Biso   1.000  C
  C172     1.0000 0.20060  0.91810  0.86870  Biso   1.000  C
  C173     1.0000 0.08190  0.28250  0.86870  Biso   1.000  C
  C174     1.0000 0.71750  0.79940  0.86870  Biso   1.000  C
  C175     1.0000 0.08190  0.79940  0.63130  Biso   1.000  C
  C176     1.0000 0.71750  0.91810  0.63130  Biso   1.000  C
  C177     1.0000 0.20060  0.28250  0.63130  Biso   1.000  C
  C178     1.0000 0.91810  0.20060  0.13130  Biso   1.000  C
  C179     1.0000 0.28250  0.08190  0.13130  Biso   1.000  C
  C180     1.0000 0.79940  0.71750  0.13130  Biso   1.000  C
  H85      1.0000 0.25250  0.95610  0.62140  Biso   1.000  H
  H86      1.0000 0.04390  0.29640  0.62140  Biso   1.000  H
  H87      1.0000 0.70360  0.74750  0.62140  Biso   1.000  H
  H88      1.0000 0.74750  0.04390  0.12140  Biso   1.000  H
  H89      1.0000 0.95610  0.70360  0.12140  Biso   1.000  H
  H90      1.0000 0.29640  0.25250  0.12140  Biso   1.000  H
  H91      1.0000 0.95610  0.25250  0.37860  Biso   1.000  H
  H92      1.0000 0.29640  0.04390  0.37860  Biso   1.000  H
  H93      1.0000 0.74750  0.70360  0.37860  Biso   1.000  H
  H94      1.0000 0.04390  0.74750  0.87860  Biso   1.000  H
  H95      1.0000 0.70360  0.95610  0.87860  Biso   1.000  H
  H96      1.0000 0.25250  0.29640  0.87860  Biso   1.000  H
  H97      1.0000 0.74750  0.04390  0.37860  Biso   1.000  H
  H98      1.0000 0.95610  0.70360  0.37860  Biso   1.000  H
  H99      1.0000 0.29640  0.25250  0.37860  Biso   1.000  H
  H100     1.0000 0.25250  0.95610  0.87860  Biso   1.000  H
  H101     1.0000 0.04390  0.29640  0.87860  Biso   1.000  H
  H102     1.0000 0.70360  0.74750  0.87860  Biso   1.000  H
  H103     1.0000 0.04390  0.74750  0.62140  Biso   1.000  H
  H104     1.0000 0.70360  0.95610  0.62140  Biso   1.000  H
  H105     1.0000 0.25250  0.29640  0.62140  Biso   1.000  H
  H106     1.0000 0.95610  0.25250  0.12140  Biso   1.000  H
  H107     1.0000 0.29640  0.04390  0.12140  Biso   1.000  H
  H108     1.0000 0.74750  0.70360  0.12140  Biso   1.000  H
  H109     1.0000 0.26560  0.16230  0.76430  Biso   1.000  H
  H110     1.0000 0.83770  0.10330  0.76430  Biso   1.000  H
  H111     1.0000 0.89670  0.73440  0.76430  Biso   1.000  H
  H112     1.0000 0.73440  0.83770  0.26430  Biso   1.000  H
  H113     1.0000 0.16230  0.89670  0.26430  Biso   1.000  H
  H114     1.0000 0.10330  0.26560  0.26430  Biso   1.000  H
  H115     1.0000 0.16230  0.26560  0.23570  Biso   1.000  H
  H116     1.0000 0.10330  0.83770  0.23570  Biso   1.000  H
  H117     1.0000 0.73440  0.89670  0.23570  Biso   1.000  H
  H118     1.0000 0.83770  0.73440  0.73570  Biso   1.000  H
  H119     1.0000 0.89670  0.16230  0.73570  Biso   1.000  H
  H120     1.0000 0.26560  0.10330  0.73570  Biso   1.000  H
  H121     1.0000 0.73440  0.83770  0.23570  Biso   1.000  H
  H122     1.0000 0.16230  0.89670  0.23570  Biso   1.000  H
  H123     1.0000 0.10330  0.26560  0.23570  Biso   1.000  H
  H124     1.0000 0.26560  0.16230  0.73570  Biso   1.000  H
  H125     1.0000 0.83770  0.10330  0.73570  Biso   1.000  H
  H126     1.0000 0.89670  0.73440  0.73570  Biso   1.000  H
  H127     1.0000 0.83770  0.73440  0.76430  Biso   1.000  H
  H128     1.0000 0.89670  0.16230  0.76430  Biso   1.000  H
  H129     1.0000 0.26560  0.10330  0.76430  Biso   1.000  H
  H130     1.0000 0.16230  0.26560  0.26430  Biso   1.000  H
  H131     1.0000 0.10330  0.83770  0.26430  Biso   1.000  H
  H132     1.0000 0.73440  0.89670  0.26430  Biso   1.000  H
