data_image0
_cell_length_a       21.398
_cell_length_b       17.9035
_cell_length_c       17.4386
_cell_angle_alpha    90
_cell_angle_beta     105.302
_cell_angle_gamma    90

_symmetry_space_group_name_H-M    "P 1"
_symmetry_int_tables_number       1

loop_
  _symmetry_equiv_pos_as_xyz
  'x, y, z'

loop_
  _atom_site_label
  _atom_site_occupancy
  _atom_site_fract_x
  _atom_site_fract_y
  _atom_site_fract_z
  _atom_site_thermal_displace_type
  _atom_site_B_iso_or_equiv
  _atom_site_type_symbol
  Cu1      1.0000 0.27627  0.53219  0.24238  Biso   1.000  Cu
  Cu2      1.0000 0.77627  0.03219  0.24238  Biso   1.000  Cu
  Cu3      1.0000 0.72373  0.53219  0.25762  Biso   1.000  Cu
  Cu4      1.0000 0.22373  0.03219  0.25762  Biso   1.000  Cu
  Cu5      1.0000 0.72373  0.46781  0.75762  Biso   1.000  Cu
  Cu6      1.0000 0.22373  0.96781  0.75762  Biso   1.000  Cu
  Cu7      1.0000 0.27627  0.46781  0.74238  Biso   1.000  Cu
  Cu8      1.0000 0.77627  0.96781  0.74238  Biso   1.000  Cu
  N1       1.0000 0.36170  0.49640  0.31350  Biso   1.000  N
  N2       1.0000 0.86170  0.99640  0.31350  Biso   1.000  N
  N3       1.0000 0.63830  0.49640  0.18650  Biso   1.000  N
  N4       1.0000 0.13830  0.99640  0.18650  Biso   1.000  N
  N5       1.0000 0.63830  0.50360  0.68650  Biso   1.000  N
  N6       1.0000 0.13830  0.00360  0.68650  Biso   1.000  N
  N7       1.0000 0.36170  0.50360  0.81350  Biso   1.000  N
  N8       1.0000 0.86170  0.00360  0.81350  Biso   1.000  N
  C1       1.0000 0.36620  0.42910  0.34610  Biso   1.000  C
  C2       1.0000 0.86620  0.92910  0.34610  Biso   1.000  C
  C3       1.0000 0.63380  0.42910  0.15390  Biso   1.000  C
  C4       1.0000 0.13380  0.92910  0.15390  Biso   1.000  C
  C5       1.0000 0.63380  0.57090  0.65390  Biso   1.000  C
  C6       1.0000 0.13380  0.07090  0.65390  Biso   1.000  C
  C7       1.0000 0.36620  0.57090  0.84610  Biso   1.000  C
  C8       1.0000 0.86620  0.07090  0.84610  Biso   1.000  C
  H1       1.0000 0.32890  0.40010  0.33810  Biso   1.000  H
  H2       1.0000 0.82890  0.90010  0.33810  Biso   1.000  H
  H3       1.0000 0.67110  0.40010  0.16190  Biso   1.000  H
  H4       1.0000 0.17110  0.90010  0.16190  Biso   1.000  H
  H5       1.0000 0.67110  0.59990  0.66190  Biso   1.000  H
  H6       1.0000 0.17110  0.09990  0.66190  Biso   1.000  H
  H7       1.0000 0.32890  0.59990  0.83810  Biso   1.000  H
  H8       1.0000 0.82890  0.09990  0.83810  Biso   1.000  H
  C9       1.0000 0.42480  0.40000  0.39220  Biso   1.000  C
  C10      1.0000 0.92480  0.90000  0.39220  Biso   1.000  C
  C11      1.0000 0.57520  0.40000  0.10780  Biso   1.000  C
  C12      1.0000 0.07520  0.90000  0.10780  Biso   1.000  C
  C13      1.0000 0.57520  0.60000  0.60780  Biso   1.000  C
  C14      1.0000 0.07520  0.10000  0.60780  Biso   1.000  C
  C15      1.0000 0.42480  0.60000  0.89220  Biso   1.000  C
  C16      1.0000 0.92480  0.10000  0.89220  Biso   1.000  C
  C17      1.0000 0.47970  0.44510  0.40580  Biso   1.000  C
  C18      1.0000 0.97970  0.94510  0.40580  Biso   1.000  C
  C19      1.0000 0.52030  0.44510  0.09420  Biso   1.000  C
  C20      1.0000 0.02030  0.94510  0.09420  Biso   1.000  C
  C21      1.0000 0.52030  0.55490  0.59420  Biso   1.000  C
  C22      1.0000 0.02030  0.05490  0.59420  Biso   1.000  C
  C23      1.0000 0.47970  0.55490  0.90580  Biso   1.000  C
  C24      1.0000 0.97970  0.05490  0.90580  Biso   1.000  C
  H9       1.0000 0.51910  0.42910  0.43850  Biso   1.000  H
  H10      1.0000 0.01910  0.92910  0.43850  Biso   1.000  H
  H11      1.0000 0.48090  0.42910  0.06150  Biso   1.000  H
  H12      1.0000 0.98090  0.92910  0.06150  Biso   1.000  H
  H13      1.0000 0.48090  0.57090  0.56150  Biso   1.000  H
  H14      1.0000 0.98090  0.07090  0.56150  Biso   1.000  H
  H15      1.0000 0.51910  0.57090  0.93850  Biso   1.000  H
  H16      1.0000 0.01910  0.07090  0.93850  Biso   1.000  H
  C25      1.0000 0.47410  0.51400  0.36950  Biso   1.000  C
  C26      1.0000 0.97410  0.01400  0.36950  Biso   1.000  C
  C27      1.0000 0.52590  0.51400  0.13050  Biso   1.000  C
  C28      1.0000 0.02590  0.01400  0.13050  Biso   1.000  C
  C29      1.0000 0.52590  0.48600  0.63050  Biso   1.000  C
  C30      1.0000 0.02590  0.98600  0.63050  Biso   1.000  C
  C31      1.0000 0.47410  0.48600  0.86950  Biso   1.000  C
  C32      1.0000 0.97410  0.98600  0.86950  Biso   1.000  C
  H17      1.0000 0.51040  0.54430  0.37610  Biso   1.000  H
  H18      1.0000 0.01040  0.04430  0.37610  Biso   1.000  H
  H19      1.0000 0.48960  0.54430  0.12390  Biso   1.000  H
  H20      1.0000 0.98960  0.04430  0.12390  Biso   1.000  H
  H21      1.0000 0.48960  0.45570  0.62390  Biso   1.000  H
  H22      1.0000 0.98960  0.95570  0.62390  Biso   1.000  H
  H23      1.0000 0.51040  0.45570  0.87610  Biso   1.000  H
  H24      1.0000 0.01040  0.95570  0.87610  Biso   1.000  H
  C33      1.0000 0.41560  0.53810  0.32400  Biso   1.000  C
  C34      1.0000 0.91560  0.03810  0.32400  Biso   1.000  C
  C35      1.0000 0.58440  0.53810  0.17600  Biso   1.000  C
  C36      1.0000 0.08440  0.03810  0.17600  Biso   1.000  C
  C37      1.0000 0.58440  0.46190  0.67600  Biso   1.000  C
  C38      1.0000 0.08440  0.96190  0.67600  Biso   1.000  C
  C39      1.0000 0.41560  0.46190  0.82400  Biso   1.000  C
  C40      1.0000 0.91560  0.96190  0.82400  Biso   1.000  C
  H25      1.0000 0.41290  0.58460  0.29960  Biso   1.000  H
  H26      1.0000 0.91290  0.08460  0.29960  Biso   1.000  H
  H27      1.0000 0.58710  0.58460  0.20040  Biso   1.000  H
  H28      1.0000 0.08710  0.08460  0.20040  Biso   1.000  H
  H29      1.0000 0.58710  0.41540  0.70040  Biso   1.000  H
  H30      1.0000 0.08710  0.91540  0.70040  Biso   1.000  H
  H31      1.0000 0.41290  0.41540  0.79960  Biso   1.000  H
  H32      1.0000 0.91290  0.91540  0.79960  Biso   1.000  H
  N9       1.0000 0.42960  0.32920  0.42660  Biso   1.000  N
  N10      1.0000 0.92960  0.82920  0.42660  Biso   1.000  N
  N11      1.0000 0.57040  0.32920  0.07340  Biso   1.000  N
  N12      1.0000 0.07040  0.82920  0.07340  Biso   1.000  N
  N13      1.0000 0.57040  0.67080  0.57340  Biso   1.000  N
  N14      1.0000 0.07040  0.17080  0.57340  Biso   1.000  N
  N15      1.0000 0.42960  0.67080  0.92660  Biso   1.000  N
  N16      1.0000 0.92960  0.17080  0.92660  Biso   1.000  N
  H33      1.0000 0.45610  0.32320  0.47280  Biso   1.000  H
  H34      1.0000 0.95610  0.82320  0.47280  Biso   1.000  H
  H35      1.0000 0.54390  0.32320  0.02720  Biso   1.000  H
  H36      1.0000 0.04390  0.82320  0.02720  Biso   1.000  H
  H37      1.0000 0.54390  0.67680  0.52720  Biso   1.000  H
  H38      1.0000 0.04390  0.17680  0.52720  Biso   1.000  H
  H39      1.0000 0.45610  0.67680  0.97280  Biso   1.000  H
  H40      1.0000 0.95610  0.17680  0.97280  Biso   1.000  H
  C41      1.0000 0.39450  0.26840  0.39100  Biso   1.000  C
  C42      1.0000 0.89450  0.76840  0.39100  Biso   1.000  C
  C43      1.0000 0.60550  0.26840  0.10900  Biso   1.000  C
  C44      1.0000 0.10550  0.76840  0.10900  Biso   1.000  C
  C45      1.0000 0.60550  0.73160  0.60900  Biso   1.000  C
  C46      1.0000 0.10550  0.23160  0.60900  Biso   1.000  C
  C47      1.0000 0.39450  0.73160  0.89100  Biso   1.000  C
  C48      1.0000 0.89450  0.23160  0.89100  Biso   1.000  C
  O1       1.0000 0.34950  0.27250  0.33370  Biso   1.000  O
  O2       1.0000 0.84950  0.77250  0.33370  Biso   1.000  O
  O3       1.0000 0.65050  0.27250  0.16630  Biso   1.000  O
  O4       1.0000 0.15050  0.77250  0.16630  Biso   1.000  O
  O5       1.0000 0.65050  0.72750  0.66630  Biso   1.000  O
  O6       1.0000 0.15050  0.22750  0.66630  Biso   1.000  O
  O7       1.0000 0.34950  0.72750  0.83370  Biso   1.000  O
  O8       1.0000 0.84950  0.22750  0.83370  Biso   1.000  O
  N17      1.0000 0.41740  0.20240  0.42930  Biso   1.000  N
  N18      1.0000 0.91740  0.70240  0.42930  Biso   1.000  N
  N19      1.0000 0.58260  0.20240  0.07070  Biso   1.000  N
  N20      1.0000 0.08260  0.70240  0.07070  Biso   1.000  N
  N21      1.0000 0.58260  0.79760  0.57070  Biso   1.000  N
  N22      1.0000 0.08260  0.29760  0.57070  Biso   1.000  N
  N23      1.0000 0.41740  0.79760  0.92930  Biso   1.000  N
  N24      1.0000 0.91740  0.29760  0.92930  Biso   1.000  N
  H41      1.0000 0.44760  0.20560  0.47290  Biso   1.000  H
  H42      1.0000 0.94760  0.70560  0.47290  Biso   1.000  H
  H43      1.0000 0.55240  0.20560  0.02710  Biso   1.000  H
  H44      1.0000 0.05240  0.70560  0.02710  Biso   1.000  H
  H45      1.0000 0.55240  0.79440  0.52710  Biso   1.000  H
  H46      1.0000 0.05240  0.29440  0.52710  Biso   1.000  H
  H47      1.0000 0.44760  0.79440  0.97290  Biso   1.000  H
  H48      1.0000 0.94760  0.29440  0.97290  Biso   1.000  H
  C49      1.0000 0.39520  0.13020  0.40290  Biso   1.000  C
  C50      1.0000 0.89520  0.63020  0.40290  Biso   1.000  C
  C51      1.0000 0.60480  0.13020  0.09710  Biso   1.000  C
  C52      1.0000 0.10480  0.63020  0.09710  Biso   1.000  C
  C53      1.0000 0.60480  0.86980  0.59710  Biso   1.000  C
  C54      1.0000 0.10480  0.36980  0.59710  Biso   1.000  C
  C55      1.0000 0.39520  0.86980  0.90290  Biso   1.000  C
  C56      1.0000 0.89520  0.36980  0.90290  Biso   1.000  C
  C57      1.0000 0.33280  0.11740  0.35430  Biso   1.000  C
  C58      1.0000 0.83280  0.61740  0.35430  Biso   1.000  C
  C59      1.0000 0.66720  0.11740  0.14570  Biso   1.000  C
  C60      1.0000 0.16720  0.61740  0.14570  Biso   1.000  C
  C61      1.0000 0.66720  0.88260  0.64570  Biso   1.000  C
  C62      1.0000 0.16720  0.38260  0.64570  Biso   1.000  C
  C63      1.0000 0.33280  0.88260  0.85430  Biso   1.000  C
  C64      1.0000 0.83280  0.38260  0.85430  Biso   1.000  C
  H49      1.0000 0.30520  0.15780  0.33790  Biso   1.000  H
  H50      1.0000 0.80520  0.65780  0.33790  Biso   1.000  H
  H51      1.0000 0.69480  0.15780  0.16210  Biso   1.000  H
  H52      1.0000 0.19480  0.65780  0.16210  Biso   1.000  H
  H53      1.0000 0.69480  0.84220  0.66210  Biso   1.000  H
  H54      1.0000 0.19480  0.34220  0.66210  Biso   1.000  H
  H55      1.0000 0.30520  0.84220  0.83790  Biso   1.000  H
  H56      1.0000 0.80520  0.34220  0.83790  Biso   1.000  H
  N25      1.0000 0.31170  0.04900  0.33090  Biso   1.000  N
  N26      1.0000 0.81170  0.54900  0.33090  Biso   1.000  N
  N27      1.0000 0.68830  0.04900  0.16910  Biso   1.000  N
  N28      1.0000 0.18830  0.54900  0.16910  Biso   1.000  N
  N29      1.0000 0.68830  0.95100  0.66910  Biso   1.000  N
  N30      1.0000 0.18830  0.45100  0.66910  Biso   1.000  N
  N31      1.0000 0.31170  0.95100  0.83090  Biso   1.000  N
  N32      1.0000 0.81170  0.45100  0.83090  Biso   1.000  N
  C65      1.0000 0.35120  0.99100  0.35490  Biso   1.000  C
  C66      1.0000 0.85120  0.49100  0.35490  Biso   1.000  C
  C67      1.0000 0.64880  0.99100  0.14510  Biso   1.000  C
  C68      1.0000 0.14880  0.49100  0.14510  Biso   1.000  C
  C69      1.0000 0.64880  0.00900  0.64510  Biso   1.000  C
  C70      1.0000 0.14880  0.50900  0.64510  Biso   1.000  C
  C71      1.0000 0.35120  0.00900  0.85490  Biso   1.000  C
  C72      1.0000 0.85120  0.50900  0.85490  Biso   1.000  C
  H57      1.0000 0.33660  0.94330  0.33820  Biso   1.000  H
  H58      1.0000 0.83660  0.44330  0.33820  Biso   1.000  H
  H59      1.0000 0.66340  0.94330  0.16180  Biso   1.000  H
  H60      1.0000 0.16340  0.44330  0.16180  Biso   1.000  H
  H61      1.0000 0.66340  0.05670  0.66180  Biso   1.000  H
  H62      1.0000 0.16340  0.55670  0.66180  Biso   1.000  H
  H63      1.0000 0.33660  0.05670  0.83820  Biso   1.000  H
  H64      1.0000 0.83660  0.55670  0.83820  Biso   1.000  H
  C73      1.0000 0.41330  0.99980  0.40400  Biso   1.000  C
  C74      1.0000 0.91330  0.49980  0.40400  Biso   1.000  C
  C75      1.0000 0.58670  0.99980  0.09600  Biso   1.000  C
  C76      1.0000 0.08670  0.49980  0.09600  Biso   1.000  C
  C77      1.0000 0.58670  0.00020  0.59600  Biso   1.000  C
  C78      1.0000 0.08670  0.50020  0.59600  Biso   1.000  C
  C79      1.0000 0.41330  0.00020  0.90400  Biso   1.000  C
  C80      1.0000 0.91330  0.50020  0.90400  Biso   1.000  C
  H65      1.0000 0.43960  0.95840  0.42040  Biso   1.000  H
  H66      1.0000 0.93960  0.45840  0.42040  Biso   1.000  H
  H67      1.0000 0.56040  0.95840  0.07960  Biso   1.000  H
  H68      1.0000 0.06040  0.45840  0.07960  Biso   1.000  H
  H69      1.0000 0.56040  0.04160  0.57960  Biso   1.000  H
  H70      1.0000 0.06040  0.54160  0.57960  Biso   1.000  H
  H71      1.0000 0.43960  0.04160  0.92040  Biso   1.000  H
  H72      1.0000 0.93960  0.54160  0.92040  Biso   1.000  H
  C81      1.0000 0.43550  0.07000  0.42810  Biso   1.000  C
  C82      1.0000 0.93550  0.57000  0.42810  Biso   1.000  C
  C83      1.0000 0.56450  0.07000  0.07190  Biso   1.000  C
  C84      1.0000 0.06450  0.57000  0.07190  Biso   1.000  C
  C85      1.0000 0.56450  0.93000  0.57190  Biso   1.000  C
  C86      1.0000 0.06450  0.43000  0.57190  Biso   1.000  C
  C87      1.0000 0.43550  0.93000  0.92810  Biso   1.000  C
  C88      1.0000 0.93550  0.43000  0.92810  Biso   1.000  C
  H73      1.0000 0.47700  0.07700  0.46100  Biso   1.000  H
  H74      1.0000 0.97700  0.57700  0.46100  Biso   1.000  H
  H75      1.0000 0.52300  0.07700  0.03900  Biso   1.000  H
  H76      1.0000 0.02300  0.57700  0.03900  Biso   1.000  H
  H77      1.0000 0.52300  0.92300  0.53900  Biso   1.000  H
  H78      1.0000 0.02300  0.42300  0.53900  Biso   1.000  H
  H79      1.0000 0.47700  0.92300  0.96100  Biso   1.000  H
  H80      1.0000 0.97700  0.42300  0.96100  Biso   1.000  H
  N33      1.0000 0.30650  0.49670  0.14760  Biso   1.000  N
  N34      1.0000 0.80650  0.99670  0.14760  Biso   1.000  N
  N35      1.0000 0.69350  0.49670  0.35240  Biso   1.000  N
  N36      1.0000 0.19350  0.99670  0.35240  Biso   1.000  N
  N37      1.0000 0.69350  0.50330  0.85240  Biso   1.000  N
  N38      1.0000 0.19350  0.00330  0.85240  Biso   1.000  N
  N39      1.0000 0.30650  0.50330  0.64760  Biso   1.000  N
  N40      1.0000 0.80650  0.00330  0.64760  Biso   1.000  N
  C89      1.0000 0.30840  0.42390  0.13270  Biso   1.000  C
  C90      1.0000 0.80840  0.92390  0.13270  Biso   1.000  C
  C91      1.0000 0.69160  0.42390  0.36730  Biso   1.000  C
  C92      1.0000 0.19160  0.92390  0.36730  Biso   1.000  C
  C93      1.0000 0.69160  0.57610  0.86730  Biso   1.000  C
  C94      1.0000 0.19160  0.07610  0.86730  Biso   1.000  C
  C95      1.0000 0.30840  0.57610  0.63270  Biso   1.000  C
  C96      1.0000 0.80840  0.07610  0.63270  Biso   1.000  C
  H81      1.0000 0.29670  0.39000  0.16680  Biso   1.000  H
  H82      1.0000 0.79670  0.89000  0.16680  Biso   1.000  H
  H83      1.0000 0.70330  0.39000  0.33320  Biso   1.000  H
  H84      1.0000 0.20330  0.89000  0.33320  Biso   1.000  H
  H85      1.0000 0.70330  0.61000  0.83320  Biso   1.000  H
  H86      1.0000 0.20330  0.11000  0.83320  Biso   1.000  H
  H87      1.0000 0.29670  0.61000  0.66680  Biso   1.000  H
  H88      1.0000 0.79670  0.11000  0.66680  Biso   1.000  H
  C97      1.0000 0.32760  0.39690  0.06700  Biso   1.000  C
  C98      1.0000 0.82760  0.89690  0.06700  Biso   1.000  C
  C99      1.0000 0.67240  0.39690  0.43300  Biso   1.000  C
  C100     1.0000 0.17240  0.89690  0.43300  Biso   1.000  C
  C101     1.0000 0.67240  0.60310  0.93300  Biso   1.000  C
  C102     1.0000 0.17240  0.10310  0.93300  Biso   1.000  C
  C103     1.0000 0.32760  0.60310  0.56700  Biso   1.000  C
  C104     1.0000 0.82760  0.10310  0.56700  Biso   1.000  C
  C105     1.0000 0.34660  0.44800  0.01770  Biso   1.000  C
  C106     1.0000 0.84660  0.94800  0.01770  Biso   1.000  C
  C107     1.0000 0.65340  0.44800  0.48230  Biso   1.000  C
  C108     1.0000 0.15340  0.94800  0.48230  Biso   1.000  C
  C109     1.0000 0.65340  0.55200  0.98230  Biso   1.000  C
  C110     1.0000 0.15340  0.05200  0.98230  Biso   1.000  C
  C111     1.0000 0.34660  0.55200  0.51770  Biso   1.000  C
  C112     1.0000 0.84660  0.05200  0.51770  Biso   1.000  C
  H89      1.0000 0.36080  0.43190  0.97440  Biso   1.000  H
  H90      1.0000 0.86080  0.93190  0.97440  Biso   1.000  H
  H91      1.0000 0.63920  0.43190  0.52560  Biso   1.000  H
  H92      1.0000 0.13920  0.93190  0.52560  Biso   1.000  H
  H93      1.0000 0.63920  0.56810  0.02560  Biso   1.000  H
  H94      1.0000 0.13920  0.06810  0.02560  Biso   1.000  H
  H95      1.0000 0.36080  0.56810  0.47440  Biso   1.000  H
  H96      1.0000 0.86080  0.06810  0.47440  Biso   1.000  H
  C113     1.0000 0.34400  0.52290  0.03400  Biso   1.000  C
  C114     1.0000 0.84400  0.02290  0.03400  Biso   1.000  C
  C115     1.0000 0.65600  0.52290  0.46600  Biso   1.000  C
  C116     1.0000 0.15600  0.02290  0.46600  Biso   1.000  C
  C117     1.0000 0.65600  0.47710  0.96600  Biso   1.000  C
  C118     1.0000 0.15600  0.97710  0.96600  Biso   1.000  C
  C119     1.0000 0.34400  0.47710  0.53400  Biso   1.000  C
  C120     1.0000 0.84400  0.97710  0.53400  Biso   1.000  C
  H97      1.0000 0.35620  0.55810  0.00150  Biso   1.000  H
  H98      1.0000 0.85620  0.05810  0.00150  Biso   1.000  H
  H99      1.0000 0.64380  0.55810  0.49850  Biso   1.000  H
  H100     1.0000 0.14380  0.05810  0.49850  Biso   1.000  H
  H101     1.0000 0.64380  0.44190  0.99850  Biso   1.000  H
  H102     1.0000 0.14380  0.94190  0.99850  Biso   1.000  H
  H103     1.0000 0.35620  0.44190  0.50150  Biso   1.000  H
  H104     1.0000 0.85620  0.94190  0.50150  Biso   1.000  H
  C121     1.0000 0.32330  0.54570  0.09900  Biso   1.000  C
  C122     1.0000 0.82330  0.04570  0.09900  Biso   1.000  C
  C123     1.0000 0.67670  0.54570  0.40100  Biso   1.000  C
  C124     1.0000 0.17670  0.04570  0.40100  Biso   1.000  C
  C125     1.0000 0.67670  0.45430  0.90100  Biso   1.000  C
  C126     1.0000 0.17670  0.95430  0.90100  Biso   1.000  C
  C127     1.0000 0.32330  0.45430  0.59900  Biso   1.000  C
  C128     1.0000 0.82330  0.95430  0.59900  Biso   1.000  C
  H105     1.0000 0.32100  0.59650  0.10910  Biso   1.000  H
  H106     1.0000 0.82100  0.09650  0.10910  Biso   1.000  H
  H107     1.0000 0.67900  0.59650  0.39090  Biso   1.000  H
  H108     1.0000 0.17900  0.09650  0.39090  Biso   1.000  H
  H109     1.0000 0.67900  0.40350  0.89090  Biso   1.000  H
  H110     1.0000 0.17900  0.90350  0.89090  Biso   1.000  H
  H111     1.0000 0.32100  0.40350  0.60910  Biso   1.000  H
  H112     1.0000 0.82100  0.90350  0.60910  Biso   1.000  H
  N41      1.0000 0.33030  0.32080  0.04990  Biso   1.000  N
  N42      1.0000 0.83030  0.82080  0.04990  Biso   1.000  N
  N43      1.0000 0.66970  0.32080  0.45010  Biso   1.000  N
  N44      1.0000 0.16970  0.82080  0.45010  Biso   1.000  N
  N45      1.0000 0.66970  0.67920  0.95010  Biso   1.000  N
  N46      1.0000 0.16970  0.17920  0.95010  Biso   1.000  N
  N47      1.0000 0.33030  0.67920  0.54990  Biso   1.000  N
  N48      1.0000 0.83030  0.17920  0.54990  Biso   1.000  N
  H113     1.0000 0.34450  0.30990  0.00950  Biso   1.000  H
  H114     1.0000 0.84450  0.80990  0.00950  Biso   1.000  H
  H115     1.0000 0.65550  0.30990  0.49050  Biso   1.000  H
  H116     1.0000 0.15550  0.80990  0.49050  Biso   1.000  H
  H117     1.0000 0.65550  0.69010  0.99050  Biso   1.000  H
  H118     1.0000 0.15550  0.19010  0.99050  Biso   1.000  H
  H119     1.0000 0.34450  0.69010  0.50950  Biso   1.000  H
  H120     1.0000 0.84450  0.19010  0.50950  Biso   1.000  H
  C129     1.0000 0.31320  0.26200  0.08910  Biso   1.000  C
  C130     1.0000 0.81320  0.76200  0.08910  Biso   1.000  C
  C131     1.0000 0.68680  0.26200  0.41090  Biso   1.000  C
  C132     1.0000 0.18680  0.76200  0.41090  Biso   1.000  C
  C133     1.0000 0.68680  0.73800  0.91090  Biso   1.000  C
  C134     1.0000 0.18680  0.23800  0.91090  Biso   1.000  C
  C135     1.0000 0.31320  0.73800  0.58910  Biso   1.000  C
  C136     1.0000 0.81320  0.23800  0.58910  Biso   1.000  C
  O9       1.0000 0.29150  0.26870  0.14470  Biso   1.000  O
  O10      1.0000 0.79150  0.76870  0.14470  Biso   1.000  O
  O11      1.0000 0.70850  0.26870  0.35530  Biso   1.000  O
  O12      1.0000 0.20850  0.76870  0.35530  Biso   1.000  O
  O13      1.0000 0.70850  0.73130  0.85530  Biso   1.000  O
  O14      1.0000 0.20850  0.23130  0.85530  Biso   1.000  O
  O15      1.0000 0.29150  0.73130  0.64470  Biso   1.000  O
  O16      1.0000 0.79150  0.23130  0.64470  Biso   1.000  O
  N49      1.0000 0.32210  0.19370  0.05690  Biso   1.000  N
  N50      1.0000 0.82210  0.69370  0.05690  Biso   1.000  N
  N51      1.0000 0.67790  0.19370  0.44310  Biso   1.000  N
  N52      1.0000 0.17790  0.69370  0.44310  Biso   1.000  N
  N53      1.0000 0.67790  0.80630  0.94310  Biso   1.000  N
  N54      1.0000 0.17790  0.30630  0.94310  Biso   1.000  N
  N55      1.0000 0.32210  0.80630  0.55690  Biso   1.000  N
  N56      1.0000 0.82210  0.30630  0.55690  Biso   1.000  N
  H121     1.0000 0.33670  0.19430  0.01550  Biso   1.000  H
  H122     1.0000 0.83670  0.69430  0.01550  Biso   1.000  H
  H123     1.0000 0.66330  0.19430  0.48450  Biso   1.000  H
  H124     1.0000 0.16330  0.69430  0.48450  Biso   1.000  H
  H125     1.0000 0.66330  0.80570  0.98450  Biso   1.000  H
  H126     1.0000 0.16330  0.30570  0.98450  Biso   1.000  H
  H127     1.0000 0.33670  0.80570  0.51550  Biso   1.000  H
  H128     1.0000 0.83670  0.30570  0.51550  Biso   1.000  H
  C137     1.0000 0.31000  0.12410  0.08480  Biso   1.000  C
  C138     1.0000 0.81000  0.62410  0.08480  Biso   1.000  C
  C139     1.0000 0.69000  0.12410  0.41520  Biso   1.000  C
  C140     1.0000 0.19000  0.62410  0.41520  Biso   1.000  C
  C141     1.0000 0.69000  0.87590  0.91520  Biso   1.000  C
  C142     1.0000 0.19000  0.37590  0.91520  Biso   1.000  C
  C143     1.0000 0.31000  0.87590  0.58480  Biso   1.000  C
  C144     1.0000 0.81000  0.37590  0.58480  Biso   1.000  C
  C145     1.0000 0.27520  0.11250  0.14130  Biso   1.000  C
  C146     1.0000 0.77520  0.61250  0.14130  Biso   1.000  C
  C147     1.0000 0.72480  0.11250  0.35870  Biso   1.000  C
  C148     1.0000 0.22480  0.61250  0.35870  Biso   1.000  C
  C149     1.0000 0.72480  0.88750  0.85870  Biso   1.000  C
  C150     1.0000 0.22480  0.38750  0.85870  Biso   1.000  C
  C151     1.0000 0.27520  0.88750  0.64130  Biso   1.000  C
  C152     1.0000 0.77520  0.38750  0.64130  Biso   1.000  C
  H129     1.0000 0.25870  0.15360  0.16200  Biso   1.000  H
  H130     1.0000 0.75870  0.65360  0.16200  Biso   1.000  H
  H131     1.0000 0.74130  0.15360  0.33800  Biso   1.000  H
  H132     1.0000 0.24130  0.65360  0.33800  Biso   1.000  H
  H133     1.0000 0.74130  0.84640  0.83800  Biso   1.000  H
  H134     1.0000 0.24130  0.34640  0.83800  Biso   1.000  H
  H135     1.0000 0.25870  0.84640  0.66200  Biso   1.000  H
  H136     1.0000 0.75870  0.34640  0.66200  Biso   1.000  H
  N57      1.0000 0.26500  0.04390  0.16680  Biso   1.000  N
  N58      1.0000 0.76500  0.54390  0.16680  Biso   1.000  N
  N59      1.0000 0.73500  0.04390  0.33320  Biso   1.000  N
  N60      1.0000 0.23500  0.54390  0.33320  Biso   1.000  N
  N61      1.0000 0.73500  0.95610  0.83320  Biso   1.000  N
  N62      1.0000 0.23500  0.45610  0.83320  Biso   1.000  N
  N63      1.0000 0.26500  0.95610  0.66680  Biso   1.000  N
  N64      1.0000 0.76500  0.45610  0.66680  Biso   1.000  N
  C153     1.0000 0.28910  0.98430  0.13680  Biso   1.000  C
  C154     1.0000 0.78910  0.48430  0.13680  Biso   1.000  C
  C155     1.0000 0.71090  0.98430  0.36320  Biso   1.000  C
  C156     1.0000 0.21090  0.48430  0.36320  Biso   1.000  C
  C157     1.0000 0.71090  0.01570  0.86320  Biso   1.000  C
  C158     1.0000 0.21090  0.51570  0.86320  Biso   1.000  C
  C159     1.0000 0.28910  0.01570  0.63680  Biso   1.000  C
  C160     1.0000 0.78910  0.51570  0.63680  Biso   1.000  C
  H137     1.0000 0.28240  0.93670  0.15450  Biso   1.000  H
  H138     1.0000 0.78240  0.43670  0.15450  Biso   1.000  H
  H139     1.0000 0.71760  0.93670  0.34550  Biso   1.000  H
  H140     1.0000 0.21760  0.43670  0.34550  Biso   1.000  H
  H141     1.0000 0.71760  0.06330  0.84550  Biso   1.000  H
  H142     1.0000 0.21760  0.56330  0.84550  Biso   1.000  H
  H143     1.0000 0.28240  0.06330  0.65450  Biso   1.000  H
  H144     1.0000 0.78240  0.56330  0.65450  Biso   1.000  H
  C161     1.0000 0.32350  0.99230  0.08040  Biso   1.000  C
  C162     1.0000 0.82350  0.49230  0.08040  Biso   1.000  C
  C163     1.0000 0.67650  0.99230  0.41960  Biso   1.000  C
  C164     1.0000 0.17650  0.49230  0.41960  Biso   1.000  C
  C165     1.0000 0.67650  0.00770  0.91960  Biso   1.000  C
  C166     1.0000 0.17650  0.50770  0.91960  Biso   1.000  C
  C167     1.0000 0.32350  0.00770  0.58040  Biso   1.000  C
  C168     1.0000 0.82350  0.50770  0.58040  Biso   1.000  C
  H145     1.0000 0.33970  0.95020  0.06090  Biso   1.000  H
  H146     1.0000 0.83970  0.45020  0.06090  Biso   1.000  H
  H147     1.0000 0.66030  0.95020  0.43910  Biso   1.000  H
  H148     1.0000 0.16030  0.45020  0.43910  Biso   1.000  H
  H149     1.0000 0.66030  0.04980  0.93910  Biso   1.000  H
  H150     1.0000 0.16030  0.54980  0.93910  Biso   1.000  H
  H151     1.0000 0.33970  0.04980  0.56090  Biso   1.000  H
  H152     1.0000 0.83970  0.54980  0.56090  Biso   1.000  H
  C169     1.0000 0.33410  0.06190  0.05310  Biso   1.000  C
  C170     1.0000 0.83410  0.56190  0.05310  Biso   1.000  C
  C171     1.0000 0.66590  0.06190  0.44690  Biso   1.000  C
  C172     1.0000 0.16590  0.56190  0.44690  Biso   1.000  C
  C173     1.0000 0.66590  0.93810  0.94690  Biso   1.000  C
  C174     1.0000 0.16590  0.43810  0.94690  Biso   1.000  C
  C175     1.0000 0.33410  0.93810  0.55310  Biso   1.000  C
  C176     1.0000 0.83410  0.43810  0.55310  Biso   1.000  C
  H153     1.0000 0.35660  0.06750  0.01450  Biso   1.000  H
  H154     1.0000 0.85660  0.56750  0.01450  Biso   1.000  H
  H155     1.0000 0.64340  0.06750  0.48550  Biso   1.000  H
  H156     1.0000 0.14340  0.56750  0.48550  Biso   1.000  H
  H157     1.0000 0.64340  0.93250  0.98550  Biso   1.000  H
  H158     1.0000 0.14340  0.43250  0.98550  Biso   1.000  H
  H159     1.0000 0.35660  0.93250  0.51450  Biso   1.000  H
  H160     1.0000 0.85660  0.43250  0.51450  Biso   1.000  H
  O17      1.0000 0.30754  0.65210  0.24190  Biso   1.000  O
  O18      1.0000 0.80754  0.15210  0.24190  Biso   1.000  O
  O19      1.0000 0.69246  0.65210  0.25810  Biso   1.000  O
  O20      1.0000 0.19246  0.15210  0.25810  Biso   1.000  O
  O21      1.0000 0.69246  0.34790  0.75810  Biso   1.000  O
  O22      1.0000 0.19246  0.84790  0.75810  Biso   1.000  O
  O23      1.0000 0.30754  0.34790  0.74190  Biso   1.000  O
  O24      1.0000 0.80754  0.84790  0.74190  Biso   1.000  O
  O25      1.0000 0.22514  0.34110  0.25470  Biso   1.000  O
  O26      1.0000 0.72514  0.84110  0.25470  Biso   1.000  O
  O27      1.0000 0.77486  0.34110  0.24530  Biso   1.000  O
  O28      1.0000 0.27486  0.84110  0.24530  Biso   1.000  O
  O29      1.0000 0.77486  0.65890  0.74530  Biso   1.000  O
  O30      1.0000 0.27486  0.15890  0.74530  Biso   1.000  O
  O31      1.0000 0.22514  0.65890  0.75470  Biso   1.000  O
  O32      1.0000 0.72514  0.15890  0.75470  Biso   1.000  O
  Si1      1.0000 0.57393  0.23951  0.59029  Biso   1.000  Si
  Si2      1.0000 0.07393  0.73951  0.59029  Biso   1.000  Si
  Si3      1.0000 0.42607  0.23951  0.90971  Biso   1.000  Si
  Si4      1.0000 0.92607  0.73951  0.90971  Biso   1.000  Si
  Si5      1.0000 0.42607  0.76049  0.40971  Biso   1.000  Si
  Si6      1.0000 0.92607  0.26049  0.40971  Biso   1.000  Si
  Si7      1.0000 0.57393  0.76049  0.09029  Biso   1.000  Si
  Si8      1.0000 0.07393  0.26049  0.09029  Biso   1.000  Si
  F1       1.0000 0.51732  0.17163  0.57855  Biso   1.000  F
  F2       1.0000 0.01732  0.67163  0.57855  Biso   1.000  F
  F3       1.0000 0.48268  0.17163  0.92145  Biso   1.000  F
  F4       1.0000 0.98268  0.67163  0.92145  Biso   1.000  F
  F5       1.0000 0.48268  0.82837  0.42145  Biso   1.000  F
  F6       1.0000 0.98268  0.32837  0.42145  Biso   1.000  F
  F7       1.0000 0.51732  0.82837  0.07855  Biso   1.000  F
  F8       1.0000 0.01732  0.32837  0.07855  Biso   1.000  F
  F9       1.0000 0.63057  0.30747  0.59959  Biso   1.000  F
  F10      1.0000 0.13057  0.80747  0.59959  Biso   1.000  F
  F11      1.0000 0.36943  0.30747  0.90041  Biso   1.000  F
  F12      1.0000 0.86943  0.80747  0.90041  Biso   1.000  F
  F13      1.0000 0.36943  0.69253  0.40041  Biso   1.000  F
  F14      1.0000 0.86943  0.19253  0.40041  Biso   1.000  F
  F15      1.0000 0.63057  0.69253  0.09959  Biso   1.000  F
  F16      1.0000 0.13057  0.19253  0.09959  Biso   1.000  F
  F17      1.0000 0.62962  0.17673  0.58320  Biso   1.000  F
  F18      1.0000 0.12962  0.67673  0.58320  Biso   1.000  F
  F19      1.0000 0.37038  0.17673  0.91680  Biso   1.000  F
  F20      1.0000 0.87038  0.67673  0.91680  Biso   1.000  F
  F21      1.0000 0.37038  0.82327  0.41680  Biso   1.000  F
  F22      1.0000 0.87038  0.32327  0.41680  Biso   1.000  F
  F23      1.0000 0.62962  0.82327  0.08320  Biso   1.000  F
  F24      1.0000 0.12962  0.32327  0.08320  Biso   1.000  F
  F25      1.0000 0.55580  0.25080  0.48993  Biso   1.000  F
  F26      1.0000 0.05580  0.75080  0.48993  Biso   1.000  F
  F27      1.0000 0.44420  0.25080  0.01007  Biso   1.000  F
  F28      1.0000 0.94420  0.75080  0.01007  Biso   1.000  F
  F29      1.0000 0.44420  0.74920  0.51007  Biso   1.000  F
  F30      1.0000 0.94420  0.24920  0.51007  Biso   1.000  F
  F31      1.0000 0.55580  0.74920  0.98993  Biso   1.000  F
  F32      1.0000 0.05580  0.24920  0.98993  Biso   1.000  F
  F33      1.0000 0.59284  0.22890  0.68853  Biso   1.000  F
  F34      1.0000 0.09284  0.72890  0.68853  Biso   1.000  F
  F35      1.0000 0.40716  0.22890  0.81147  Biso   1.000  F
  F36      1.0000 0.90716  0.72890  0.81147  Biso   1.000  F
  F37      1.0000 0.40716  0.77110  0.31147  Biso   1.000  F
  F38      1.0000 0.90716  0.27110  0.31147  Biso   1.000  F
  F39      1.0000 0.59284  0.77110  0.18853  Biso   1.000  F
  F40      1.0000 0.09284  0.27110  0.18853  Biso   1.000  F
  F41      1.0000 0.51709  0.30309  0.59240  Biso   1.000  F
  F42      1.0000 0.01709  0.80309  0.59240  Biso   1.000  F
  F43      1.0000 0.48291  0.30309  0.90760  Biso   1.000  F
  F44      1.0000 0.98291  0.80309  0.90760  Biso   1.000  F
  F45      1.0000 0.48291  0.69691  0.40760  Biso   1.000  F
  F46      1.0000 0.98291  0.19691  0.40760  Biso   1.000  F
  F47      1.0000 0.51709  0.69691  0.09240  Biso   1.000  F
  F48      1.0000 0.01709  0.19691  0.09240  Biso   1.000  F
  O33      1.0000 0.30650  0.73380  0.09670  Biso   1.000  O
  O34      1.0000 0.80650  0.23380  0.09670  Biso   1.000  O
  O35      1.0000 0.69350  0.73380  0.40330  Biso   1.000  O
  O36      1.0000 0.19350  0.23380  0.40330  Biso   1.000  O
  O37      1.0000 0.69350  0.26620  0.90330  Biso   1.000  O
  O38      1.0000 0.19350  0.76620  0.90330  Biso   1.000  O
  O39      1.0000 0.30650  0.26620  0.59670  Biso   1.000  O
  O40      1.0000 0.80650  0.76620  0.59670  Biso   1.000  O
  C177     1.0000 0.24930  0.76420  0.04370  Biso   1.000  C
  C178     1.0000 0.74930  0.26420  0.04370  Biso   1.000  C
  C179     1.0000 0.75070  0.76420  0.45630  Biso   1.000  C
  C180     1.0000 0.25070  0.26420  0.45630  Biso   1.000  C
  C181     1.0000 0.75070  0.23580  0.95630  Biso   1.000  C
  C182     1.0000 0.25070  0.73580  0.95630  Biso   1.000  C
  C183     1.0000 0.24930  0.23580  0.54370  Biso   1.000  C
  C184     1.0000 0.74930  0.73580  0.54370  Biso   1.000  C
  H161     1.0000 0.33500  0.66700  0.29100  Biso   1.000  H
  H162     1.0000 0.83500  0.16700  0.29100  Biso   1.000  H
  H163     1.0000 0.66500  0.66700  0.20900  Biso   1.000  H
  H164     1.0000 0.16500  0.16700  0.20900  Biso   1.000  H
  H165     1.0000 0.66500  0.33300  0.70900  Biso   1.000  H
  H166     1.0000 0.16500  0.83300  0.70900  Biso   1.000  H
  H167     1.0000 0.33500  0.33300  0.79100  Biso   1.000  H
  H168     1.0000 0.83500  0.83300  0.79100  Biso   1.000  H
  H169     1.0000 0.32400  0.66500  0.19800  Biso   1.000  H
  H170     1.0000 0.82400  0.16500  0.19800  Biso   1.000  H
  H171     1.0000 0.67600  0.66500  0.30200  Biso   1.000  H
  H172     1.0000 0.17600  0.16500  0.30200  Biso   1.000  H
  H173     1.0000 0.67600  0.33500  0.80200  Biso   1.000  H
  H174     1.0000 0.17600  0.83500  0.80200  Biso   1.000  H
  H175     1.0000 0.32400  0.33500  0.69800  Biso   1.000  H
  H176     1.0000 0.82400  0.83500  0.69800  Biso   1.000  H
  H177     1.0000 0.18510  0.33510  0.22660  Biso   1.000  H
  H178     1.0000 0.68510  0.83510  0.22660  Biso   1.000  H
  H179     1.0000 0.81490  0.33510  0.27340  Biso   1.000  H
  H180     1.0000 0.31490  0.83510  0.27340  Biso   1.000  H
  H181     1.0000 0.81490  0.66490  0.77340  Biso   1.000  H
  H182     1.0000 0.31490  0.16490  0.77340  Biso   1.000  H
  H183     1.0000 0.18510  0.66490  0.72660  Biso   1.000  H
  H184     1.0000 0.68510  0.16490  0.72660  Biso   1.000  H
  H185     1.0000 0.25220  0.32690  0.24370  Biso   1.000  H
  H186     1.0000 0.75220  0.82690  0.24370  Biso   1.000  H
  H187     1.0000 0.74780  0.32690  0.25630  Biso   1.000  H
  H188     1.0000 0.24780  0.82690  0.25630  Biso   1.000  H
  H189     1.0000 0.74780  0.67310  0.75630  Biso   1.000  H
  H190     1.0000 0.24780  0.17310  0.75630  Biso   1.000  H
  H191     1.0000 0.25220  0.67310  0.74370  Biso   1.000  H
  H192     1.0000 0.75220  0.17310  0.74370  Biso   1.000  H
