data_image0
_cell_length_a       8.7969
_cell_length_b       17.9832
_cell_length_c       17.5198
_cell_angle_alpha    90
_cell_angle_beta     90.364
_cell_angle_gamma    90

_symmetry_space_group_name_H-M    "P 1"
_symmetry_int_tables_number       1

loop_
  _symmetry_equiv_pos_as_xyz
  'x, y, z'

loop_
  _atom_site_label
  _atom_site_occupancy
  _atom_site_fract_x
  _atom_site_fract_y
  _atom_site_fract_z
  _atom_site_thermal_displace_type
  _atom_site_B_iso_or_equiv
  _atom_site_type_symbol
  Cu1      1.0000 0.45889  0.68693  0.76820  Biso   1.000  Cu
  Cu2      1.0000 0.54111  0.18693  0.73180  Biso   1.000  Cu
  Cu3      1.0000 0.54111  0.31307  0.23180  Biso   1.000  Cu
  Cu4      1.0000 0.45889  0.81307  0.26820  Biso   1.000  Cu
  N1       1.0000 0.38000  0.71929  0.87178  Biso   1.000  N
  N2       1.0000 0.62000  0.21929  0.62822  Biso   1.000  N
  N3       1.0000 0.62000  0.28071  0.12822  Biso   1.000  N
  N4       1.0000 0.38000  0.78071  0.37178  Biso   1.000  N
  C1       1.0000 0.35550  0.67024  0.92813  Biso   1.000  C
  C2       1.0000 0.64450  0.17024  0.57187  Biso   1.000  C
  C3       1.0000 0.64450  0.32976  0.07187  Biso   1.000  C
  C4       1.0000 0.35550  0.82976  0.42813  Biso   1.000  C
  H1       1.0000 0.38050  0.62050  0.92080  Biso   1.000  H
  H2       1.0000 0.61950  0.12050  0.57920  Biso   1.000  H
  H3       1.0000 0.61950  0.37950  0.07920  Biso   1.000  H
  H4       1.0000 0.38050  0.87950  0.42080  Biso   1.000  H
  C5       1.0000 0.29340  0.69242  0.99729  Biso   1.000  C
  C6       1.0000 0.70660  0.19242  0.50271  Biso   1.000  C
  C7       1.0000 0.70660  0.30758  0.00271  Biso   1.000  C
  C8       1.0000 0.29340  0.80758  0.49729  Biso   1.000  C
  H5       1.0000 0.27230  0.65750  0.03490  Biso   1.000  H
  H6       1.0000 0.72770  0.15750  0.46510  Biso   1.000  H
  H7       1.0000 0.72770  0.34250  0.96510  Biso   1.000  H
  H8       1.0000 0.27230  0.84250  0.53490  Biso   1.000  H
  C9       1.0000 0.26330  0.76690  0.00959  Biso   1.000  C
  C10      1.0000 0.73670  0.26690  0.49041  Biso   1.000  C
  C11      1.0000 0.73670  0.23310  0.99041  Biso   1.000  C
  C12      1.0000 0.26330  0.73310  0.50959  Biso   1.000  C
  H9       1.0000 0.22110  0.78240  0.05540  Biso   1.000  H
  H10      1.0000 0.77890  0.28240  0.44460  Biso   1.000  H
  H11      1.0000 0.77890  0.21760  0.94460  Biso   1.000  H
  H12      1.0000 0.22110  0.71760  0.55540  Biso   1.000  H
  C13      1.0000 0.29660  0.81846  0.95287  Biso   1.000  C
  C14      1.0000 0.70340  0.31846  0.54713  Biso   1.000  C
  C15      1.0000 0.70340  0.18154  0.04713  Biso   1.000  C
  C16      1.0000 0.29660  0.68154  0.45287  Biso   1.000  C
  C17      1.0000 0.34930  0.79155  0.88325  Biso   1.000  C
  C18      1.0000 0.65070  0.29155  0.61675  Biso   1.000  C
  C19      1.0000 0.65070  0.20845  0.11675  Biso   1.000  C
  C20      1.0000 0.34930  0.70845  0.38325  Biso   1.000  C
  H13      1.0000 0.36370  0.82480  0.84330  Biso   1.000  H
  H14      1.0000 0.63630  0.32480  0.65670  Biso   1.000  H
  H15      1.0000 0.63630  0.17520  0.15670  Biso   1.000  H
  H16      1.0000 0.36370  0.67520  0.34330  Biso   1.000  H
  N5       1.0000 0.27530  0.89402  0.96731  Biso   1.000  N
  N6       1.0000 0.72470  0.39402  0.53269  Biso   1.000  N
  N7       1.0000 0.72470  0.10598  0.03269  Biso   1.000  N
  N8       1.0000 0.27530  0.60598  0.46731  Biso   1.000  N
  H17      1.0000 0.20990  0.90600  0.00140  Biso   1.000  H
  H18      1.0000 0.79010  0.40600  0.49860  Biso   1.000  H
  H19      1.0000 0.79010  0.09400  0.99860  Biso   1.000  H
  H20      1.0000 0.20990  0.59400  0.50140  Biso   1.000  H
  C21      1.0000 0.35140  0.95116  0.93098  Biso   1.000  C
  C22      1.0000 0.64860  0.45116  0.56902  Biso   1.000  C
  C23      1.0000 0.64860  0.04884  0.06902  Biso   1.000  C
  C24      1.0000 0.35140  0.54884  0.43098  Biso   1.000  C
  O1       1.0000 0.43890  0.94244  0.87846  Biso   1.000  O
  O2       1.0000 0.56110  0.44244  0.62154  Biso   1.000  O
  O3       1.0000 0.56110  0.05756  0.12154  Biso   1.000  O
  O4       1.0000 0.43890  0.55756  0.37846  Biso   1.000  O
  N9       1.0000 0.31860  0.01888  0.96315  Biso   1.000  N
  N10      1.0000 0.68140  0.51888  0.53685  Biso   1.000  N
  N11      1.0000 0.68140  0.98112  0.03685  Biso   1.000  N
  N12      1.0000 0.31860  0.48112  0.46315  Biso   1.000  N
  H21      1.0000 0.26890  0.01810  0.00530  Biso   1.000  H
  H22      1.0000 0.73110  0.51810  0.49470  Biso   1.000  H
  H23      1.0000 0.73110  0.98190  0.99470  Biso   1.000  H
  H24      1.0000 0.26890  0.48190  0.50530  Biso   1.000  H
  C25      1.0000 0.35750  0.08875  0.93466  Biso   1.000  C
  C26      1.0000 0.64250  0.58875  0.56534  Biso   1.000  C
  C27      1.0000 0.64250  0.91125  0.06534  Biso   1.000  C
  C28      1.0000 0.35750  0.41125  0.43466  Biso   1.000  C
  C29      1.0000 0.32190  0.15096  0.97857  Biso   1.000  C
  C30      1.0000 0.67810  0.65096  0.52143  Biso   1.000  C
  C31      1.0000 0.67810  0.84904  0.02143  Biso   1.000  C
  C32      1.0000 0.32190  0.34904  0.47857  Biso   1.000  C
  H25      1.0000 0.27610  0.14520  0.02590  Biso   1.000  H
  H26      1.0000 0.72390  0.64520  0.47410  Biso   1.000  H
  H27      1.0000 0.72390  0.85480  0.97410  Biso   1.000  H
  H28      1.0000 0.27610  0.35480  0.52590  Biso   1.000  H
  C33      1.0000 0.35490  0.22103  0.95151  Biso   1.000  C
  C34      1.0000 0.64510  0.72103  0.54849  Biso   1.000  C
  C35      1.0000 0.64510  0.77897  0.04849  Biso   1.000  C
  C36      1.0000 0.35490  0.27897  0.45151  Biso   1.000  C
  H29      1.0000 0.33190  0.26290  0.98040  Biso   1.000  H
  H30      1.0000 0.66810  0.76290  0.51960  Biso   1.000  H
  H31      1.0000 0.66810  0.73710  0.01960  Biso   1.000  H
  H32      1.0000 0.33190  0.23710  0.48040  Biso   1.000  H
  C37      1.0000 0.42250  0.22840  0.88094  Biso   1.000  C
  C38      1.0000 0.57750  0.72840  0.61906  Biso   1.000  C
  C39      1.0000 0.57750  0.77160  0.11906  Biso   1.000  C
  C40      1.0000 0.42250  0.27160  0.38094  Biso   1.000  C
  H33      1.0000 0.44530  0.27570  0.86290  Biso   1.000  H
  H34      1.0000 0.55470  0.77570  0.63710  Biso   1.000  H
  H35      1.0000 0.55470  0.72430  0.13710  Biso   1.000  H
  H36      1.0000 0.44530  0.22430  0.36290  Biso   1.000  H
  N13      1.0000 0.45640  0.16873  0.83761  Biso   1.000  N
  N14      1.0000 0.54360  0.66873  0.66239  Biso   1.000  N
  N15      1.0000 0.54360  0.83127  0.16239  Biso   1.000  N
  N16      1.0000 0.45640  0.33127  0.33761  Biso   1.000  N
  C41      1.0000 0.42510  0.10019  0.86397  Biso   1.000  C
  C42      1.0000 0.57490  0.60019  0.63603  Biso   1.000  C
  C43      1.0000 0.57490  0.89981  0.13603  Biso   1.000  C
  C44      1.0000 0.42510  0.39981  0.36397  Biso   1.000  C
  H37      1.0000 0.44940  0.05920  0.83410  Biso   1.000  H
  H38      1.0000 0.55060  0.55920  0.66590  Biso   1.000  H
  H39      1.0000 0.55060  0.94080  0.16590  Biso   1.000  H
  H40      1.0000 0.44940  0.44080  0.33410  Biso   1.000  H
  N17      1.0000 0.25660  0.71863  0.72272  Biso   1.000  N
  N18      1.0000 0.74340  0.21863  0.77728  Biso   1.000  N
  N19      1.0000 0.74340  0.28137  0.27728  Biso   1.000  N
  N20      1.0000 0.25660  0.78137  0.22272  Biso   1.000  N
  C45      1.0000 0.14300  0.66933  0.71517  Biso   1.000  C
  C46      1.0000 0.85700  0.16933  0.78483  Biso   1.000  C
  C47      1.0000 0.85700  0.33067  0.28483  Biso   1.000  C
  C48      1.0000 0.14300  0.83067  0.21517  Biso   1.000  C
  H41      1.0000 0.15980  0.62020  0.72940  Biso   1.000  H
  H42      1.0000 0.84020  0.12020  0.77060  Biso   1.000  H
  H43      1.0000 0.84020  0.37980  0.27060  Biso   1.000  H
  H44      1.0000 0.15980  0.87980  0.22940  Biso   1.000  H
  C49      1.0000 0.00120  0.68938  0.68679  Biso   1.000  C
  C50      1.0000 0.99880  0.18938  0.81321  Biso   1.000  C
  C51      1.0000 0.99880  0.31062  0.31321  Biso   1.000  C
  C52      1.0000 0.00120  0.81062  0.18679  Biso   1.000  C
  H45      1.0000 0.92480  0.65400  0.68100  Biso   1.000  H
  H46      1.0000 0.07520  0.15400  0.81900  Biso   1.000  H
  H47      1.0000 0.07520  0.34600  0.31900  Biso   1.000  H
  H48      1.0000 0.92480  0.84600  0.18100  Biso   1.000  H
  C53      1.0000 0.97560  0.76228  0.66742  Biso   1.000  C
  C54      1.0000 0.02440  0.26228  0.83258  Biso   1.000  C
  C55      1.0000 0.02440  0.23772  0.33258  Biso   1.000  C
  C56      1.0000 0.97560  0.73772  0.16742  Biso   1.000  C
  H49      1.0000 0.88090  0.77680  0.64880  Biso   1.000  H
  H50      1.0000 0.11910  0.27680  0.85120  Biso   1.000  H
  H51      1.0000 0.11910  0.22320  0.35120  Biso   1.000  H
  H52      1.0000 0.88090  0.72320  0.14880  Biso   1.000  H
  C57      1.0000 0.09180  0.81459  0.67575  Biso   1.000  C
  C58      1.0000 0.90820  0.31459  0.82425  Biso   1.000  C
  C59      1.0000 0.90820  0.18541  0.32425  Biso   1.000  C
  C60      1.0000 0.09180  0.68541  0.17575  Biso   1.000  C
  C61      1.0000 0.23230  0.79013  0.70248  Biso   1.000  C
  C62      1.0000 0.76770  0.29013  0.79752  Biso   1.000  C
  C63      1.0000 0.76770  0.20987  0.29752  Biso   1.000  C
  C64      1.0000 0.23230  0.70987  0.20248  Biso   1.000  C
  H53      1.0000 0.31180  0.82400  0.70650  Biso   1.000  H
  H54      1.0000 0.68820  0.32400  0.79350  Biso   1.000  H
  H55      1.0000 0.68820  0.17600  0.29350  Biso   1.000  H
  H56      1.0000 0.31180  0.67600  0.20650  Biso   1.000  H
  N21      1.0000 0.06000  0.88739  0.65400  Biso   1.000  N
  N22      1.0000 0.94000  0.38739  0.84600  Biso   1.000  N
  N23      1.0000 0.94000  0.11261  0.34600  Biso   1.000  N
  N24      1.0000 0.06000  0.61261  0.15400  Biso   1.000  N
  H57      1.0000 0.97480  0.89490  0.63100  Biso   1.000  H
  H58      1.0000 0.02520  0.39490  0.86900  Biso   1.000  H
  H59      1.0000 0.02520  0.10510  0.36900  Biso   1.000  H
  H60      1.0000 0.97480  0.60510  0.13100  Biso   1.000  H
  C65      1.0000 0.15190  0.94892  0.66570  Biso   1.000  C
  C66      1.0000 0.84810  0.44892  0.83430  Biso   1.000  C
  C67      1.0000 0.84810  0.05108  0.33430  Biso   1.000  C
  C68      1.0000 0.15190  0.55108  0.16570  Biso   1.000  C
  O5       1.0000 0.27780  0.94562  0.69310  Biso   1.000  O
  O6       1.0000 0.72220  0.44562  0.80690  Biso   1.000  O
  O7       1.0000 0.72220  0.05438  0.30690  Biso   1.000  O
  O8       1.0000 0.27780  0.55438  0.19310  Biso   1.000  O
  N25      1.0000 0.08030  0.01300  0.64163  Biso   1.000  N
  N26      1.0000 0.91970  0.51300  0.85837  Biso   1.000  N
  N27      1.0000 0.91970  0.98700  0.35837  Biso   1.000  N
  N28      1.0000 0.08030  0.48700  0.14163  Biso   1.000  N
  H61      1.0000 0.99120  0.00830  0.62180  Biso   1.000  H
  H62      1.0000 0.00880  0.50830  0.87820  Biso   1.000  H
  H63      1.0000 0.00880  0.99170  0.37820  Biso   1.000  H
  H64      1.0000 0.99120  0.49170  0.12180  Biso   1.000  H
  C69      1.0000 0.13960  0.08466  0.64666  Biso   1.000  C
  C70      1.0000 0.86040  0.58466  0.85334  Biso   1.000  C
  C71      1.0000 0.86040  0.91534  0.35334  Biso   1.000  C
  C72      1.0000 0.13960  0.41534  0.14666  Biso   1.000  C
  C73      1.0000 0.05730  0.14342  0.61387  Biso   1.000  C
  C74      1.0000 0.94270  0.64342  0.88613  Biso   1.000  C
  C75      1.0000 0.94270  0.85658  0.38613  Biso   1.000  C
  C76      1.0000 0.05730  0.35658  0.11387  Biso   1.000  C
  H65      1.0000 0.96530  0.13430  0.58910  Biso   1.000  H
  H66      1.0000 0.03470  0.63430  0.91090  Biso   1.000  H
  H67      1.0000 0.03470  0.86570  0.41090  Biso   1.000  H
  H68      1.0000 0.96530  0.36570  0.08910  Biso   1.000  H
  C77      1.0000 0.11350  0.21459  0.61854  Biso   1.000  C
  C78      1.0000 0.88650  0.71459  0.88146  Biso   1.000  C
  C79      1.0000 0.88650  0.78541  0.38146  Biso   1.000  C
  C80      1.0000 0.11350  0.28541  0.11854  Biso   1.000  C
  H69      1.0000 0.05880  0.25410  0.59790  Biso   1.000  H
  H70      1.0000 0.94120  0.75410  0.90210  Biso   1.000  H
  H71      1.0000 0.94120  0.74590  0.40210  Biso   1.000  H
  H72      1.0000 0.05880  0.24590  0.09790  Biso   1.000  H
  C81      1.0000 0.25190  0.22717  0.65414  Biso   1.000  C
  C82      1.0000 0.74810  0.72717  0.84586  Biso   1.000  C
  C83      1.0000 0.74810  0.77283  0.34586  Biso   1.000  C
  C84      1.0000 0.25190  0.27283  0.15414  Biso   1.000  C
  H73      1.0000 0.29030  0.27530  0.65650  Biso   1.000  H
  H74      1.0000 0.70970  0.77530  0.84350  Biso   1.000  H
  H75      1.0000 0.70970  0.72470  0.34350  Biso   1.000  H
  H76      1.0000 0.29030  0.22470  0.15650  Biso   1.000  H
  N29      1.0000 0.33240  0.17099  0.68552  Biso   1.000  N
  N30      1.0000 0.66760  0.67099  0.81448  Biso   1.000  N
  N31      1.0000 0.66760  0.82901  0.31448  Biso   1.000  N
  N32      1.0000 0.33240  0.32901  0.18552  Biso   1.000  N
  C85      1.0000 0.27590  0.10137  0.68305  Biso   1.000  C
  C86      1.0000 0.72410  0.60137  0.81695  Biso   1.000  C
  C87      1.0000 0.72410  0.89863  0.31695  Biso   1.000  C
  C88      1.0000 0.27590  0.39863  0.18305  Biso   1.000  C
  H77      1.0000 0.33010  0.06320  0.70660  Biso   1.000  H
  H78      1.0000 0.66990  0.56320  0.79340  Biso   1.000  H
  H79      1.0000 0.66990  0.93680  0.29340  Biso   1.000  H
  H80      1.0000 0.33010  0.43680  0.20660  Biso   1.000  H
  Cl1      1.0000 0.68400  0.94369  0.55857  Biso   1.000  Cl
  Cl2      1.0000 0.31600  0.44369  0.94143  Biso   1.000  Cl
  Cl3      1.0000 0.31600  0.05631  0.44143  Biso   1.000  Cl
  Cl4      1.0000 0.68400  0.55631  0.05857  Biso   1.000  Cl
  O9       1.0000 0.54890  0.98137  0.58341  Biso   1.000  O
  O10      1.0000 0.45110  0.48137  0.91659  Biso   1.000  O
  O11      1.0000 0.45110  0.01863  0.41659  Biso   1.000  O
  O12      1.0000 0.54890  0.51863  0.08341  Biso   1.000  O
  O13      1.0000 0.80070  0.99753  0.54119  Biso   1.000  O
  O14      1.0000 0.19930  0.49753  0.95881  Biso   1.000  O
  O15      1.0000 0.19930  0.00247  0.45881  Biso   1.000  O
  O16      1.0000 0.80070  0.50247  0.04119  Biso   1.000  O
  O17      1.0000 0.65170  0.89810  0.49394  Biso   1.000  O
  O18      1.0000 0.34830  0.39810  0.00606  Biso   1.000  O
  O19      1.0000 0.34830  0.10190  0.50606  Biso   1.000  O
  O20      1.0000 0.65170  0.60190  0.99394  Biso   1.000  O
  O21      1.0000 0.73890  0.89695  0.62132  Biso   1.000  O
  O22      1.0000 0.26110  0.39695  0.87868  Biso   1.000  O
  O23      1.0000 0.26110  0.10305  0.37868  Biso   1.000  O
  O24      1.0000 0.73890  0.60305  0.12132  Biso   1.000  O
  Cl5      1.0000 0.07802  0.02616  0.14857  Biso   1.000  Cl
  Cl6      1.0000 0.92198  0.52616  0.35143  Biso   1.000  Cl
  Cl7      1.0000 0.92198  0.97384  0.85143  Biso   1.000  Cl
  Cl8      1.0000 0.07802  0.47384  0.64857  Biso   1.000  Cl
  O25      1.0000 0.93100  0.99958  0.16692  Biso   1.000  O
  O26      1.0000 0.06900  0.49958  0.33308  Biso   1.000  O
  O27      1.0000 0.06900  0.00042  0.83308  Biso   1.000  O
  O28      1.0000 0.93100  0.50042  0.66692  Biso   1.000  O
  O29      1.0000 0.07220  0.09758  0.11376  Biso   1.000  O
  O30      1.0000 0.92780  0.59758  0.38624  Biso   1.000  O
  O31      1.0000 0.92780  0.90242  0.88624  Biso   1.000  O
  O32      1.0000 0.07220  0.40242  0.61376  Biso   1.000  O
  O33      1.0000 0.15470  0.97405  0.10017  Biso   1.000  O
  O34      1.0000 0.84530  0.47405  0.39983  Biso   1.000  O
  O35      1.0000 0.84530  0.02595  0.89983  Biso   1.000  O
  O36      1.0000 0.15470  0.52595  0.60017  Biso   1.000  O
  O37      1.0000 0.16480  0.03167  0.21907  Biso   1.000  O
  O38      1.0000 0.83520  0.53167  0.28093  Biso   1.000  O
  O39      1.0000 0.83520  0.96833  0.78093  Biso   1.000  O
  O40      1.0000 0.16480  0.46833  0.71907  Biso   1.000  O
  O41      1.0000 0.39190  0.56103  0.78196  Biso   1.000  O
  O42      1.0000 0.60810  0.06103  0.71804  Biso   1.000  O
  O43      1.0000 0.60810  0.43897  0.21804  Biso   1.000  O
  O44      1.0000 0.39190  0.93897  0.28196  Biso   1.000  O
  H81      1.0000 0.32650  0.55020  0.75030  Biso   1.000  H
  H82      1.0000 0.67350  0.05020  0.74970  Biso   1.000  H
  H83      1.0000 0.67350  0.44980  0.24970  Biso   1.000  H
  H84      1.0000 0.32650  0.94980  0.25030  Biso   1.000  H
  O45      1.0000 0.56590  0.85344  0.75656  Biso   1.000  O
  O46      1.0000 0.43410  0.35344  0.74344  Biso   1.000  O
  O47      1.0000 0.43410  0.14656  0.24344  Biso   1.000  O
  O48      1.0000 0.56590  0.64656  0.25656  Biso   1.000  O
  H85      1.0000 0.55100  0.88800  0.78400  Biso   1.000  H
  H86      1.0000 0.44900  0.38800  0.71600  Biso   1.000  H
  H87      1.0000 0.44900  0.11200  0.21600  Biso   1.000  H
  H88      1.0000 0.55100  0.61200  0.28400  Biso   1.000  H
  H89      1.0000 0.61800  0.87400  0.72200  Biso   1.000  H
  H90      1.0000 0.38200  0.37400  0.77800  Biso   1.000  H
  H91      1.0000 0.38200  0.12600  0.27800  Biso   1.000  H
  H92      1.0000 0.61800  0.62600  0.22200  Biso   1.000  H
  H93      1.0000 0.42500  0.53790  0.82000  Biso   1.000  H
  H94      1.0000 0.57500  0.03790  0.68000  Biso   1.000  H
  H95      1.0000 0.57500  0.46210  0.18000  Biso   1.000  H
  H96      1.0000 0.42500  0.96210  0.32000  Biso   1.000  H
