data_image0
_cell_length_a       21.2107
_cell_length_b       17.9344
_cell_length_c       17.5455
_cell_angle_alpha    90
_cell_angle_beta     104.877
_cell_angle_gamma    90

_symmetry_space_group_name_H-M    "P 1"
_symmetry_int_tables_number       1

loop_
  _symmetry_equiv_pos_as_xyz
  'x, y, z'

loop_
  _atom_site_label
  _atom_site_occupancy
  _atom_site_fract_x
  _atom_site_fract_y
  _atom_site_fract_z
  _atom_site_thermal_displace_type
  _atom_site_B_iso_or_equiv
  _atom_site_type_symbol
  Cu1      1.0000 0.22324  0.03384  0.75727  Biso   1.000  Cu
  Cu2      1.0000 0.72324  0.53384  0.75727  Biso   1.000  Cu
  Cu3      1.0000 0.77676  0.03384  0.74273  Biso   1.000  Cu
  Cu4      1.0000 0.27676  0.53384  0.74273  Biso   1.000  Cu
  Cu5      1.0000 0.77676  0.96616  0.24273  Biso   1.000  Cu
  Cu6      1.0000 0.27676  0.46616  0.24273  Biso   1.000  Cu
  Cu7      1.0000 0.22324  0.96616  0.25727  Biso   1.000  Cu
  Cu8      1.0000 0.72324  0.46616  0.25727  Biso   1.000  Cu
  N1       1.0000 0.26653  0.04530  0.66676  Biso   1.000  N
  N2       1.0000 0.76653  0.54530  0.66676  Biso   1.000  N
  N3       1.0000 0.73347  0.04530  0.83324  Biso   1.000  N
  N4       1.0000 0.23347  0.54530  0.83324  Biso   1.000  N
  N5       1.0000 0.73347  0.95470  0.33324  Biso   1.000  N
  N6       1.0000 0.23347  0.45470  0.33324  Biso   1.000  N
  N7       1.0000 0.26653  0.95470  0.16676  Biso   1.000  N
  N8       1.0000 0.76653  0.45470  0.16676  Biso   1.000  N
  C1       1.0000 0.27736  0.11390  0.64249  Biso   1.000  C
  C2       1.0000 0.77736  0.61390  0.64249  Biso   1.000  C
  C3       1.0000 0.72264  0.11390  0.85751  Biso   1.000  C
  C4       1.0000 0.22264  0.61390  0.85751  Biso   1.000  C
  C5       1.0000 0.72264  0.88610  0.35751  Biso   1.000  C
  C6       1.0000 0.22264  0.38610  0.35751  Biso   1.000  C
  C7       1.0000 0.27736  0.88610  0.14249  Biso   1.000  C
  C8       1.0000 0.77736  0.38610  0.14249  Biso   1.000  C
  H1       1.0000 0.26140  0.15480  0.66430  Biso   1.000  H
  H2       1.0000 0.76140  0.65480  0.66430  Biso   1.000  H
  H3       1.0000 0.73860  0.15480  0.83570  Biso   1.000  H
  H4       1.0000 0.23860  0.65480  0.83570  Biso   1.000  H
  H5       1.0000 0.73860  0.84520  0.33570  Biso   1.000  H
  H6       1.0000 0.23860  0.34520  0.33570  Biso   1.000  H
  H7       1.0000 0.26140  0.84520  0.16430  Biso   1.000  H
  H8       1.0000 0.76140  0.34520  0.16430  Biso   1.000  H
  C9       1.0000 0.31160  0.12601  0.58589  Biso   1.000  C
  C10      1.0000 0.81160  0.62601  0.58589  Biso   1.000  C
  C11      1.0000 0.68840  0.12601  0.91411  Biso   1.000  C
  C12      1.0000 0.18840  0.62601  0.91411  Biso   1.000  C
  C13      1.0000 0.68840  0.87399  0.41411  Biso   1.000  C
  C14      1.0000 0.18840  0.37399  0.41411  Biso   1.000  C
  C15      1.0000 0.31160  0.87399  0.08589  Biso   1.000  C
  C16      1.0000 0.81160  0.37399  0.08589  Biso   1.000  C
  C17      1.0000 0.33457  0.06385  0.55340  Biso   1.000  C
  C18      1.0000 0.83457  0.56385  0.55340  Biso   1.000  C
  C19      1.0000 0.66543  0.06385  0.94660  Biso   1.000  C
  C20      1.0000 0.16543  0.56385  0.94660  Biso   1.000  C
  C21      1.0000 0.66543  0.93615  0.44660  Biso   1.000  C
  C22      1.0000 0.16543  0.43615  0.44660  Biso   1.000  C
  C23      1.0000 0.33457  0.93615  0.05340  Biso   1.000  C
  C24      1.0000 0.83457  0.43615  0.05340  Biso   1.000  C
  H9       1.0000 0.35700  0.06970  0.51470  Biso   1.000  H
  H10      1.0000 0.85700  0.56970  0.51470  Biso   1.000  H
  H11      1.0000 0.64300  0.06970  0.98530  Biso   1.000  H
  H12      1.0000 0.14300  0.56970  0.98530  Biso   1.000  H
  H13      1.0000 0.64300  0.93030  0.48530  Biso   1.000  H
  H14      1.0000 0.14300  0.43030  0.48530  Biso   1.000  H
  H15      1.0000 0.35700  0.93030  0.01470  Biso   1.000  H
  H16      1.0000 0.85700  0.43030  0.01470  Biso   1.000  H
  C25      1.0000 0.32379  0.99440  0.57920  Biso   1.000  C
  C26      1.0000 0.82379  0.49440  0.57920  Biso   1.000  C
  C27      1.0000 0.67621  0.99440  0.92080  Biso   1.000  C
  C28      1.0000 0.17621  0.49440  0.92080  Biso   1.000  C
  C29      1.0000 0.67621  0.00560  0.42080  Biso   1.000  C
  C30      1.0000 0.17621  0.50560  0.42080  Biso   1.000  C
  C31      1.0000 0.32379  0.00560  0.07920  Biso   1.000  C
  C32      1.0000 0.82379  0.50560  0.07920  Biso   1.000  C
  H17      1.0000 0.33930  0.95250  0.55840  Biso   1.000  H
  H18      1.0000 0.83930  0.45250  0.55840  Biso   1.000  H
  H19      1.0000 0.66070  0.95250  0.94160  Biso   1.000  H
  H20      1.0000 0.16070  0.45250  0.94160  Biso   1.000  H
  H21      1.0000 0.66070  0.04750  0.44160  Biso   1.000  H
  H22      1.0000 0.16070  0.54750  0.44160  Biso   1.000  H
  H23      1.0000 0.33930  0.04750  0.05840  Biso   1.000  H
  H24      1.0000 0.83930  0.54750  0.05840  Biso   1.000  H
  C33      1.0000 0.28981  0.98640  0.63610  Biso   1.000  C
  C34      1.0000 0.78981  0.48640  0.63610  Biso   1.000  C
  C35      1.0000 0.71019  0.98640  0.86390  Biso   1.000  C
  C36      1.0000 0.21019  0.48640  0.86390  Biso   1.000  C
  C37      1.0000 0.71019  0.01360  0.36390  Biso   1.000  C
  C38      1.0000 0.21019  0.51360  0.36390  Biso   1.000  C
  C39      1.0000 0.28981  0.01360  0.13610  Biso   1.000  C
  C40      1.0000 0.78981  0.51360  0.13610  Biso   1.000  C
  H25      1.0000 0.28300  0.93890  0.65360  Biso   1.000  H
  H26      1.0000 0.78300  0.43890  0.65360  Biso   1.000  H
  H27      1.0000 0.71700  0.93890  0.84640  Biso   1.000  H
  H28      1.0000 0.21700  0.43890  0.84640  Biso   1.000  H
  H29      1.0000 0.71700  0.06110  0.34640  Biso   1.000  H
  H30      1.0000 0.21700  0.56110  0.34640  Biso   1.000  H
  H31      1.0000 0.28300  0.06110  0.15360  Biso   1.000  H
  H32      1.0000 0.78300  0.56110  0.15360  Biso   1.000  H
  N9       1.0000 0.32261  0.19634  0.55773  Biso   1.000  N
  N10      1.0000 0.82261  0.69634  0.55773  Biso   1.000  N
  N11      1.0000 0.67739  0.19634  0.94227  Biso   1.000  N
  N12      1.0000 0.17739  0.69634  0.94227  Biso   1.000  N
  N13      1.0000 0.67739  0.80366  0.44227  Biso   1.000  N
  N14      1.0000 0.17739  0.30366  0.44227  Biso   1.000  N
  N15      1.0000 0.32261  0.80366  0.05773  Biso   1.000  N
  N16      1.0000 0.82261  0.30366  0.05773  Biso   1.000  N
  H33      1.0000 0.33530  0.19760  0.51500  Biso   1.000  H
  H34      1.0000 0.83530  0.69760  0.51500  Biso   1.000  H
  H35      1.0000 0.66470  0.19760  0.98500  Biso   1.000  H
  H36      1.0000 0.16470  0.69760  0.98500  Biso   1.000  H
  H37      1.0000 0.66470  0.80240  0.48500  Biso   1.000  H
  H38      1.0000 0.16470  0.30240  0.48500  Biso   1.000  H
  H39      1.0000 0.33530  0.80240  0.01500  Biso   1.000  H
  H40      1.0000 0.83530  0.30240  0.01500  Biso   1.000  H
  C41      1.0000 0.31520  0.26337  0.59150  Biso   1.000  C
  C42      1.0000 0.81520  0.76337  0.59150  Biso   1.000  C
  C43      1.0000 0.68480  0.26337  0.90850  Biso   1.000  C
  C44      1.0000 0.18480  0.76337  0.90850  Biso   1.000  C
  C45      1.0000 0.68480  0.73663  0.40850  Biso   1.000  C
  C46      1.0000 0.18480  0.23663  0.40850  Biso   1.000  C
  C47      1.0000 0.31520  0.73663  0.09150  Biso   1.000  C
  C48      1.0000 0.81520  0.23663  0.09150  Biso   1.000  C
  O1       1.0000 0.29700  0.27003  0.65106  Biso   1.000  O
  O2       1.0000 0.79700  0.77003  0.65106  Biso   1.000  O
  O3       1.0000 0.70300  0.27003  0.84894  Biso   1.000  O
  O4       1.0000 0.20300  0.77003  0.84894  Biso   1.000  O
  O5       1.0000 0.70300  0.72997  0.34894  Biso   1.000  O
  O6       1.0000 0.20300  0.22997  0.34894  Biso   1.000  O
  O7       1.0000 0.29700  0.72997  0.15106  Biso   1.000  O
  O8       1.0000 0.79700  0.22997  0.15106  Biso   1.000  O
  N17      1.0000 0.33086  0.32316  0.55056  Biso   1.000  N
  N18      1.0000 0.83086  0.82316  0.55056  Biso   1.000  N
  N19      1.0000 0.66914  0.32316  0.94944  Biso   1.000  N
  N20      1.0000 0.16914  0.82316  0.94944  Biso   1.000  N
  N21      1.0000 0.66914  0.67684  0.44944  Biso   1.000  N
  N22      1.0000 0.16914  0.17684  0.44944  Biso   1.000  N
  N23      1.0000 0.33086  0.67684  0.05056  Biso   1.000  N
  N24      1.0000 0.83086  0.17684  0.05056  Biso   1.000  N
  H41      1.0000 0.34350  0.31280  0.50900  Biso   1.000  H
  H42      1.0000 0.84350  0.81280  0.50900  Biso   1.000  H
  H43      1.0000 0.65650  0.31280  0.99100  Biso   1.000  H
  H44      1.0000 0.15650  0.81280  0.99100  Biso   1.000  H
  H45      1.0000 0.65650  0.68720  0.49100  Biso   1.000  H
  H46      1.0000 0.15650  0.18720  0.49100  Biso   1.000  H
  H47      1.0000 0.34350  0.68720  0.00900  Biso   1.000  H
  H48      1.0000 0.84350  0.18720  0.00900  Biso   1.000  H
  C49      1.0000 0.32853  0.39818  0.56883  Biso   1.000  C
  C50      1.0000 0.82853  0.89818  0.56883  Biso   1.000  C
  C51      1.0000 0.67147  0.39818  0.93117  Biso   1.000  C
  C52      1.0000 0.17147  0.89818  0.93117  Biso   1.000  C
  C53      1.0000 0.67147  0.60182  0.43117  Biso   1.000  C
  C54      1.0000 0.17147  0.10182  0.43117  Biso   1.000  C
  C55      1.0000 0.32853  0.60182  0.06883  Biso   1.000  C
  C56      1.0000 0.82853  0.10182  0.06883  Biso   1.000  C
  C57      1.0000 0.30963  0.42560  0.63364  Biso   1.000  C
  C58      1.0000 0.80963  0.92560  0.63364  Biso   1.000  C
  C59      1.0000 0.69037  0.42560  0.86636  Biso   1.000  C
  C60      1.0000 0.19037  0.92560  0.86636  Biso   1.000  C
  C61      1.0000 0.69037  0.57440  0.36636  Biso   1.000  C
  C62      1.0000 0.19037  0.07440  0.36636  Biso   1.000  C
  C63      1.0000 0.30963  0.57440  0.13364  Biso   1.000  C
  C64      1.0000 0.80963  0.07440  0.13364  Biso   1.000  C
  H49      1.0000 0.29820  0.39200  0.66820  Biso   1.000  H
  H50      1.0000 0.79820  0.89200  0.66820  Biso   1.000  H
  H51      1.0000 0.70180  0.39200  0.83180  Biso   1.000  H
  H52      1.0000 0.20180  0.89200  0.83180  Biso   1.000  H
  H53      1.0000 0.70180  0.60800  0.33180  Biso   1.000  H
  H54      1.0000 0.20180  0.10800  0.33180  Biso   1.000  H
  H55      1.0000 0.29820  0.60800  0.16820  Biso   1.000  H
  H56      1.0000 0.79820  0.10800  0.16820  Biso   1.000  H
  N25      1.0000 0.30729  0.49863  0.64814  Biso   1.000  N
  N26      1.0000 0.80729  0.99863  0.64814  Biso   1.000  N
  N27      1.0000 0.69271  0.49863  0.85186  Biso   1.000  N
  N28      1.0000 0.19271  0.99863  0.85186  Biso   1.000  N
  N29      1.0000 0.69271  0.50137  0.35186  Biso   1.000  N
  N30      1.0000 0.19271  0.00137  0.35186  Biso   1.000  N
  N31      1.0000 0.30729  0.50137  0.14814  Biso   1.000  N
  N32      1.0000 0.80729  0.00137  0.14814  Biso   1.000  N
  C65      1.0000 0.32280  0.54730  0.59890  Biso   1.000  C
  C66      1.0000 0.82280  0.04730  0.59890  Biso   1.000  C
  C67      1.0000 0.67720  0.54730  0.90110  Biso   1.000  C
  C68      1.0000 0.17720  0.04730  0.90110  Biso   1.000  C
  C69      1.0000 0.67720  0.45270  0.40110  Biso   1.000  C
  C70      1.0000 0.17720  0.95270  0.40110  Biso   1.000  C
  C71      1.0000 0.32280  0.45270  0.09890  Biso   1.000  C
  C72      1.0000 0.82280  0.95270  0.09890  Biso   1.000  C
  H57      1.0000 0.32020  0.59810  0.60860  Biso   1.000  H
  H58      1.0000 0.82020  0.09810  0.60860  Biso   1.000  H
  H59      1.0000 0.67980  0.59810  0.89140  Biso   1.000  H
  H60      1.0000 0.17980  0.09810  0.89140  Biso   1.000  H
  H61      1.0000 0.67980  0.40190  0.39140  Biso   1.000  H
  H62      1.0000 0.17980  0.90190  0.39140  Biso   1.000  H
  H63      1.0000 0.32020  0.40190  0.10860  Biso   1.000  H
  H64      1.0000 0.82020  0.90190  0.10860  Biso   1.000  H
  C73      1.0000 0.34274  0.52440  0.53370  Biso   1.000  C
  C74      1.0000 0.84274  0.02440  0.53370  Biso   1.000  C
  C75      1.0000 0.65726  0.52440  0.96630  Biso   1.000  C
  C76      1.0000 0.15726  0.02440  0.96630  Biso   1.000  C
  C77      1.0000 0.65726  0.47560  0.46630  Biso   1.000  C
  C78      1.0000 0.15726  0.97560  0.46630  Biso   1.000  C
  C79      1.0000 0.34274  0.47560  0.03370  Biso   1.000  C
  C80      1.0000 0.84274  0.97560  0.03370  Biso   1.000  C
  H65      1.0000 0.35420  0.55940  0.50050  Biso   1.000  H
  H66      1.0000 0.85420  0.05940  0.50050  Biso   1.000  H
  H67      1.0000 0.64580  0.55940  0.99950  Biso   1.000  H
  H68      1.0000 0.14580  0.05940  0.99950  Biso   1.000  H
  H69      1.0000 0.64580  0.44060  0.49950  Biso   1.000  H
  H70      1.0000 0.14580  0.94060  0.49950  Biso   1.000  H
  H71      1.0000 0.35420  0.44060  0.00050  Biso   1.000  H
  H72      1.0000 0.85420  0.94060  0.00050  Biso   1.000  H
  C81      1.0000 0.34565  0.44984  0.51811  Biso   1.000  C
  C82      1.0000 0.84565  0.94984  0.51811  Biso   1.000  C
  C83      1.0000 0.65435  0.44984  0.98189  Biso   1.000  C
  C84      1.0000 0.15435  0.94984  0.98189  Biso   1.000  C
  C85      1.0000 0.65435  0.55016  0.48189  Biso   1.000  C
  C86      1.0000 0.15435  0.05016  0.48189  Biso   1.000  C
  C87      1.0000 0.34565  0.55016  0.01811  Biso   1.000  C
  C88      1.0000 0.84565  0.05016  0.01811  Biso   1.000  C
  H73      1.0000 0.35890  0.43380  0.47420  Biso   1.000  H
  H74      1.0000 0.85890  0.93380  0.47420  Biso   1.000  H
  H75      1.0000 0.64110  0.43380  0.02580  Biso   1.000  H
  H76      1.0000 0.14110  0.93380  0.02580  Biso   1.000  H
  H77      1.0000 0.64110  0.56620  0.52580  Biso   1.000  H
  H78      1.0000 0.14110  0.06620  0.52580  Biso   1.000  H
  H79      1.0000 0.35890  0.56620  0.97420  Biso   1.000  H
  H80      1.0000 0.85890  0.06620  0.97420  Biso   1.000  H
  N33      1.0000 0.31190  0.05127  0.83095  Biso   1.000  N
  N34      1.0000 0.81190  0.55127  0.83095  Biso   1.000  N
  N35      1.0000 0.68810  0.05127  0.66905  Biso   1.000  N
  N36      1.0000 0.18810  0.55127  0.66905  Biso   1.000  N
  N37      1.0000 0.68810  0.94873  0.16905  Biso   1.000  N
  N38      1.0000 0.18810  0.44873  0.16905  Biso   1.000  N
  N39      1.0000 0.31190  0.94873  0.33095  Biso   1.000  N
  N40      1.0000 0.81190  0.44873  0.33095  Biso   1.000  N
  C89      1.0000 0.33210  0.11988  0.85413  Biso   1.000  C
  C90      1.0000 0.83210  0.61988  0.85413  Biso   1.000  C
  C91      1.0000 0.66790  0.11988  0.64587  Biso   1.000  C
  C92      1.0000 0.16790  0.61988  0.64587  Biso   1.000  C
  C93      1.0000 0.66790  0.88012  0.14587  Biso   1.000  C
  C94      1.0000 0.16790  0.38012  0.14587  Biso   1.000  C
  C95      1.0000 0.33210  0.88012  0.35413  Biso   1.000  C
  C96      1.0000 0.83210  0.38012  0.35413  Biso   1.000  C
  H81      1.0000 0.30410  0.15990  0.83700  Biso   1.000  H
  H82      1.0000 0.80410  0.65990  0.83700  Biso   1.000  H
  H83      1.0000 0.69590  0.15990  0.66300  Biso   1.000  H
  H84      1.0000 0.19590  0.65990  0.66300  Biso   1.000  H
  H85      1.0000 0.69590  0.84010  0.16300  Biso   1.000  H
  H86      1.0000 0.19590  0.34010  0.16300  Biso   1.000  H
  H87      1.0000 0.30410  0.84010  0.33700  Biso   1.000  H
  H88      1.0000 0.80410  0.34010  0.33700  Biso   1.000  H
  C97      1.0000 0.39376  0.13344  0.90323  Biso   1.000  C
  C98      1.0000 0.89376  0.63344  0.90323  Biso   1.000  C
  C99      1.0000 0.60624  0.13344  0.59677  Biso   1.000  C
  C100     1.0000 0.10624  0.63344  0.59677  Biso   1.000  C
  C101     1.0000 0.60624  0.86656  0.09677  Biso   1.000  C
  C102     1.0000 0.10624  0.36656  0.09677  Biso   1.000  C
  C103     1.0000 0.39376  0.86656  0.40323  Biso   1.000  C
  C104     1.0000 0.89376  0.36656  0.40323  Biso   1.000  C
  C105     1.0000 0.43461  0.07260  0.92780  Biso   1.000  C
  C106     1.0000 0.93461  0.57260  0.92780  Biso   1.000  C
  C107     1.0000 0.56539  0.07260  0.57220  Biso   1.000  C
  C108     1.0000 0.06539  0.57260  0.57220  Biso   1.000  C
  C109     1.0000 0.56539  0.92740  0.07220  Biso   1.000  C
  C110     1.0000 0.06539  0.42740  0.07220  Biso   1.000  C
  C111     1.0000 0.43461  0.92740  0.42780  Biso   1.000  C
  C112     1.0000 0.93461  0.42740  0.42780  Biso   1.000  C
  H89      1.0000 0.47640  0.07960  0.96020  Biso   1.000  H
  H90      1.0000 0.97640  0.57960  0.96020  Biso   1.000  H
  H91      1.0000 0.52360  0.07960  0.53980  Biso   1.000  H
  H92      1.0000 0.02360  0.57960  0.53980  Biso   1.000  H
  H93      1.0000 0.52360  0.92040  0.03980  Biso   1.000  H
  H94      1.0000 0.02360  0.42040  0.03980  Biso   1.000  H
  H95      1.0000 0.47640  0.92040  0.46020  Biso   1.000  H
  H96      1.0000 0.97640  0.42040  0.46020  Biso   1.000  H
  C113     1.0000 0.41294  0.00210  0.90390  Biso   1.000  C
  C114     1.0000 0.91294  0.50210  0.90390  Biso   1.000  C
  C115     1.0000 0.58706  0.00210  0.59610  Biso   1.000  C
  C116     1.0000 0.08706  0.50210  0.59610  Biso   1.000  C
  C117     1.0000 0.58706  0.99790  0.09610  Biso   1.000  C
  C118     1.0000 0.08706  0.49790  0.09610  Biso   1.000  C
  C119     1.0000 0.41294  0.99790  0.40390  Biso   1.000  C
  C120     1.0000 0.91294  0.49790  0.40390  Biso   1.000  C
  H97      1.0000 0.43970  0.96090  0.92030  Biso   1.000  H
  H98      1.0000 0.93970  0.46090  0.92030  Biso   1.000  H
  H99      1.0000 0.56030  0.96090  0.57970  Biso   1.000  H
  H100     1.0000 0.06030  0.46090  0.57970  Biso   1.000  H
  H101     1.0000 0.56030  0.03910  0.07970  Biso   1.000  H
  H102     1.0000 0.06030  0.53910  0.07970  Biso   1.000  H
  H103     1.0000 0.43970  0.03910  0.42030  Biso   1.000  H
  H104     1.0000 0.93970  0.53910  0.42030  Biso   1.000  H
  C121     1.0000 0.35094  0.99309  0.85510  Biso   1.000  C
  C122     1.0000 0.85094  0.49309  0.85510  Biso   1.000  C
  C123     1.0000 0.64906  0.99309  0.64490  Biso   1.000  C
  C124     1.0000 0.14906  0.49309  0.64490  Biso   1.000  C
  C125     1.0000 0.64906  0.00691  0.14490  Biso   1.000  C
  C126     1.0000 0.14906  0.50691  0.14490  Biso   1.000  C
  C127     1.0000 0.35094  0.00691  0.35510  Biso   1.000  C
  C128     1.0000 0.85094  0.50691  0.35510  Biso   1.000  C
  H105     1.0000 0.33620  0.94540  0.83880  Biso   1.000  H
  H106     1.0000 0.83620  0.44540  0.83880  Biso   1.000  H
  H107     1.0000 0.66380  0.94540  0.66120  Biso   1.000  H
  H108     1.0000 0.16380  0.44540  0.66120  Biso   1.000  H
  H109     1.0000 0.66380  0.05460  0.16120  Biso   1.000  H
  H110     1.0000 0.16380  0.55460  0.16120  Biso   1.000  H
  H111     1.0000 0.33620  0.05460  0.33880  Biso   1.000  H
  H112     1.0000 0.83620  0.55460  0.33880  Biso   1.000  H
  N41      1.0000 0.41733  0.20404  0.92766  Biso   1.000  N
  N42      1.0000 0.91733  0.70404  0.92766  Biso   1.000  N
  N43      1.0000 0.58267  0.20404  0.57234  Biso   1.000  N
  N44      1.0000 0.08267  0.70404  0.57234  Biso   1.000  N
  N45      1.0000 0.58267  0.79596  0.07234  Biso   1.000  N
  N46      1.0000 0.08267  0.29596  0.07234  Biso   1.000  N
  N47      1.0000 0.41733  0.79596  0.42766  Biso   1.000  N
  N48      1.0000 0.91733  0.29596  0.42766  Biso   1.000  N
  H113     1.0000 0.45170  0.20610  0.96640  Biso   1.000  H
  H114     1.0000 0.95170  0.70610  0.96640  Biso   1.000  H
  H115     1.0000 0.54830  0.20610  0.53360  Biso   1.000  H
  H116     1.0000 0.04830  0.70610  0.53360  Biso   1.000  H
  H117     1.0000 0.54830  0.79390  0.03360  Biso   1.000  H
  H118     1.0000 0.04830  0.29390  0.03360  Biso   1.000  H
  H119     1.0000 0.45170  0.79390  0.46640  Biso   1.000  H
  H120     1.0000 0.95170  0.29390  0.46640  Biso   1.000  H
  C129     1.0000 0.39150  0.27070  0.89640  Biso   1.000  C
  C130     1.0000 0.89150  0.77070  0.89640  Biso   1.000  C
  C131     1.0000 0.60850  0.27070  0.60360  Biso   1.000  C
  C132     1.0000 0.10850  0.77070  0.60360  Biso   1.000  C
  C133     1.0000 0.60850  0.72930  0.10360  Biso   1.000  C
  C134     1.0000 0.10850  0.22930  0.10360  Biso   1.000  C
  C135     1.0000 0.39150  0.72930  0.39640  Biso   1.000  C
  C136     1.0000 0.89150  0.22930  0.39640  Biso   1.000  C
  O9       1.0000 0.34051  0.27583  0.84690  Biso   1.000  O
  O10      1.0000 0.84051  0.77583  0.84690  Biso   1.000  O
  O11      1.0000 0.65949  0.27583  0.65310  Biso   1.000  O
  O12      1.0000 0.15949  0.77583  0.65310  Biso   1.000  O
  O13      1.0000 0.65949  0.72417  0.15310  Biso   1.000  O
  O14      1.0000 0.15949  0.22417  0.15310  Biso   1.000  O
  O15      1.0000 0.34051  0.72417  0.34690  Biso   1.000  O
  O16      1.0000 0.84051  0.22417  0.34690  Biso   1.000  O
  N49      1.0000 0.42979  0.33035  0.92649  Biso   1.000  N
  N50      1.0000 0.92979  0.83035  0.92649  Biso   1.000  N
  N51      1.0000 0.57021  0.33035  0.57351  Biso   1.000  N
  N52      1.0000 0.07021  0.83035  0.57351  Biso   1.000  N
  N53      1.0000 0.57021  0.66965  0.07351  Biso   1.000  N
  N54      1.0000 0.07021  0.16965  0.07351  Biso   1.000  N
  N55      1.0000 0.42979  0.66965  0.42649  Biso   1.000  N
  N56      1.0000 0.92979  0.16965  0.42649  Biso   1.000  N
  H121     1.0000 0.45930  0.32400  0.96990  Biso   1.000  H
  H122     1.0000 0.95930  0.82400  0.96990  Biso   1.000  H
  H123     1.0000 0.54070  0.32400  0.53010  Biso   1.000  H
  H124     1.0000 0.04070  0.82400  0.53010  Biso   1.000  H
  H125     1.0000 0.54070  0.67600  0.03010  Biso   1.000  H
  H126     1.0000 0.04070  0.17600  0.03010  Biso   1.000  H
  H127     1.0000 0.45930  0.67600  0.46990  Biso   1.000  H
  H128     1.0000 0.95930  0.17600  0.46990  Biso   1.000  H
  C137     1.0000 0.42445  0.40106  0.89173  Biso   1.000  C
  C138     1.0000 0.92445  0.90106  0.89173  Biso   1.000  C
  C139     1.0000 0.57555  0.40106  0.60827  Biso   1.000  C
  C140     1.0000 0.07555  0.90106  0.60827  Biso   1.000  C
  C141     1.0000 0.57555  0.59894  0.10827  Biso   1.000  C
  C142     1.0000 0.07555  0.09894  0.10827  Biso   1.000  C
  C143     1.0000 0.42445  0.59894  0.39173  Biso   1.000  C
  C144     1.0000 0.92445  0.09894  0.39173  Biso   1.000  C
  C145     1.0000 0.36638  0.43032  0.84649  Biso   1.000  C
  C146     1.0000 0.86638  0.93032  0.84649  Biso   1.000  C
  C147     1.0000 0.63362  0.43032  0.65351  Biso   1.000  C
  C148     1.0000 0.13362  0.93032  0.65351  Biso   1.000  C
  C149     1.0000 0.63362  0.56968  0.15351  Biso   1.000  C
  C150     1.0000 0.13362  0.06968  0.15351  Biso   1.000  C
  C151     1.0000 0.36638  0.56968  0.34649  Biso   1.000  C
  C152     1.0000 0.86638  0.06968  0.34649  Biso   1.000  C
  H129     1.0000 0.32850  0.40200  0.83880  Biso   1.000  H
  H130     1.0000 0.82850  0.90200  0.83880  Biso   1.000  H
  H131     1.0000 0.67150  0.40200  0.66120  Biso   1.000  H
  H132     1.0000 0.17150  0.90200  0.66120  Biso   1.000  H
  H133     1.0000 0.67150  0.59800  0.16120  Biso   1.000  H
  H134     1.0000 0.17150  0.09800  0.16120  Biso   1.000  H
  H135     1.0000 0.32850  0.59800  0.33880  Biso   1.000  H
  H136     1.0000 0.82850  0.09800  0.33880  Biso   1.000  H
  N57      1.0000 0.36286  0.49791  0.81344  Biso   1.000  N
  N58      1.0000 0.86286  0.99791  0.81344  Biso   1.000  N
  N59      1.0000 0.63714  0.49791  0.68656  Biso   1.000  N
  N60      1.0000 0.13714  0.99791  0.68656  Biso   1.000  N
  N61      1.0000 0.63714  0.50209  0.18656  Biso   1.000  N
  N62      1.0000 0.13714  0.00209  0.18656  Biso   1.000  N
  N63      1.0000 0.36286  0.50209  0.31344  Biso   1.000  N
  N64      1.0000 0.86286  0.00209  0.31344  Biso   1.000  N
  C153     1.0000 0.41688  0.53879  0.82360  Biso   1.000  C
  C154     1.0000 0.91688  0.03879  0.82360  Biso   1.000  C
  C155     1.0000 0.58312  0.53879  0.67640  Biso   1.000  C
  C156     1.0000 0.08312  0.03879  0.67640  Biso   1.000  C
  C157     1.0000 0.58312  0.46121  0.17640  Biso   1.000  C
  C158     1.0000 0.08312  0.96121  0.17640  Biso   1.000  C
  C159     1.0000 0.41688  0.46121  0.32360  Biso   1.000  C
  C160     1.0000 0.91688  0.96121  0.32360  Biso   1.000  C
  H137     1.0000 0.41460  0.58500  0.79890  Biso   1.000  H
  H138     1.0000 0.91460  0.08500  0.79890  Biso   1.000  H
  H139     1.0000 0.58540  0.58500  0.70110  Biso   1.000  H
  H140     1.0000 0.08540  0.08500  0.70110  Biso   1.000  H
  H141     1.0000 0.58540  0.41500  0.20110  Biso   1.000  H
  H142     1.0000 0.08540  0.91500  0.20110  Biso   1.000  H
  H143     1.0000 0.41460  0.41500  0.29890  Biso   1.000  H
  H144     1.0000 0.91460  0.91500  0.29890  Biso   1.000  H
  C161     1.0000 0.47577  0.51440  0.86960  Biso   1.000  C
  C162     1.0000 0.97577  0.01440  0.86960  Biso   1.000  C
  C163     1.0000 0.52423  0.51440  0.63040  Biso   1.000  C
  C164     1.0000 0.02423  0.01440  0.63040  Biso   1.000  C
  C165     1.0000 0.52423  0.48560  0.13040  Biso   1.000  C
  C166     1.0000 0.02423  0.98560  0.13040  Biso   1.000  C
  C167     1.0000 0.47577  0.48560  0.36960  Biso   1.000  C
  C168     1.0000 0.97577  0.98560  0.36960  Biso   1.000  C
  H145     1.0000 0.51260  0.54450  0.87730  Biso   1.000  H
  H146     1.0000 0.01260  0.04450  0.87730  Biso   1.000  H
  H147     1.0000 0.48740  0.54450  0.62270  Biso   1.000  H
  H148     1.0000 0.98740  0.04450  0.62270  Biso   1.000  H
  H149     1.0000 0.48740  0.45550  0.12270  Biso   1.000  H
  H150     1.0000 0.98740  0.95550  0.12270  Biso   1.000  H
  H151     1.0000 0.51260  0.45550  0.37730  Biso   1.000  H
  H152     1.0000 0.01260  0.95550  0.37730  Biso   1.000  H
  C169     1.0000 0.47990  0.44510  0.90410  Biso   1.000  C
  C170     1.0000 0.97990  0.94510  0.90410  Biso   1.000  C
  C171     1.0000 0.52010  0.44510  0.59590  Biso   1.000  C
  C172     1.0000 0.02010  0.94510  0.59590  Biso   1.000  C
  C173     1.0000 0.52010  0.55490  0.09590  Biso   1.000  C
  C174     1.0000 0.02010  0.05490  0.09590  Biso   1.000  C
  C175     1.0000 0.47990  0.55490  0.40410  Biso   1.000  C
  C176     1.0000 0.97990  0.05490  0.40410  Biso   1.000  C
  H153     1.0000 0.51950  0.42800  0.93540  Biso   1.000  H
  H154     1.0000 0.01950  0.92800  0.93540  Biso   1.000  H
  H155     1.0000 0.48050  0.42800  0.56460  Biso   1.000  H
  H156     1.0000 0.98050  0.92800  0.56460  Biso   1.000  H
  H157     1.0000 0.48050  0.57200  0.06460  Biso   1.000  H
  H158     1.0000 0.98050  0.07200  0.06460  Biso   1.000  H
  H159     1.0000 0.51950  0.57200  0.43540  Biso   1.000  H
  H160     1.0000 0.01950  0.07200  0.43540  Biso   1.000  H
  O17      1.0000 0.19078  0.15238  0.75487  Biso   1.000  O
  O18      1.0000 0.69078  0.65238  0.75487  Biso   1.000  O
  O19      1.0000 0.80922  0.15238  0.74513  Biso   1.000  O
  O20      1.0000 0.30922  0.65238  0.74513  Biso   1.000  O
  O21      1.0000 0.80922  0.84762  0.24513  Biso   1.000  O
  O22      1.0000 0.30922  0.34762  0.24513  Biso   1.000  O
  O23      1.0000 0.19078  0.84762  0.25487  Biso   1.000  O
  O24      1.0000 0.69078  0.34762  0.25487  Biso   1.000  O
  H161     1.0000 0.17300  0.16450  0.70940  Biso   1.000  H
  H162     1.0000 0.67300  0.66450  0.70940  Biso   1.000  H
  H163     1.0000 0.82700  0.16450  0.79060  Biso   1.000  H
  H164     1.0000 0.32700  0.66450  0.79060  Biso   1.000  H
  H165     1.0000 0.82700  0.83550  0.29060  Biso   1.000  H
  H166     1.0000 0.32700  0.33550  0.29060  Biso   1.000  H
  H167     1.0000 0.17300  0.83550  0.20940  Biso   1.000  H
  H168     1.0000 0.67300  0.33550  0.20940  Biso   1.000  H
  Si1      1.0000 0.42584  0.23827  0.41130  Biso   1.000  Si
  Si2      1.0000 0.92584  0.73827  0.41130  Biso   1.000  Si
  Si3      1.0000 0.57416  0.23827  0.08870  Biso   1.000  Si
  Si4      1.0000 0.07416  0.73827  0.08870  Biso   1.000  Si
  Si5      1.0000 0.57416  0.76173  0.58870  Biso   1.000  Si
  Si6      1.0000 0.07416  0.26173  0.58870  Biso   1.000  Si
  Si7      1.0000 0.42584  0.76173  0.91130  Biso   1.000  Si
  Si8      1.0000 0.92584  0.26173  0.91130  Biso   1.000  Si
  F1       1.0000 0.36883  0.30704  0.40263  Biso   1.000  F
  F2       1.0000 0.86883  0.80704  0.40263  Biso   1.000  F
  F3       1.0000 0.63117  0.30704  0.09737  Biso   1.000  F
  F4       1.0000 0.13117  0.80704  0.09737  Biso   1.000  F
  F5       1.0000 0.63117  0.69296  0.59737  Biso   1.000  F
  F6       1.0000 0.13117  0.19296  0.59737  Biso   1.000  F
  F7       1.0000 0.36883  0.69296  0.90263  Biso   1.000  F
  F8       1.0000 0.86883  0.19296  0.90263  Biso   1.000  F
  F9       1.0000 0.36884  0.17609  0.42001  Biso   1.000  F
  F10      1.0000 0.86884  0.67609  0.42001  Biso   1.000  F
  F11      1.0000 0.63116  0.17609  0.07999  Biso   1.000  F
  F12      1.0000 0.13116  0.67609  0.07999  Biso   1.000  F
  F13      1.0000 0.63116  0.82391  0.57999  Biso   1.000  F
  F14      1.0000 0.13116  0.32391  0.57999  Biso   1.000  F
  F15      1.0000 0.36884  0.82391  0.92001  Biso   1.000  F
  F16      1.0000 0.86884  0.32391  0.92001  Biso   1.000  F
  F17      1.0000 0.44510  0.25046  0.51022  Biso   1.000  F
  F18      1.0000 0.94510  0.75046  0.51022  Biso   1.000  F
  F19      1.0000 0.55490  0.25046  0.98978  Biso   1.000  F
  F20      1.0000 0.05490  0.75046  0.98978  Biso   1.000  F
  F21      1.0000 0.55490  0.74954  0.48978  Biso   1.000  F
  F22      1.0000 0.05490  0.24954  0.48978  Biso   1.000  F
  F23      1.0000 0.44510  0.74954  0.01022  Biso   1.000  F
  F24      1.0000 0.94510  0.24954  0.01022  Biso   1.000  F
  F25      1.0000 0.48192  0.17025  0.42270  Biso   1.000  F
  F26      1.0000 0.98192  0.67025  0.42270  Biso   1.000  F
  F27      1.0000 0.51808  0.17025  0.07730  Biso   1.000  F
  F28      1.0000 0.01808  0.67025  0.07730  Biso   1.000  F
  F29      1.0000 0.51808  0.82975  0.57730  Biso   1.000  F
  F30      1.0000 0.01808  0.32975  0.57730  Biso   1.000  F
  F31      1.0000 0.48192  0.82975  0.92270  Biso   1.000  F
  F32      1.0000 0.98192  0.32975  0.92270  Biso   1.000  F
  F33      1.0000 0.48259  0.30124  0.40692  Biso   1.000  F
  F34      1.0000 0.98259  0.80124  0.40692  Biso   1.000  F
  F35      1.0000 0.51741  0.30124  0.09308  Biso   1.000  F
  F36      1.0000 0.01741  0.80124  0.09308  Biso   1.000  F
  F37      1.0000 0.51741  0.69876  0.59308  Biso   1.000  F
  F38      1.0000 0.01741  0.19876  0.59308  Biso   1.000  F
  F39      1.0000 0.48259  0.69876  0.90692  Biso   1.000  F
  F40      1.0000 0.98259  0.19876  0.90692  Biso   1.000  F
  F41      1.0000 0.40565  0.22770  0.31414  Biso   1.000  F
  F42      1.0000 0.90565  0.72770  0.31414  Biso   1.000  F
  F43      1.0000 0.59435  0.22770  0.18586  Biso   1.000  F
  F44      1.0000 0.09435  0.72770  0.18586  Biso   1.000  F
  F45      1.0000 0.59435  0.77230  0.68586  Biso   1.000  F
  F46      1.0000 0.09435  0.27230  0.68586  Biso   1.000  F
  F47      1.0000 0.40565  0.77230  0.81414  Biso   1.000  F
  F48      1.0000 0.90565  0.27230  0.81414  Biso   1.000  F
  O25      1.0000 0.22302  0.34486  0.75225  Biso   1.000  O
  O26      1.0000 0.72302  0.84486  0.75225  Biso   1.000  O
  O27      1.0000 0.77698  0.34486  0.74775  Biso   1.000  O
  O28      1.0000 0.27698  0.84486  0.74775  Biso   1.000  O
  O29      1.0000 0.77698  0.65514  0.24775  Biso   1.000  O
  O30      1.0000 0.27698  0.15514  0.24775  Biso   1.000  O
  O31      1.0000 0.22302  0.65514  0.25225  Biso   1.000  O
  O32      1.0000 0.72302  0.15514  0.25225  Biso   1.000  O
  O33      1.0000 0.50000  0.32210  0.25000  Biso   1.000  O
  O34      1.0000 0.00000  0.82210  0.25000  Biso   1.000  O
  O35      1.0000 0.50000  0.67790  0.75000  Biso   1.000  O
  O36      1.0000 0.00000  0.17790  0.75000  Biso   1.000  O
  H169     1.0000 0.17370  0.18190  0.78910  Biso   1.000  H
  H170     1.0000 0.67370  0.68190  0.78910  Biso   1.000  H
  H171     1.0000 0.82630  0.18190  0.71090  Biso   1.000  H
  H172     1.0000 0.32630  0.68190  0.71090  Biso   1.000  H
  H173     1.0000 0.82630  0.81810  0.21090  Biso   1.000  H
  H174     1.0000 0.32630  0.31810  0.21090  Biso   1.000  H
  H175     1.0000 0.17370  0.81810  0.28910  Biso   1.000  H
  H176     1.0000 0.67370  0.31810  0.28910  Biso   1.000  H
  H177     1.0000 0.25080  0.31770  0.75270  Biso   1.000  H
  H178     1.0000 0.75080  0.81770  0.75270  Biso   1.000  H
  H179     1.0000 0.74920  0.31770  0.74730  Biso   1.000  H
  H180     1.0000 0.24920  0.81770  0.74730  Biso   1.000  H
  H181     1.0000 0.74920  0.68230  0.24730  Biso   1.000  H
  H182     1.0000 0.24920  0.18230  0.24730  Biso   1.000  H
  H183     1.0000 0.25080  0.68230  0.25270  Biso   1.000  H
  H184     1.0000 0.75080  0.18230  0.25270  Biso   1.000  H
  H185     1.0000 0.18840  0.33180  0.72820  Biso   1.000  H
  H186     1.0000 0.68840  0.83180  0.72820  Biso   1.000  H
  H187     1.0000 0.81160  0.33180  0.77180  Biso   1.000  H
  H188     1.0000 0.31160  0.83180  0.77180  Biso   1.000  H
  H189     1.0000 0.81160  0.66820  0.27180  Biso   1.000  H
  H190     1.0000 0.31160  0.16820  0.27180  Biso   1.000  H
  H191     1.0000 0.18840  0.66820  0.22820  Biso   1.000  H
  H192     1.0000 0.68840  0.16820  0.22820  Biso   1.000  H
