data_image0
_cell_length_a       7.704
_cell_length_b       21.708
_cell_length_c       12.165
_cell_angle_alpha    90
_cell_angle_beta     122.77
_cell_angle_gamma    90

_symmetry_space_group_name_H-M    "P 1"
_symmetry_int_tables_number       1

loop_
  _symmetry_equiv_pos_as_xyz
  'x, y, z'

loop_
  _atom_site_label
  _atom_site_occupancy
  _atom_site_fract_x
  _atom_site_fract_y
  _atom_site_fract_z
  _atom_site_thermal_displace_type
  _atom_site_B_iso_or_equiv
  _atom_site_type_symbol
  Cu1      1.0000 0.82859  0.20666  0.51346  Biso   1.000  Cu
  Cu2      1.0000 0.17141  0.70666  0.98654  Biso   1.000  Cu
  Cu3      1.0000 0.17141  0.79334  0.48654  Biso   1.000  Cu
  Cu4      1.0000 0.82859  0.29334  0.01346  Biso   1.000  Cu
  N1       1.0000 0.88850  0.11882  0.57800  Biso   1.000  N
  N2       1.0000 0.11150  0.61882  0.92200  Biso   1.000  N
  N3       1.0000 0.11150  0.88118  0.42200  Biso   1.000  N
  N4       1.0000 0.88850  0.38118  0.07800  Biso   1.000  N
  C1       1.0000 0.76670  0.07285  0.50130  Biso   1.000  C
  C2       1.0000 0.23330  0.57285  0.99870  Biso   1.000  C
  C3       1.0000 0.23330  0.92715  0.49870  Biso   1.000  C
  C4       1.0000 0.76670  0.42715  0.00130  Biso   1.000  C
  H1       1.0000 0.65470  0.08220  0.41810  Biso   1.000  H
  H2       1.0000 0.34530  0.58220  0.08190  Biso   1.000  H
  H3       1.0000 0.34530  0.91780  0.58190  Biso   1.000  H
  H4       1.0000 0.65470  0.41780  0.91810  Biso   1.000  H
  C5       1.0000 0.80260  0.01136  0.54200  Biso   1.000  C
  C6       1.0000 0.19740  0.51136  0.95800  Biso   1.000  C
  C7       1.0000 0.19740  0.98864  0.45800  Biso   1.000  C
  C8       1.0000 0.80260  0.48864  0.04200  Biso   1.000  C
  C9       1.0000 0.97340  0.99860  0.66580  Biso   1.000  C
  C10      1.0000 0.02660  0.49860  0.83420  Biso   1.000  C
  C11      1.0000 0.02660  0.00140  0.33420  Biso   1.000  C
  C12      1.0000 0.97340  0.50140  0.16580  Biso   1.000  C
  H5       1.0000 0.00410  0.95820  0.69590  Biso   1.000  H
  H6       1.0000 0.99590  0.45820  0.80410  Biso   1.000  H
  H7       1.0000 0.99590  0.04180  0.30410  Biso   1.000  H
  H8       1.0000 0.00410  0.54180  0.19590  Biso   1.000  H
  C13      1.0000 0.09640  0.04623  0.74340  Biso   1.000  C
  C14      1.0000 0.90360  0.54623  0.75660  Biso   1.000  C
  C15      1.0000 0.90360  0.95377  0.25660  Biso   1.000  C
  C16      1.0000 0.09640  0.45377  0.24340  Biso   1.000  C
  H9       1.0000 0.21030  0.03820  0.82670  Biso   1.000  H
  H10      1.0000 0.78970  0.53820  0.67330  Biso   1.000  H
  H11      1.0000 0.78970  0.96180  0.17330  Biso   1.000  H
  H12      1.0000 0.21030  0.46180  0.32670  Biso   1.000  H
  C17      1.0000 0.05080  0.10572  0.69760  Biso   1.000  C
  C18      1.0000 0.94920  0.60572  0.80240  Biso   1.000  C
  C19      1.0000 0.94920  0.89428  0.30240  Biso   1.000  C
  C20      1.0000 0.05080  0.39428  0.19760  Biso   1.000  C
  H13      1.0000 0.13480  0.13760  0.75090  Biso   1.000  H
  H14      1.0000 0.86520  0.63760  0.74910  Biso   1.000  H
  H15      1.0000 0.86520  0.86240  0.24910  Biso   1.000  H
  H16      1.0000 0.13480  0.36240  0.25090  Biso   1.000  H
  N5       1.0000 0.68040  0.96167  0.46610  Biso   1.000  N
  N6       1.0000 0.31960  0.46167  0.03390  Biso   1.000  N
  N7       1.0000 0.31960  0.03833  0.53390  Biso   1.000  N
  N8       1.0000 0.68040  0.53833  0.96610  Biso   1.000  N
  H17      1.0000 0.70900  0.92670  0.50520  Biso   1.000  H
  H18      1.0000 0.29100  0.42670  0.99480  Biso   1.000  H
  H19      1.0000 0.29100  0.07330  0.49480  Biso   1.000  H
  H20      1.0000 0.70900  0.57330  0.00520  Biso   1.000  H
  C21      1.0000 0.52190  0.96167  0.33810  Biso   1.000  C
  C22      1.0000 0.47810  0.46167  0.16190  Biso   1.000  C
  C23      1.0000 0.47810  0.03833  0.66190  Biso   1.000  C
  C24      1.0000 0.52190  0.53833  0.83810  Biso   1.000  C
  O1       1.0000 0.44450  0.00828  0.27080  Biso   1.000  O
  O2       1.0000 0.55550  0.50828  0.22920  Biso   1.000  O
  O3       1.0000 0.55550  0.99172  0.72920  Biso   1.000  O
  O4       1.0000 0.44450  0.49172  0.77080  Biso   1.000  O
  N9       1.0000 0.45870  0.90285  0.29210  Biso   1.000  N
  N10      1.0000 0.54130  0.40285  0.20790  Biso   1.000  N
  N11      1.0000 0.54130  0.09715  0.70790  Biso   1.000  N
  N12      1.0000 0.45870  0.59715  0.79210  Biso   1.000  N
  H21      1.0000 0.52060  0.87370  0.34800  Biso   1.000  H
  H22      1.0000 0.47940  0.37370  0.15200  Biso   1.000  H
  H23      1.0000 0.47940  0.12630  0.65200  Biso   1.000  H
  H24      1.0000 0.52060  0.62630  0.84800  Biso   1.000  H
  C25      1.0000 0.30470  0.88460  0.16470  Biso   1.000  C
  C26      1.0000 0.69530  0.38460  0.33530  Biso   1.000  C
  C27      1.0000 0.69530  0.11540  0.83530  Biso   1.000  C
  C28      1.0000 0.30470  0.61540  0.66470  Biso   1.000  C
  C29      1.0000 0.15170  0.92203  0.06950  Biso   1.000  C
  C30      1.0000 0.84830  0.42203  0.43050  Biso   1.000  C
  C31      1.0000 0.84830  0.07797  0.93050  Biso   1.000  C
  C32      1.0000 0.15170  0.57797  0.56950  Biso   1.000  C
  H25      1.0000 0.14440  0.96340  0.08610  Biso   1.000  H
  H26      1.0000 0.85560  0.46340  0.41390  Biso   1.000  H
  H27      1.0000 0.85560  0.03660  0.91390  Biso   1.000  H
  H28      1.0000 0.14440  0.53660  0.58610  Biso   1.000  H
  C33      1.0000 0.00970  0.89657  0.94910  Biso   1.000  C
  C34      1.0000 0.99030  0.39657  0.55090  Biso   1.000  C
  C35      1.0000 0.99030  0.10343  0.05090  Biso   1.000  C
  C36      1.0000 0.00970  0.60343  0.44910  Biso   1.000  C
  H29      1.0000 0.90610  0.92100  0.88360  Biso   1.000  H
  H30      1.0000 0.09390  0.42100  0.61640  Biso   1.000  H
  H31      1.0000 0.09390  0.07900  0.11640  Biso   1.000  H
  H32      1.0000 0.90610  0.57900  0.38360  Biso   1.000  H
  C37      1.0000 0.02140  0.83521  0.92600  Biso   1.000  C
  C38      1.0000 0.97860  0.33521  0.57400  Biso   1.000  C
  C39      1.0000 0.97860  0.16479  0.07400  Biso   1.000  C
  C40      1.0000 0.02140  0.66479  0.42600  Biso   1.000  C
  H33      1.0000 0.92480  0.81880  0.84440  Biso   1.000  H
  H34      1.0000 0.07520  0.31880  0.65560  Biso   1.000  H
  H35      1.0000 0.07520  0.18120  0.15560  Biso   1.000  H
  H36      1.0000 0.92480  0.68120  0.34440  Biso   1.000  H
  N13      1.0000 0.16950  0.79787  0.01860  Biso   1.000  N
  N14      1.0000 0.83050  0.29787  0.48140  Biso   1.000  N
  N15      1.0000 0.83050  0.20213  0.98140  Biso   1.000  N
  N16      1.0000 0.16950  0.70213  0.51860  Biso   1.000  N
  C41      1.0000 0.30620  0.82288  0.13360  Biso   1.000  C
  C42      1.0000 0.69380  0.32288  0.36640  Biso   1.000  C
  C43      1.0000 0.69380  0.17712  0.86640  Biso   1.000  C
  C44      1.0000 0.30620  0.67712  0.63360  Biso   1.000  C
  H37      1.0000 0.40930  0.79760  0.19730  Biso   1.000  H
  H38      1.0000 0.59070  0.29760  0.30270  Biso   1.000  H
  H39      1.0000 0.59070  0.20240  0.80270  Biso   1.000  H
  H40      1.0000 0.40930  0.70240  0.69730  Biso   1.000  H
  O5       1.0000 0.51170  0.19166  0.34960  Biso   1.000  O
  O6       1.0000 0.48830  0.69166  0.15040  Biso   1.000  O
  O7       1.0000 0.48830  0.80834  0.65040  Biso   1.000  O
  O8       1.0000 0.51170  0.30834  0.84960  Biso   1.000  O
  H41      1.0000 0.51000  0.18790  0.28200  Biso   1.000  H
  H42      1.0000 0.49000  0.68790  0.21800  Biso   1.000  H
  H43      1.0000 0.49000  0.81210  0.71800  Biso   1.000  H
  H44      1.0000 0.51000  0.31210  0.78200  Biso   1.000  H
  O9       1.0000 0.77440  0.22495  0.65300  Biso   1.000  O
  O10      1.0000 0.22560  0.72495  0.84700  Biso   1.000  O
  O11      1.0000 0.22560  0.77505  0.34700  Biso   1.000  O
  O12      1.0000 0.77440  0.27505  0.15300  Biso   1.000  O
  H45      1.0000 0.88450  0.22870  0.72340  Biso   1.000  H
  H46      1.0000 0.11550  0.72870  0.77660  Biso   1.000  H
  H47      1.0000 0.11550  0.77130  0.27660  Biso   1.000  H
  H48      1.0000 0.88450  0.27130  0.22340  Biso   1.000  H
  O13      1.0000 0.92030  0.18699  0.39160  Biso   1.000  O
  O14      1.0000 0.07970  0.68699  0.10840  Biso   1.000  O
  O15      1.0000 0.07970  0.81301  0.60840  Biso   1.000  O
  O16      1.0000 0.92030  0.31301  0.89160  Biso   1.000  O
  S1       1.0000 0.14041  0.20202  0.44423  Biso   1.000  S
  S2       1.0000 0.85959  0.70202  0.05577  Biso   1.000  S
  S3       1.0000 0.85959  0.79798  0.55577  Biso   1.000  S
  S4       1.0000 0.14041  0.29798  0.94423  Biso   1.000  S
  O17      1.0000 0.25230  0.20504  0.58560  Biso   1.000  O
  O18      1.0000 0.74770  0.70504  0.91440  Biso   1.000  O
  O19      1.0000 0.74770  0.79496  0.41440  Biso   1.000  O
  O20      1.0000 0.25230  0.29496  0.08560  Biso   1.000  O
  O21      1.0000 0.14980  0.26186  0.38880  Biso   1.000  O
  O22      1.0000 0.85020  0.76186  0.11120  Biso   1.000  O
  O23      1.0000 0.85020  0.73814  0.61120  Biso   1.000  O
  O24      1.0000 0.14980  0.23814  0.88880  Biso   1.000  O
  O25      1.0000 0.22360  0.15283  0.40100  Biso   1.000  O
  O26      1.0000 0.77640  0.65283  0.09900  Biso   1.000  O
  O27      1.0000 0.77640  0.84717  0.59900  Biso   1.000  O
  O28      1.0000 0.22360  0.34717  0.90100  Biso   1.000  O
  O29      1.0000 0.49370  0.31779  0.60830  Biso   1.000  O
  O30      1.0000 0.50630  0.81779  0.89170  Biso   1.000  O
  O31      1.0000 0.50630  0.68221  0.39170  Biso   1.000  O
  O32      1.0000 0.49370  0.18221  0.10830  Biso   1.000  O
  H49      1.0000 0.39330  0.30440  0.54050  Biso   1.000  H
  H50      1.0000 0.60670  0.80440  0.95950  Biso   1.000  H
  H51      1.0000 0.60670  0.69560  0.45950  Biso   1.000  H
  H52      1.0000 0.39330  0.19560  0.04050  Biso   1.000  H
  C45      1.0000 0.52550  0.38010  0.59040  Biso   1.000  C
  C46      1.0000 0.47450  0.88010  0.90960  Biso   1.000  C
  C47      1.0000 0.47450  0.61990  0.40960  Biso   1.000  C
  C48      1.0000 0.52550  0.11990  0.09040  Biso   1.000  C
  H53      1.0000 0.53610  0.38370  0.51560  Biso   1.000  H
  H54      1.0000 0.46390  0.88370  0.98440  Biso   1.000  H
  H55      1.0000 0.46390  0.61630  0.48440  Biso   1.000  H
  H56      1.0000 0.53610  0.11630  0.01560  Biso   1.000  H
  H57      1.0000 0.65070  0.39460  0.66670  Biso   1.000  H
  H58      1.0000 0.34930  0.89460  0.83330  Biso   1.000  H
  H59      1.0000 0.34930  0.60540  0.33330  Biso   1.000  H
  H60      1.0000 0.65070  0.10540  0.16670  Biso   1.000  H
  H61      1.0000 0.41130  0.40440  0.57690  Biso   1.000  H
  H62      1.0000 0.58870  0.90440  0.92310  Biso   1.000  H
  H63      1.0000 0.58870  0.59560  0.42310  Biso   1.000  H
  H64      1.0000 0.41130  0.09560  0.07690  Biso   1.000  H
  H65      1.0000 0.40600  0.18520  0.35500  Biso   1.000  H
  H66      1.0000 0.59400  0.68520  0.14500  Biso   1.000  H
  H67      1.0000 0.59400  0.81480  0.64500  Biso   1.000  H
  H68      1.0000 0.40600  0.31480  0.85500  Biso   1.000  H
  H69      1.0000 0.69700  0.25500  0.64500  Biso   1.000  H
  H70      1.0000 0.30300  0.75500  0.85500  Biso   1.000  H
  H71      1.0000 0.30300  0.74500  0.35500  Biso   1.000  H
  H72      1.0000 0.69700  0.24500  0.14500  Biso   1.000  H
