data_image0
_cell_length_a       8.3292
_cell_length_b       9.7989
_cell_length_c       13.155
_cell_angle_alpha    80.124
_cell_angle_beta     74.892
_cell_angle_gamma    88.202

_symmetry_space_group_name_H-M    "P 1"
_symmetry_int_tables_number       1

loop_
  _symmetry_equiv_pos_as_xyz
  'x, y, z'

loop_
  _atom_site_label
  _atom_site_occupancy
  _atom_site_fract_x
  _atom_site_fract_y
  _atom_site_fract_z
  _atom_site_thermal_displace_type
  _atom_site_B_iso_or_equiv
  _atom_site_type_symbol
  O1       1.0000 0.11600  0.63490  0.84189  Biso   1.000  O
  O2       1.0000 0.88400  0.36510  0.15811  Biso   1.000  O
  N1       1.0000 0.17570  0.55440  0.90583  Biso   1.000  N
  N2       1.0000 0.82430  0.44560  0.09417  Biso   1.000  N
  O3       1.0000 0.25890  0.45250  0.87753  Biso   1.000  O
  O4       1.0000 0.74110  0.54750  0.12247  Biso   1.000  O
  O5       1.0000 0.15310  0.57590  0.99978  Biso   1.000  O
  O6       1.0000 0.84690  0.42410  0.00022  Biso   1.000  O
  Cu1      1.0000 0.50000  0.50000  0.50000  Biso   1.000  Cu
  Cu2      1.0000 0.00000  0.00000  0.00000  Biso   1.000  Cu
  N3       1.0000 0.35050  0.52730  0.39918  Biso   1.000  N
  N4       1.0000 0.64950  0.47270  0.60082  Biso   1.000  N
  C1       1.0000 0.21430  0.60670  0.41950  Biso   1.000  C
  C2       1.0000 0.78570  0.39330  0.58050  Biso   1.000  C
  H1       1.0000 0.19050  0.64990  0.48100  Biso   1.000  H
  H2       1.0000 0.80950  0.35010  0.51900  Biso   1.000  H
  C3       1.0000 0.10920  0.62660  0.35330  Biso   1.000  C
  C4       1.0000 0.89080  0.37340  0.64670  Biso   1.000  C
  H3       1.0000 0.01360  0.68240  0.36950  Biso   1.000  H
  H4       1.0000 0.98640  0.31760  0.63050  Biso   1.000  H
  C5       1.0000 0.14330  0.56500  0.26310  Biso   1.000  C
  C6       1.0000 0.85670  0.43500  0.73690  Biso   1.000  C
  H5       1.0000 0.07160  0.57780  0.21670  Biso   1.000  H
  H6       1.0000 0.92840  0.42220  0.78330  Biso   1.000  H
  C7       1.0000 0.28430  0.48410  0.24140  Biso   1.000  C
  C8       1.0000 0.71570  0.51590  0.75860  Biso   1.000  C
  C9       1.0000 0.38520  0.46860  0.31150  Biso   1.000  C
  C10      1.0000 0.61480  0.53140  0.68850  Biso   1.000  C
  H7       1.0000 0.48240  0.41430  0.29660  Biso   1.000  H
  H8       1.0000 0.51760  0.58570  0.70340  Biso   1.000  H
  N5       1.0000 0.31910  0.42700  0.14708  Biso   1.000  N
  N6       1.0000 0.68090  0.57300  0.85292  Biso   1.000  N
  H9       1.0000 0.26290  0.45960  0.10020  Biso   1.000  H
  H10      1.0000 0.73710  0.54040  0.89980  Biso   1.000  H
  C11      1.0000 0.43160  0.32600  0.12090  Biso   1.000  C
  C12      1.0000 0.56840  0.67400  0.87910  Biso   1.000  C
  O7       1.0000 0.51340  0.26600  0.17991  Biso   1.000  O
  O8       1.0000 0.48660  0.73400  0.82009  Biso   1.000  O
  N7       1.0000 0.44570  0.29970  0.01973  Biso   1.000  N
  N8       1.0000 0.55430  0.70030  0.98027  Biso   1.000  N
  H11      1.0000 0.37970  0.34560  0.98380  Biso   1.000  H
  H12      1.0000 0.62030  0.65440  0.01620  Biso   1.000  H
  C13      1.0000 0.55540  0.20650  0.96840  Biso   1.000  C
  C14      1.0000 0.44460  0.79350  0.03160  Biso   1.000  C
  C15      1.0000 0.53120  0.17200  0.87510  Biso   1.000  C
  C16      1.0000 0.46880  0.82800  0.12490  Biso   1.000  C
  H13      1.0000 0.44060  0.20930  0.84840  Biso   1.000  H
  H14      1.0000 0.55940  0.79070  0.15160  Biso   1.000  H
  C17      1.0000 0.64070  0.08260  0.82160  Biso   1.000  C
  C18      1.0000 0.35930  0.91740  0.17840  Biso   1.000  C
  H15      1.0000 0.62490  0.05700  0.75840  Biso   1.000  H
  H16      1.0000 0.37510  0.94300  0.24160  Biso   1.000  H
  C19      1.0000 0.77240  0.03130  0.86070  Biso   1.000  C
  C20      1.0000 0.22760  0.96870  0.13930  Biso   1.000  C
  H17      1.0000 0.84680  0.96970  0.82390  Biso   1.000  H
  H18      1.0000 0.15320  0.03030  0.17610  Biso   1.000  H
  N9       1.0000 0.79860  0.06620  0.95020  Biso   1.000  N
  N10      1.0000 0.20140  0.93380  0.04980  Biso   1.000  N
  C21      1.0000 0.69200  0.15060  0.00360  Biso   1.000  C
  C22      1.0000 0.30800  0.84940  0.99640  Biso   1.000  C
  H19      1.0000 0.70970  0.17320  0.06720  Biso   1.000  H
  H20      1.0000 0.29030  0.82680  0.93280  Biso   1.000  H
  O9       1.0000 0.15900  0.00440  0.81819  Biso   1.000  O
  O10      1.0000 0.84100  0.99560  0.18181  Biso   1.000  O
  N11      1.0000 0.19910  0.11240  0.75331  Biso   1.000  N
  N12      1.0000 0.80090  0.88760  0.24669  Biso   1.000  N
  O11      1.0000 0.25720  0.10600  0.65760  Biso   1.000  O
  O12      1.0000 0.74280  0.89400  0.34240  Biso   1.000  O
  O13      1.0000 0.17860  0.22830  0.77934  Biso   1.000  O
  O14      1.0000 0.82140  0.77170  0.22066  Biso   1.000  O
  O15      1.0000 0.06860  0.19250  0.00325  Biso   1.000  O
  O16      1.0000 0.93140  0.80750  0.99675  Biso   1.000  O
  H21      1.0000 0.08370  0.24030  0.94200  Biso   1.000  H
  H22      1.0000 0.91630  0.75970  0.05800  Biso   1.000  H
  O17      1.0000 0.48080  0.29240  0.51719  Biso   1.000  O
  O18      1.0000 0.51920  0.70760  0.48281  Biso   1.000  O
  H23      1.0000 0.41320  0.26190  0.57580  Biso   1.000  H
  H24      1.0000 0.58680  0.73810  0.42420  Biso   1.000  H
  O19      1.0000 0.26680  0.50080  0.64358  Biso   1.000  O
  O20      1.0000 0.73320  0.49920  0.35642  Biso   1.000  O
  H25      1.0000 0.23280  0.58220  0.64500  Biso   1.000  H
  H26      1.0000 0.76720  0.41780  0.35500  Biso   1.000  H
  H27      1.0000 0.99200  0.23900  0.04310  Biso   1.000  H
  H28      1.0000 0.00800  0.76100  0.95690  Biso   1.000  H
  H29      1.0000 0.49290  0.26220  0.47260  Biso   1.000  H
  H30      1.0000 0.50710  0.73780  0.52740  Biso   1.000  H
  H31      1.0000 0.28600  0.42820  0.69950  Biso   1.000  H
  H32      1.0000 0.71400  0.57180  0.30050  Biso   1.000  H
