data_image0
_cell_length_a       11.5562
_cell_length_b       8.6626
_cell_length_c       14.2196
_cell_angle_alpha    90
_cell_angle_beta     105.109
_cell_angle_gamma    90

_symmetry_space_group_name_H-M    "P 1"
_symmetry_int_tables_number       1

loop_
  _symmetry_equiv_pos_as_xyz
  'x, y, z'

loop_
  _atom_site_label
  _atom_site_occupancy
  _atom_site_fract_x
  _atom_site_fract_y
  _atom_site_fract_z
  _atom_site_thermal_displace_type
  _atom_site_B_iso_or_equiv
  _atom_site_type_symbol
  Cu1      1.0000 0.52855  0.87953  0.84998  Biso   1.000  Cu
  Cu2      1.0000 0.97145  0.37953  0.65002  Biso   1.000  Cu
  Cu3      1.0000 0.47145  0.12047  0.15002  Biso   1.000  Cu
  Cu4      1.0000 0.02855  0.62047  0.34998  Biso   1.000  Cu
  Cl1      1.0000 0.62992  0.00918  0.76196  Biso   1.000  Cl
  Cl2      1.0000 0.87008  0.50918  0.73804  Biso   1.000  Cl
  Cl3      1.0000 0.37008  0.99082  0.23804  Biso   1.000  Cl
  Cl4      1.0000 0.12992  0.49082  0.26196  Biso   1.000  Cl
  C1       1.0000 0.14298  0.12540  0.77980  Biso   1.000  C
  C2       1.0000 0.35702  0.62540  0.72020  Biso   1.000  C
  C3       1.0000 0.85702  0.87460  0.22020  Biso   1.000  C
  C4       1.0000 0.64298  0.37460  0.27980  Biso   1.000  C
  H1       1.0000 0.19740  0.16450  0.74790  Biso   1.000  H
  H2       1.0000 0.30260  0.66450  0.75210  Biso   1.000  H
  H3       1.0000 0.80260  0.83550  0.25210  Biso   1.000  H
  H4       1.0000 0.69740  0.33550  0.24790  Biso   1.000  H
  N1       1.0000 0.03209  0.18379  0.75697  Biso   1.000  N
  N2       1.0000 0.46791  0.68379  0.74303  Biso   1.000  N
  N3       1.0000 0.96791  0.81621  0.24303  Biso   1.000  N
  N4       1.0000 0.53209  0.31621  0.25697  Biso   1.000  N
  C5       1.0000 0.95476  0.12550  0.80324  Biso   1.000  C
  C6       1.0000 0.54524  0.62550  0.69676  Biso   1.000  C
  C7       1.0000 0.04524  0.87450  0.19676  Biso   1.000  C
  C8       1.0000 0.45476  0.37450  0.30324  Biso   1.000  C
  H5       1.0000 0.87710  0.16440  0.78820  Biso   1.000  H
  H6       1.0000 0.62290  0.66440  0.71180  Biso   1.000  H
  H7       1.0000 0.12290  0.83560  0.21180  Biso   1.000  H
  H8       1.0000 0.37710  0.33560  0.28820  Biso   1.000  H
  C9       1.0000 0.98506  0.01060  0.87197  Biso   1.000  C
  C10      1.0000 0.51494  0.51060  0.62803  Biso   1.000  C
  C11      1.0000 0.01494  0.98940  0.12803  Biso   1.000  C
  C12      1.0000 0.48506  0.48940  0.37197  Biso   1.000  C
  H9       1.0000 0.92870  0.97300  0.90240  Biso   1.000  H
  H10      1.0000 0.57130  0.47300  0.59760  Biso   1.000  H
  H11      1.0000 0.07130  0.02700  0.09760  Biso   1.000  H
  H12      1.0000 0.42870  0.52700  0.40240  Biso   1.000  H
  C13      1.0000 0.09986  0.95160  0.89535  Biso   1.000  C
  C14      1.0000 0.40014  0.45160  0.60465  Biso   1.000  C
  C15      1.0000 0.90014  0.04840  0.10465  Biso   1.000  C
  C16      1.0000 0.59986  0.54840  0.39535  Biso   1.000  C
  H13      1.0000 0.12210  0.87410  0.94180  Biso   1.000  H
  H14      1.0000 0.37790  0.37410  0.55820  Biso   1.000  H
  H15      1.0000 0.87790  0.12590  0.05820  Biso   1.000  H
  H16      1.0000 0.62210  0.62590  0.44180  Biso   1.000  H
  C17      1.0000 0.18145  0.00990  0.84828  Biso   1.000  C
  C18      1.0000 0.31855  0.50990  0.65172  Biso   1.000  C
  C19      1.0000 0.81855  0.99010  0.15172  Biso   1.000  C
  C20      1.0000 0.68145  0.49010  0.34828  Biso   1.000  C
  C21      1.0000 0.30700  0.95181  0.86924  Biso   1.000  C
  C22      1.0000 0.19300  0.45181  0.63076  Biso   1.000  C
  C23      1.0000 0.69300  0.04819  0.13076  Biso   1.000  C
  C24      1.0000 0.80700  0.54819  0.36924  Biso   1.000  C
  O1       1.0000 0.37113  0.99316  0.81285  Biso   1.000  O
  O2       1.0000 0.12887  0.49316  0.68715  Biso   1.000  O
  O3       1.0000 0.62887  0.00684  0.18715  Biso   1.000  O
  O4       1.0000 0.87113  0.50684  0.31285  Biso   1.000  O
  N5       1.0000 0.34046  0.85950  0.94586  Biso   1.000  N
  N6       1.0000 0.15954  0.35950  0.55414  Biso   1.000  N
  N7       1.0000 0.65954  0.14050  0.05414  Biso   1.000  N
  N8       1.0000 0.84046  0.64050  0.44586  Biso   1.000  N
  N9       1.0000 0.45600  0.81345  0.95242  Biso   1.000  N
  N10      1.0000 0.04400  0.31345  0.54758  Biso   1.000  N
  N11      1.0000 0.54400  0.18655  0.04758  Biso   1.000  N
  N12      1.0000 0.95600  0.68655  0.45242  Biso   1.000  N
  C25      1.0000 0.51540  0.72870  0.02328  Biso   1.000  C
  C26      1.0000 0.98460  0.22870  0.47672  Biso   1.000  C
  C27      1.0000 0.48460  0.27130  0.97672  Biso   1.000  C
  C28      1.0000 0.01540  0.77130  0.52328  Biso   1.000  C
  C29      1.0000 0.46814  0.67340  0.10553  Biso   1.000  C
  C30      1.0000 0.03186  0.17340  0.39447  Biso   1.000  C
  C31      1.0000 0.53186  0.32660  0.89447  Biso   1.000  C
  C32      1.0000 0.96814  0.82660  0.60553  Biso   1.000  C
  H17      1.0000 0.51590  0.71540  0.16560  Biso   1.000  H
  H18      1.0000 0.98410  0.21540  0.33440  Biso   1.000  H
  H19      1.0000 0.48410  0.28460  0.83440  Biso   1.000  H
  H20      1.0000 0.01590  0.78460  0.66560  Biso   1.000  H
  H21      1.0000 0.47160  0.56270  0.10830  Biso   1.000  H
  H22      1.0000 0.02840  0.06270  0.39170  Biso   1.000  H
  H23      1.0000 0.52840  0.43730  0.89170  Biso   1.000  H
  H24      1.0000 0.97160  0.93730  0.60830  Biso   1.000  H
  H25      1.0000 0.38650  0.70650  0.09550  Biso   1.000  H
  H26      1.0000 0.11350  0.20650  0.40450  Biso   1.000  H
  H27      1.0000 0.61350  0.29350  0.90450  Biso   1.000  H
  H28      1.0000 0.88650  0.79350  0.59550  Biso   1.000  H
  C33      1.0000 0.63642  0.69070  0.01482  Biso   1.000  C
  C34      1.0000 0.86358  0.19070  0.48518  Biso   1.000  C
  C35      1.0000 0.36358  0.30930  0.98518  Biso   1.000  C
  C36      1.0000 0.13642  0.80930  0.51482  Biso   1.000  C
  C37      1.0000 0.71679  0.59770  0.07996  Biso   1.000  C
  C38      1.0000 0.78321  0.09770  0.42004  Biso   1.000  C
  C39      1.0000 0.28321  0.40230  0.92004  Biso   1.000  C
  C40      1.0000 0.21679  0.90230  0.57996  Biso   1.000  C
  H29      1.0000 0.69650  0.55610  0.13380  Biso   1.000  H
  H30      1.0000 0.80350  0.05610  0.36620  Biso   1.000  H
  H31      1.0000 0.30350  0.44390  0.86620  Biso   1.000  H
  H32      1.0000 0.19650  0.94390  0.63380  Biso   1.000  H
  C41      1.0000 0.82790  0.56740  0.06378  Biso   1.000  C
  C42      1.0000 0.67210  0.06740  0.43622  Biso   1.000  C
  C43      1.0000 0.17210  0.43260  0.93622  Biso   1.000  C
  C44      1.0000 0.32790  0.93260  0.56378  Biso   1.000  C
  H33      1.0000 0.88350  0.50690  0.10740  Biso   1.000  H
  H34      1.0000 0.61650  0.00690  0.39260  Biso   1.000  H
  H35      1.0000 0.11650  0.49310  0.89260  Biso   1.000  H
  H36      1.0000 0.38350  0.99310  0.60740  Biso   1.000  H
  C45      1.0000 0.85500  0.62770  0.98284  Biso   1.000  C
  C46      1.0000 0.64500  0.12770  0.51716  Biso   1.000  C
  C47      1.0000 0.14500  0.37230  0.01716  Biso   1.000  C
  C48      1.0000 0.35500  0.87230  0.48284  Biso   1.000  C
  H37      1.0000 0.92860  0.60720  0.97020  Biso   1.000  H
  H38      1.0000 0.57140  0.10720  0.52980  Biso   1.000  H
  H39      1.0000 0.07140  0.39280  0.02980  Biso   1.000  H
  H40      1.0000 0.42860  0.89280  0.47020  Biso   1.000  H
  C49      1.0000 0.77042  0.71990  0.92002  Biso   1.000  C
  C50      1.0000 0.72958  0.21990  0.57998  Biso   1.000  C
  C51      1.0000 0.22958  0.28010  0.07998  Biso   1.000  C
  C52      1.0000 0.27042  0.78010  0.42002  Biso   1.000  C
  H41      1.0000 0.78850  0.76030  0.86490  Biso   1.000  H
  H42      1.0000 0.71150  0.26030  0.63510  Biso   1.000  H
  H43      1.0000 0.21150  0.23970  0.13510  Biso   1.000  H
  H44      1.0000 0.28850  0.73970  0.36490  Biso   1.000  H
  N13      1.0000 0.66466  0.75236  0.93600  Biso   1.000  N
  N14      1.0000 0.83534  0.25236  0.56400  Biso   1.000  N
  N15      1.0000 0.33534  0.24764  0.06400  Biso   1.000  N
  N16      1.0000 0.16466  0.74764  0.43600  Biso   1.000  N
