data_image0
_cell_length_a       12.876
_cell_length_b       17.76
_cell_length_c       14.835
_cell_angle_alpha    90
_cell_angle_beta     90
_cell_angle_gamma    90

_symmetry_space_group_name_H-M    "P 1"
_symmetry_int_tables_number       1

loop_
  _symmetry_equiv_pos_as_xyz
  'x, y, z'

loop_
  _atom_site_label
  _atom_site_occupancy
  _atom_site_fract_x
  _atom_site_fract_y
  _atom_site_fract_z
  _atom_site_thermal_displace_type
  _atom_site_B_iso_or_equiv
  _atom_site_type_symbol
  C1       1.0000 0.38960  0.23610  0.10690  Biso   1.000  C
  C2       1.0000 0.11040  0.26390  0.60690  Biso   1.000  C
  C3       1.0000 0.88960  0.26390  0.89310  Biso   1.000  C
  C4       1.0000 0.61040  0.23610  0.39310  Biso   1.000  C
  C5       1.0000 0.61040  0.76390  0.89310  Biso   1.000  C
  C6       1.0000 0.88960  0.73610  0.39310  Biso   1.000  C
  C7       1.0000 0.11040  0.73610  0.10690  Biso   1.000  C
  C8       1.0000 0.38960  0.76390  0.60690  Biso   1.000  C
  H1       1.0000 0.41540  0.19710  0.07150  Biso   1.000  H
  H2       1.0000 0.08460  0.30290  0.57150  Biso   1.000  H
  H3       1.0000 0.91540  0.30290  0.92850  Biso   1.000  H
  H4       1.0000 0.58460  0.19710  0.42850  Biso   1.000  H
  H5       1.0000 0.58460  0.80290  0.92850  Biso   1.000  H
  H6       1.0000 0.91540  0.69710  0.42850  Biso   1.000  H
  H7       1.0000 0.08460  0.69710  0.07150  Biso   1.000  H
  H8       1.0000 0.41540  0.80290  0.57150  Biso   1.000  H
  C9       1.0000 0.33060  0.28790  0.06820  Biso   1.000  C
  C10      1.0000 0.16940  0.21210  0.56820  Biso   1.000  C
  C11      1.0000 0.83060  0.21210  0.93180  Biso   1.000  C
  C12      1.0000 0.66940  0.28790  0.43180  Biso   1.000  C
  C13      1.0000 0.66940  0.71210  0.93180  Biso   1.000  C
  C14      1.0000 0.83060  0.78790  0.43180  Biso   1.000  C
  C15      1.0000 0.16940  0.78790  0.06820  Biso   1.000  C
  C16      1.0000 0.33060  0.71210  0.56820  Biso   1.000  C
  H9       1.0000 0.31590  0.28460  0.00690  Biso   1.000  H
  H10      1.0000 0.18410  0.21540  0.50690  Biso   1.000  H
  H11      1.0000 0.81590  0.21540  0.99310  Biso   1.000  H
  H12      1.0000 0.68410  0.28460  0.49310  Biso   1.000  H
  H13      1.0000 0.68410  0.71540  0.99310  Biso   1.000  H
  H14      1.0000 0.81590  0.78460  0.49310  Biso   1.000  H
  H15      1.0000 0.18410  0.78460  0.00690  Biso   1.000  H
  H16      1.0000 0.31590  0.71540  0.50690  Biso   1.000  H
  C17      1.0000 0.29060  0.34700  0.11870  Biso   1.000  C
  C18      1.0000 0.20940  0.15300  0.61870  Biso   1.000  C
  C19      1.0000 0.79060  0.15300  0.88130  Biso   1.000  C
  C20      1.0000 0.70940  0.34700  0.38130  Biso   1.000  C
  C21      1.0000 0.70940  0.65300  0.88130  Biso   1.000  C
  C22      1.0000 0.79060  0.84700  0.38130  Biso   1.000  C
  C23      1.0000 0.20940  0.84700  0.11870  Biso   1.000  C
  C24      1.0000 0.29060  0.65300  0.61870  Biso   1.000  C
  C25      1.0000 0.31410  0.34920  0.20610  Biso   1.000  C
  C26      1.0000 0.18590  0.15080  0.70610  Biso   1.000  C
  C27      1.0000 0.81410  0.15080  0.79390  Biso   1.000  C
  C28      1.0000 0.68590  0.34920  0.29390  Biso   1.000  C
  C29      1.0000 0.68590  0.65080  0.79390  Biso   1.000  C
  C30      1.0000 0.81410  0.84920  0.29390  Biso   1.000  C
  C31      1.0000 0.18590  0.84920  0.20610  Biso   1.000  C
  C32      1.0000 0.31410  0.65080  0.70610  Biso   1.000  C
  H17      1.0000 0.28890  0.38750  0.24280  Biso   1.000  H
  H18      1.0000 0.21110  0.11250  0.74280  Biso   1.000  H
  H19      1.0000 0.78890  0.11250  0.75720  Biso   1.000  H
  H20      1.0000 0.71110  0.38750  0.25720  Biso   1.000  H
  H21      1.0000 0.71110  0.61250  0.75720  Biso   1.000  H
  H22      1.0000 0.78890  0.88750  0.25720  Biso   1.000  H
  H23      1.0000 0.21110  0.88750  0.24280  Biso   1.000  H
  H24      1.0000 0.28890  0.61250  0.74280  Biso   1.000  H
  C33      1.0000 0.37620  0.29380  0.24040  Biso   1.000  C
  C34      1.0000 0.12380  0.20620  0.74040  Biso   1.000  C
  C35      1.0000 0.87620  0.20620  0.75960  Biso   1.000  C
  C36      1.0000 0.62380  0.29380  0.25960  Biso   1.000  C
  C37      1.0000 0.62380  0.70620  0.75960  Biso   1.000  C
  C38      1.0000 0.87620  0.79380  0.25960  Biso   1.000  C
  C39      1.0000 0.12380  0.79380  0.24040  Biso   1.000  C
  C40      1.0000 0.37620  0.70620  0.74040  Biso   1.000  C
  H25      1.0000 0.39330  0.29630  0.30120  Biso   1.000  H
  H26      1.0000 0.10670  0.20370  0.80120  Biso   1.000  H
  H27      1.0000 0.89330  0.20370  0.69880  Biso   1.000  H
  H28      1.0000 0.60670  0.29630  0.19880  Biso   1.000  H
  H29      1.0000 0.60670  0.70370  0.69880  Biso   1.000  H
  H30      1.0000 0.89330  0.79630  0.19880  Biso   1.000  H
  H31      1.0000 0.10670  0.79630  0.30120  Biso   1.000  H
  H32      1.0000 0.39330  0.70370  0.80120  Biso   1.000  H
  C41      1.0000 0.17720  0.45690  0.11610  Biso   1.000  C
  C42      1.0000 0.32280  0.04310  0.61610  Biso   1.000  C
  C43      1.0000 0.67720  0.04310  0.88390  Biso   1.000  C
  C44      1.0000 0.82280  0.45690  0.38390  Biso   1.000  C
  C45      1.0000 0.82280  0.54310  0.88390  Biso   1.000  C
  C46      1.0000 0.67720  0.95690  0.38390  Biso   1.000  C
  C47      1.0000 0.32280  0.95690  0.11610  Biso   1.000  C
  C48      1.0000 0.17720  0.54310  0.61610  Biso   1.000  C
  C49      1.0000 0.22870  0.50610  0.16800  Biso   1.000  C
  C50      1.0000 0.27130  0.99390  0.66800  Biso   1.000  C
  C51      1.0000 0.72870  0.99390  0.83200  Biso   1.000  C
  C52      1.0000 0.77130  0.50610  0.33200  Biso   1.000  C
  C53      1.0000 0.77130  0.49390  0.83200  Biso   1.000  C
  C54      1.0000 0.72870  0.00610  0.33200  Biso   1.000  C
  C55      1.0000 0.27130  0.00610  0.16800  Biso   1.000  C
  C56      1.0000 0.22870  0.49390  0.66800  Biso   1.000  C
  H33      1.0000 0.29900  0.49920  0.17980  Biso   1.000  H
  H34      1.0000 0.20100  0.00080  0.67980  Biso   1.000  H
  H35      1.0000 0.79900  0.00080  0.82020  Biso   1.000  H
  H36      1.0000 0.70100  0.49920  0.32020  Biso   1.000  H
  H37      1.0000 0.70100  0.50080  0.82020  Biso   1.000  H
  H38      1.0000 0.79900  0.99920  0.32020  Biso   1.000  H
  H39      1.0000 0.20100  0.99920  0.17980  Biso   1.000  H
  H40      1.0000 0.29900  0.50080  0.67980  Biso   1.000  H
  C57      1.0000 0.07540  0.47110  0.09800  Biso   1.000  C
  C58      1.0000 0.42460  0.02890  0.59800  Biso   1.000  C
  C59      1.0000 0.57540  0.02890  0.90200  Biso   1.000  C
  C60      1.0000 0.92460  0.47110  0.40200  Biso   1.000  C
  C61      1.0000 0.92460  0.52890  0.90200  Biso   1.000  C
  C62      1.0000 0.57540  0.97110  0.40200  Biso   1.000  C
  C63      1.0000 0.42460  0.97110  0.09800  Biso   1.000  C
  C64      1.0000 0.07540  0.52890  0.59800  Biso   1.000  C
  H41      1.0000 0.03790  0.43930  0.06030  Biso   1.000  H
  H42      1.0000 0.46210  0.06070  0.56030  Biso   1.000  H
  H43      1.0000 0.53790  0.06070  0.93970  Biso   1.000  H
  H44      1.0000 0.96210  0.43930  0.43970  Biso   1.000  H
  H45      1.0000 0.96210  0.56070  0.93970  Biso   1.000  H
  H46      1.0000 0.53790  0.93930  0.43970  Biso   1.000  H
  H47      1.0000 0.46210  0.93930  0.06030  Biso   1.000  H
  H48      1.0000 0.03790  0.56070  0.56030  Biso   1.000  H
  C65      1.0000 0.02960  0.53150  0.13510  Biso   1.000  C
  C66      1.0000 0.47040  0.96850  0.63510  Biso   1.000  C
  C67      1.0000 0.52960  0.96850  0.86490  Biso   1.000  C
  C68      1.0000 0.97040  0.53150  0.36490  Biso   1.000  C
  C69      1.0000 0.97040  0.46850  0.86490  Biso   1.000  C
  C70      1.0000 0.52960  0.03150  0.36490  Biso   1.000  C
  C71      1.0000 0.47040  0.03150  0.13510  Biso   1.000  C
  C72      1.0000 0.02960  0.46850  0.63510  Biso   1.000  C
  H49      1.0000 0.95970  0.54000  0.12310  Biso   1.000  H
  H50      1.0000 0.54030  0.96000  0.62310  Biso   1.000  H
  H51      1.0000 0.45970  0.96000  0.87690  Biso   1.000  H
  H52      1.0000 0.04030  0.54000  0.37690  Biso   1.000  H
  H53      1.0000 0.04030  0.46000  0.87690  Biso   1.000  H
  H54      1.0000 0.45970  0.04000  0.37690  Biso   1.000  H
  H55      1.0000 0.54030  0.04000  0.12310  Biso   1.000  H
  H56      1.0000 0.95970  0.46000  0.62310  Biso   1.000  H
  C73      1.0000 0.17820  0.56570  0.20300  Biso   1.000  C
  C74      1.0000 0.32180  0.93430  0.70300  Biso   1.000  C
  C75      1.0000 0.67820  0.93430  0.79700  Biso   1.000  C
  C76      1.0000 0.82180  0.56570  0.29700  Biso   1.000  C
  C77      1.0000 0.82180  0.43430  0.79700  Biso   1.000  C
  C78      1.0000 0.67820  0.06570  0.29700  Biso   1.000  C
  C79      1.0000 0.32180  0.06570  0.20300  Biso   1.000  C
  C80      1.0000 0.17820  0.43430  0.70300  Biso   1.000  C
  H57      1.0000 0.21460  0.59900  0.23970  Biso   1.000  H
  H58      1.0000 0.28540  0.90100  0.73970  Biso   1.000  H
  H59      1.0000 0.71460  0.90100  0.76030  Biso   1.000  H
  H60      1.0000 0.78540  0.59900  0.26030  Biso   1.000  H
  H61      1.0000 0.78540  0.40100  0.76030  Biso   1.000  H
  H62      1.0000 0.71460  0.09900  0.26030  Biso   1.000  H
  H63      1.0000 0.28540  0.09900  0.23970  Biso   1.000  H
  H64      1.0000 0.21460  0.40100  0.73970  Biso   1.000  H
  N1       1.0000 0.41360  0.23727  0.19320  Biso   1.000  N
  N2       1.0000 0.08640  0.26273  0.69320  Biso   1.000  N
  N3       1.0000 0.91360  0.26273  0.80680  Biso   1.000  N
  N4       1.0000 0.58640  0.23727  0.30680  Biso   1.000  N
  N5       1.0000 0.58640  0.76273  0.80680  Biso   1.000  N
  N6       1.0000 0.91360  0.73727  0.30680  Biso   1.000  N
  N7       1.0000 0.08640  0.73727  0.19320  Biso   1.000  N
  N8       1.0000 0.41360  0.76273  0.69320  Biso   1.000  N
  N9       1.0000 0.22310  0.39426  0.07900  Biso   1.000  N
  N10      1.0000 0.27690  0.10574  0.57900  Biso   1.000  N
  N11      1.0000 0.72310  0.10574  0.92100  Biso   1.000  N
  N12      1.0000 0.77690  0.39426  0.42100  Biso   1.000  N
  N13      1.0000 0.77690  0.60574  0.92100  Biso   1.000  N
  N14      1.0000 0.72310  0.89426  0.42100  Biso   1.000  N
  N15      1.0000 0.27690  0.89426  0.07900  Biso   1.000  N
  N16      1.0000 0.22310  0.60574  0.57900  Biso   1.000  N
  H65      1.0000 0.20680  0.38420  0.02410  Biso   1.000  H
  H66      1.0000 0.29320  0.11580  0.52410  Biso   1.000  H
  H67      1.0000 0.70680  0.11580  0.97590  Biso   1.000  H
  H68      1.0000 0.79320  0.38420  0.47590  Biso   1.000  H
  H69      1.0000 0.79320  0.61580  0.97590  Biso   1.000  H
  H70      1.0000 0.70680  0.88420  0.47590  Biso   1.000  H
  H71      1.0000 0.29320  0.88420  0.02410  Biso   1.000  H
  H72      1.0000 0.20680  0.61580  0.52410  Biso   1.000  H
  N17      1.0000 0.07840  0.57864  0.18710  Biso   1.000  N
  N18      1.0000 0.42160  0.92136  0.68710  Biso   1.000  N
  N19      1.0000 0.57840  0.92136  0.81290  Biso   1.000  N
  N20      1.0000 0.92160  0.57864  0.31290  Biso   1.000  N
  N21      1.0000 0.92160  0.42136  0.81290  Biso   1.000  N
  N22      1.0000 0.57840  0.07864  0.31290  Biso   1.000  N
  N23      1.0000 0.42160  0.07864  0.18710  Biso   1.000  N
  N24      1.0000 0.07840  0.42136  0.68710  Biso   1.000  N
  Cl1      1.0000 0.64066  0.16665  0.10341  Biso   1.000  Cl
  Cl2      1.0000 0.85934  0.33335  0.60341  Biso   1.000  Cl
  Cl3      1.0000 0.14066  0.33335  0.89659  Biso   1.000  Cl
  Cl4      1.0000 0.35934  0.16665  0.39659  Biso   1.000  Cl
  Cl5      1.0000 0.35934  0.83335  0.89659  Biso   1.000  Cl
  Cl6      1.0000 0.14066  0.66665  0.39659  Biso   1.000  Cl
  Cl7      1.0000 0.85934  0.66665  0.10341  Biso   1.000  Cl
  Cl8      1.0000 0.64066  0.83335  0.60341  Biso   1.000  Cl
  Cu1      1.0000 0.50000  0.15973  0.25000  Biso   1.000  Cu
  Cu2      1.0000 0.00000  0.34027  0.75000  Biso   1.000  Cu
  Cu3      1.0000 0.50000  0.84027  0.75000  Biso   1.000  Cu
  Cu4      1.0000 0.00000  0.65973  0.25000  Biso   1.000  Cu
