data_image0
_cell_length_a       26.372
_cell_length_b       8.29
_cell_length_c       19.435
_cell_angle_alpha    90
_cell_angle_beta     122.777
_cell_angle_gamma    90

_symmetry_space_group_name_H-M    "P 1"
_symmetry_int_tables_number       1

loop_
  _symmetry_equiv_pos_as_xyz
  'x, y, z'

loop_
  _atom_site_label
  _atom_site_occupancy
  _atom_site_fract_x
  _atom_site_fract_y
  _atom_site_fract_z
  _atom_site_thermal_displace_type
  _atom_site_B_iso_or_equiv
  _atom_site_type_symbol
  Cu1      1.0000 0.64936  0.25203  0.84369  Biso   1.000  Cu
  Cu2      1.0000 0.35064  0.25203  0.65631  Biso   1.000  Cu
  Cu3      1.0000 0.14936  0.75203  0.84369  Biso   1.000  Cu
  Cu4      1.0000 0.85064  0.75203  0.65631  Biso   1.000  Cu
  Cu5      1.0000 0.35064  0.74797  0.15631  Biso   1.000  Cu
  Cu6      1.0000 0.64936  0.74797  0.34369  Biso   1.000  Cu
  Cu7      1.0000 0.85064  0.24797  0.15631  Biso   1.000  Cu
  Cu8      1.0000 0.14936  0.24797  0.34369  Biso   1.000  Cu
  Cu9      1.0000 0.55988  0.17327  0.64433  Biso   1.000  Cu
  Cu10     1.0000 0.44012  0.17327  0.85567  Biso   1.000  Cu
  Cu11     1.0000 0.05988  0.67327  0.64433  Biso   1.000  Cu
  Cu12     1.0000 0.94012  0.67327  0.85567  Biso   1.000  Cu
  Cu13     1.0000 0.44012  0.82673  0.35567  Biso   1.000  Cu
  Cu14     1.0000 0.55988  0.82673  0.14433  Biso   1.000  Cu
  Cu15     1.0000 0.94012  0.32673  0.35567  Biso   1.000  Cu
  Cu16     1.0000 0.05988  0.32673  0.14433  Biso   1.000  Cu
  Cl1      1.0000 0.73431  0.51640  0.80581  Biso   1.000  Cl
  Cl2      1.0000 0.26569  0.51640  0.69419  Biso   1.000  Cl
  Cl3      1.0000 0.23431  0.01640  0.80581  Biso   1.000  Cl
  Cl4      1.0000 0.76569  0.01640  0.69419  Biso   1.000  Cl
  Cl5      1.0000 0.26569  0.48360  0.19419  Biso   1.000  Cl
  Cl6      1.0000 0.73431  0.48360  0.30581  Biso   1.000  Cl
  Cl7      1.0000 0.76569  0.98360  0.19419  Biso   1.000  Cl
  Cl8      1.0000 0.23431  0.98360  0.30581  Biso   1.000  Cl
  Cl9      1.0000 0.58070  0.96020  0.89971  Biso   1.000  Cl
  Cl10     1.0000 0.41930  0.96020  0.60029  Biso   1.000  Cl
  Cl11     1.0000 0.08070  0.46020  0.89971  Biso   1.000  Cl
  Cl12     1.0000 0.91930  0.46020  0.60029  Biso   1.000  Cl
  Cl13     1.0000 0.41930  0.03980  0.10029  Biso   1.000  Cl
  Cl14     1.0000 0.58070  0.03980  0.39971  Biso   1.000  Cl
  Cl15     1.0000 0.91930  0.53980  0.10029  Biso   1.000  Cl
  Cl16     1.0000 0.08070  0.53980  0.39971  Biso   1.000  Cl
  O1       1.0000 0.58330  0.40060  0.79990  Biso   1.000  O
  O2       1.0000 0.41670  0.40060  0.70010  Biso   1.000  O
  O3       1.0000 0.08330  0.90060  0.79990  Biso   1.000  O
  O4       1.0000 0.91670  0.90060  0.70010  Biso   1.000  O
  O5       1.0000 0.41670  0.59940  0.20010  Biso   1.000  O
  O6       1.0000 0.58330  0.59940  0.29990  Biso   1.000  O
  O7       1.0000 0.91670  0.09940  0.20010  Biso   1.000  O
  O8       1.0000 0.08330  0.09940  0.29990  Biso   1.000  O
  O9       1.0000 0.53860  0.38500  0.66450  Biso   1.000  O
  O10      1.0000 0.46140  0.38500  0.83550  Biso   1.000  O
  O11      1.0000 0.03860  0.88500  0.66450  Biso   1.000  O
  O12      1.0000 0.96140  0.88500  0.83550  Biso   1.000  O
  O13      1.0000 0.46140  0.61500  0.33550  Biso   1.000  O
  O14      1.0000 0.53860  0.61500  0.16450  Biso   1.000  O
  O15      1.0000 0.96140  0.11500  0.33550  Biso   1.000  O
  O16      1.0000 0.03860  0.11500  0.16450  Biso   1.000  O
  O17      1.0000 0.61420  0.10460  0.75460  Biso   1.000  O
  O18      1.0000 0.38580  0.10460  0.74540  Biso   1.000  O
  O19      1.0000 0.11420  0.60460  0.75460  Biso   1.000  O
  O20      1.0000 0.88580  0.60460  0.74540  Biso   1.000  O
  O21      1.0000 0.38580  0.89540  0.24540  Biso   1.000  O
  O22      1.0000 0.61420  0.89540  0.25460  Biso   1.000  O
  O23      1.0000 0.88580  0.39540  0.24540  Biso   1.000  O
  O24      1.0000 0.11420  0.39540  0.25460  Biso   1.000  O
  O25      1.0000 0.62930  0.27940  0.62080  Biso   1.000  O
  O26      1.0000 0.37070  0.27940  0.87920  Biso   1.000  O
  O27      1.0000 0.12930  0.77940  0.62080  Biso   1.000  O
  O28      1.0000 0.87070  0.77940  0.87920  Biso   1.000  O
  O29      1.0000 0.37070  0.72060  0.37920  Biso   1.000  O
  O30      1.0000 0.62930  0.72060  0.12080  Biso   1.000  O
  O31      1.0000 0.87070  0.22060  0.37920  Biso   1.000  O
  O32      1.0000 0.12930  0.22060  0.12080  Biso   1.000  O
  O33      1.0000 0.78600  0.51270  0.88510  Biso   1.000  O
  O34      1.0000 0.21400  0.51270  0.61490  Biso   1.000  O
  O35      1.0000 0.28600  0.01270  0.88510  Biso   1.000  O
  O36      1.0000 0.71400  0.01270  0.61490  Biso   1.000  O
  O37      1.0000 0.21400  0.48730  0.11490  Biso   1.000  O
  O38      1.0000 0.78600  0.48730  0.38510  Biso   1.000  O
  O39      1.0000 0.71400  0.98730  0.11490  Biso   1.000  O
  O40      1.0000 0.28600  0.98730  0.38510  Biso   1.000  O
  O41      1.0000 0.74780  0.53960  0.74580  Biso   1.000  O
  O42      1.0000 0.25220  0.53960  0.75420  Biso   1.000  O
  O43      1.0000 0.24780  0.03960  0.74580  Biso   1.000  O
  O44      1.0000 0.75220  0.03960  0.75420  Biso   1.000  O
  O45      1.0000 0.25220  0.46040  0.25420  Biso   1.000  O
  O46      1.0000 0.74780  0.46040  0.24580  Biso   1.000  O
  O47      1.0000 0.75220  0.96040  0.25420  Biso   1.000  O
  O48      1.0000 0.24780  0.96040  0.24580  Biso   1.000  O
  O49      1.0000 0.70280  0.36890  0.78930  Biso   1.000  O
  O50      1.0000 0.29720  0.36890  0.71070  Biso   1.000  O
  O51      1.0000 0.20280  0.86890  0.78930  Biso   1.000  O
  O52      1.0000 0.79720  0.86890  0.71070  Biso   1.000  O
  O53      1.0000 0.29720  0.63110  0.21070  Biso   1.000  O
  O54      1.0000 0.70280  0.63110  0.28930  Biso   1.000  O
  O55      1.0000 0.79720  0.13110  0.21070  Biso   1.000  O
  O56      1.0000 0.20280  0.13110  0.28930  Biso   1.000  O
  O57      1.0000 0.69520  0.63970  0.80220  Biso   1.000  O
  O58      1.0000 0.30480  0.63970  0.69780  Biso   1.000  O
  O59      1.0000 0.19520  0.13970  0.80220  Biso   1.000  O
  O60      1.0000 0.80480  0.13970  0.69780  Biso   1.000  O
  O61      1.0000 0.30480  0.36030  0.19780  Biso   1.000  O
  O62      1.0000 0.69520  0.36030  0.30220  Biso   1.000  O
  O63      1.0000 0.80480  0.86030  0.19780  Biso   1.000  O
  O64      1.0000 0.19520  0.86030  0.30220  Biso   1.000  O
  O65      1.0000 0.51870  0.99560  0.84120  Biso   1.000  O
  O66      1.0000 0.48130  0.99560  0.65880  Biso   1.000  O
  O67      1.0000 0.01870  0.49560  0.84120  Biso   1.000  O
  O68      1.0000 0.98130  0.49560  0.65880  Biso   1.000  O
  O69      1.0000 0.48130  0.00440  0.15880  Biso   1.000  O
  O70      1.0000 0.51870  0.00440  0.34120  Biso   1.000  O
  O71      1.0000 0.98130  0.50440  0.15880  Biso   1.000  O
  O72      1.0000 0.01870  0.50440  0.34120  Biso   1.000  O
  O73      1.0000 0.58520  0.86390  0.96350  Biso   1.000  O
  O74      1.0000 0.41480  0.86390  0.53650  Biso   1.000  O
  O75      1.0000 0.08520  0.36390  0.96350  Biso   1.000  O
  O76      1.0000 0.91480  0.36390  0.53650  Biso   1.000  O
  O77      1.0000 0.41480  0.13610  0.03650  Biso   1.000  O
  O78      1.0000 0.58520  0.13610  0.46350  Biso   1.000  O
  O79      1.0000 0.91480  0.63610  0.03650  Biso   1.000  O
  O80      1.0000 0.08520  0.63610  0.46350  Biso   1.000  O
  O81      1.0000 0.61330  0.10780  0.93250  Biso   1.000  O
  O82      1.0000 0.38670  0.10780  0.56750  Biso   1.000  O
  O83      1.0000 0.11330  0.60780  0.93250  Biso   1.000  O
  O84      1.0000 0.88670  0.60780  0.56750  Biso   1.000  O
  O85      1.0000 0.38670  0.89220  0.06750  Biso   1.000  O
  O86      1.0000 0.61330  0.89220  0.43250  Biso   1.000  O
  O87      1.0000 0.88670  0.39220  0.06750  Biso   1.000  O
  O88      1.0000 0.11330  0.39220  0.43250  Biso   1.000  O
  O89      1.0000 0.60540  0.87220  0.86050  Biso   1.000  O
  O90      1.0000 0.39460  0.87220  0.63950  Biso   1.000  O
  O91      1.0000 0.10540  0.37220  0.86050  Biso   1.000  O
  O92      1.0000 0.89460  0.37220  0.63950  Biso   1.000  O
  O93      1.0000 0.39460  0.12780  0.13950  Biso   1.000  O
  O94      1.0000 0.60540  0.12780  0.36050  Biso   1.000  O
  O95      1.0000 0.89460  0.62780  0.13950  Biso   1.000  O
  O96      1.0000 0.10540  0.62780  0.36050  Biso   1.000  O
  N1       1.0000 0.69230  0.39590  0.94580  Biso   1.000  N
  N2       1.0000 0.30770  0.39590  0.55420  Biso   1.000  N
  N3       1.0000 0.19230  0.89590  0.94580  Biso   1.000  N
  N4       1.0000 0.80770  0.89590  0.55420  Biso   1.000  N
  N5       1.0000 0.30770  0.60410  0.05420  Biso   1.000  N
  N6       1.0000 0.69230  0.60410  0.44580  Biso   1.000  N
  N7       1.0000 0.80770  0.10410  0.05420  Biso   1.000  N
  N8       1.0000 0.19230  0.10410  0.44580  Biso   1.000  N
  N9       1.0000 0.77740  0.39130  0.08180  Biso   1.000  N
  N10      1.0000 0.22260  0.39130  0.41820  Biso   1.000  N
  N11      1.0000 0.27740  0.89130  0.08180  Biso   1.000  N
  N12      1.0000 0.72260  0.89130  0.41820  Biso   1.000  N
  N13      1.0000 0.22260  0.60870  0.91820  Biso   1.000  N
  N14      1.0000 0.77740  0.60870  0.58180  Biso   1.000  N
  N15      1.0000 0.72260  0.10870  0.91820  Biso   1.000  N
  N16      1.0000 0.27740  0.10870  0.58180  Biso   1.000  N
  N17      1.0000 0.48900  0.19840  0.52460  Biso   1.000  N
  N18      1.0000 0.51100  0.19840  0.97540  Biso   1.000  N
  N19      1.0000 0.98900  0.69840  0.52460  Biso   1.000  N
  N20      1.0000 0.01100  0.69840  0.97540  Biso   1.000  N
  N21      1.0000 0.51100  0.80160  0.47540  Biso   1.000  N
  N22      1.0000 0.48900  0.80160  0.02460  Biso   1.000  N
  N23      1.0000 0.01100  0.30160  0.47540  Biso   1.000  N
  N24      1.0000 0.98900  0.30160  0.02460  Biso   1.000  N
  N25      1.0000 0.43520  0.04660  0.40230  Biso   1.000  N
  N26      1.0000 0.56480  0.04660  0.09770  Biso   1.000  N
  N27      1.0000 0.93520  0.54660  0.40230  Biso   1.000  N
  N28      1.0000 0.06480  0.54660  0.09770  Biso   1.000  N
  N29      1.0000 0.56480  0.95340  0.59770  Biso   1.000  N
  N30      1.0000 0.43520  0.95340  0.90230  Biso   1.000  N
  N31      1.0000 0.06480  0.45340  0.59770  Biso   1.000  N
  N32      1.0000 0.93520  0.45340  0.90230  Biso   1.000  N
  C1       1.0000 0.67760  0.54170  0.95880  Biso   1.000  C
  C2       1.0000 0.32240  0.54170  0.54120  Biso   1.000  C
  C3       1.0000 0.17760  0.04170  0.95880  Biso   1.000  C
  C4       1.0000 0.82240  0.04170  0.54120  Biso   1.000  C
  C5       1.0000 0.32240  0.45830  0.04120  Biso   1.000  C
  C6       1.0000 0.67760  0.45830  0.45880  Biso   1.000  C
  C7       1.0000 0.82240  0.95830  0.04120  Biso   1.000  C
  C8       1.0000 0.17760  0.95830  0.45880  Biso   1.000  C
  C9       1.0000 0.71270  0.61620  0.03350  Biso   1.000  C
  C10      1.0000 0.28730  0.61620  0.46650  Biso   1.000  C
  C11      1.0000 0.21270  0.11620  0.03350  Biso   1.000  C
  C12      1.0000 0.78730  0.11620  0.46650  Biso   1.000  C
  C13      1.0000 0.28730  0.38380  0.96650  Biso   1.000  C
  C14      1.0000 0.71270  0.38380  0.53350  Biso   1.000  C
  C15      1.0000 0.78730  0.88380  0.96650  Biso   1.000  C
  C16      1.0000 0.21270  0.88380  0.53350  Biso   1.000  C
  C17      1.0000 0.76230  0.53630  0.09490  Biso   1.000  C
  C18      1.0000 0.23770  0.53630  0.40510  Biso   1.000  C
  C19      1.0000 0.26230  0.03630  0.09490  Biso   1.000  C
  C20      1.0000 0.73770  0.03630  0.40510  Biso   1.000  C
  C21      1.0000 0.23770  0.46370  0.90510  Biso   1.000  C
  C22      1.0000 0.76230  0.46370  0.59490  Biso   1.000  C
  C23      1.0000 0.73770  0.96370  0.90510  Biso   1.000  C
  C24      1.0000 0.26230  0.96370  0.59490  Biso   1.000  C
  C25      1.0000 0.45030  0.32020  0.48820  Biso   1.000  C
  C26      1.0000 0.54970  0.32020  0.01180  Biso   1.000  C
  C27      1.0000 0.95030  0.82020  0.48820  Biso   1.000  C
  C28      1.0000 0.04970  0.82020  0.01180  Biso   1.000  C
  C29      1.0000 0.54970  0.67980  0.51180  Biso   1.000  C
  C30      1.0000 0.45030  0.67980  0.98820  Biso   1.000  C
  C31      1.0000 0.04970  0.17980  0.51180  Biso   1.000  C
  C32      1.0000 0.95030  0.17980  0.98820  Biso   1.000  C
  C33      1.0000 0.40270  0.30840  0.40760  Biso   1.000  C
  C34      1.0000 0.59730  0.30840  0.09240  Biso   1.000  C
  C35      1.0000 0.90270  0.80840  0.40760  Biso   1.000  C
  C36      1.0000 0.09730  0.80840  0.09240  Biso   1.000  C
  C37      1.0000 0.59730  0.69160  0.59240  Biso   1.000  C
  C38      1.0000 0.40270  0.69160  0.90760  Biso   1.000  C
  C39      1.0000 0.09730  0.19160  0.59240  Biso   1.000  C
  C40      1.0000 0.90270  0.19160  0.90760  Biso   1.000  C
  C41      1.0000 0.39610  0.16780  0.36600  Biso   1.000  C
  C42      1.0000 0.60390  0.16780  0.13400  Biso   1.000  C
  C43      1.0000 0.89610  0.66780  0.36600  Biso   1.000  C
  C44      1.0000 0.10390  0.66780  0.13400  Biso   1.000  C
  C45      1.0000 0.60390  0.83220  0.63400  Biso   1.000  C
  C46      1.0000 0.39610  0.83220  0.86600  Biso   1.000  C
  C47      1.0000 0.10390  0.33220  0.63400  Biso   1.000  C
  C48      1.0000 0.89610  0.33220  0.86600  Biso   1.000  C
  C49      1.0000 0.74520  0.32960  0.00740  Biso   1.000  C
  C50      1.0000 0.25480  0.32960  0.49260  Biso   1.000  C
  C51      1.0000 0.24520  0.82960  0.00740  Biso   1.000  C
  C52      1.0000 0.75480  0.82960  0.49260  Biso   1.000  C
  C53      1.0000 0.25480  0.67040  0.99260  Biso   1.000  C
  C54      1.0000 0.74520  0.67040  0.50740  Biso   1.000  C
  C55      1.0000 0.75480  0.17040  0.99260  Biso   1.000  C
  C56      1.0000 0.24520  0.17040  0.50740  Biso   1.000  C
  C57      1.0000 0.47920  0.06740  0.47980  Biso   1.000  C
  C58      1.0000 0.52080  0.06740  0.02020  Biso   1.000  C
  C59      1.0000 0.97920  0.56740  0.47980  Biso   1.000  C
  C60      1.0000 0.02080  0.56740  0.02020  Biso   1.000  C
  C61      1.0000 0.52080  0.93260  0.52020  Biso   1.000  C
  C62      1.0000 0.47920  0.93260  0.97980  Biso   1.000  C
  C63      1.0000 0.02080  0.43260  0.52020  Biso   1.000  C
  C64      1.0000 0.97920  0.43260  0.97980  Biso   1.000  C
  C65      1.0000 0.54660  0.44690  0.72830  Biso   1.000  C
  C66      1.0000 0.45340  0.44690  0.77170  Biso   1.000  C
  C67      1.0000 0.04660  0.94690  0.72830  Biso   1.000  C
  C68      1.0000 0.95340  0.94690  0.77170  Biso   1.000  C
  C69      1.0000 0.45340  0.55310  0.27170  Biso   1.000  C
  C70      1.0000 0.54660  0.55310  0.22830  Biso   1.000  C
  C71      1.0000 0.95340  0.05310  0.27170  Biso   1.000  C
  C72      1.0000 0.04660  0.05310  0.22830  Biso   1.000  C
  C73      1.0000 0.50980  0.59340  0.71960  Biso   1.000  C
  C74      1.0000 0.49020  0.59340  0.78040  Biso   1.000  C
  C75      1.0000 0.00980  0.09340  0.71960  Biso   1.000  C
  C76      1.0000 0.99020  0.09340  0.78040  Biso   1.000  C
  C77      1.0000 0.49020  0.40660  0.28040  Biso   1.000  C
  C78      1.0000 0.50980  0.40660  0.21960  Biso   1.000  C
  C79      1.0000 0.99020  0.90660  0.28040  Biso   1.000  C
  C80      1.0000 0.00980  0.90660  0.21960  Biso   1.000  C
  H1       1.0000 0.64740  0.61460  0.91350  Biso   1.000  H
  H2       1.0000 0.35260  0.61460  0.58650  Biso   1.000  H
  H3       1.0000 0.14740  0.11460  0.91350  Biso   1.000  H
  H4       1.0000 0.85260  0.11460  0.58650  Biso   1.000  H
  H5       1.0000 0.35260  0.38540  0.08650  Biso   1.000  H
  H6       1.0000 0.64740  0.38540  0.41350  Biso   1.000  H
  H7       1.0000 0.85260  0.88540  0.08650  Biso   1.000  H
  H8       1.0000 0.14740  0.88540  0.41350  Biso   1.000  H
  H9       1.0000 0.70260  0.71260  0.04420  Biso   1.000  H
  H10      1.0000 0.29740  0.71260  0.45580  Biso   1.000  H
  H11      1.0000 0.20260  0.21260  0.04420  Biso   1.000  H
  H12      1.0000 0.79740  0.21260  0.45580  Biso   1.000  H
  H13      1.0000 0.29740  0.28740  0.95580  Biso   1.000  H
  H14      1.0000 0.70260  0.28740  0.54420  Biso   1.000  H
  H15      1.0000 0.79740  0.78740  0.95580  Biso   1.000  H
  H16      1.0000 0.20260  0.78740  0.54420  Biso   1.000  H
  H17      1.0000 0.78990  0.58230  0.14980  Biso   1.000  H
  H18      1.0000 0.21010  0.58230  0.35020  Biso   1.000  H
  H19      1.0000 0.28990  0.08230  0.14980  Biso   1.000  H
  H20      1.0000 0.71010  0.08230  0.35020  Biso   1.000  H
  H21      1.0000 0.21010  0.41770  0.85020  Biso   1.000  H
  H22      1.0000 0.78990  0.41770  0.64980  Biso   1.000  H
  H23      1.0000 0.71010  0.91770  0.85020  Biso   1.000  H
  H24      1.0000 0.28990  0.91770  0.64980  Biso   1.000  H
  H25      1.0000 0.45960  0.41760  0.52060  Biso   1.000  H
  H26      1.0000 0.54040  0.41760  0.97940  Biso   1.000  H
  H27      1.0000 0.95960  0.91760  0.52060  Biso   1.000  H
  H28      1.0000 0.04040  0.91760  0.97940  Biso   1.000  H
  H29      1.0000 0.54040  0.58240  0.47940  Biso   1.000  H
  H30      1.0000 0.45960  0.58240  0.02060  Biso   1.000  H
  H31      1.0000 0.04040  0.08240  0.47940  Biso   1.000  H
  H32      1.0000 0.95960  0.08240  0.02060  Biso   1.000  H
  H33      1.0000 0.37550  0.39980  0.37820  Biso   1.000  H
  H34      1.0000 0.62450  0.39980  0.12180  Biso   1.000  H
  H35      1.0000 0.87550  0.89980  0.37820  Biso   1.000  H
  H36      1.0000 0.12450  0.89980  0.12180  Biso   1.000  H
  H37      1.0000 0.62450  0.60020  0.62180  Biso   1.000  H
  H38      1.0000 0.37550  0.60020  0.87820  Biso   1.000  H
  H39      1.0000 0.12450  0.10020  0.62180  Biso   1.000  H
  H40      1.0000 0.87550  0.10020  0.87820  Biso   1.000  H
  H41      1.0000 0.36130  0.15240  0.30260  Biso   1.000  H
  H42      1.0000 0.63870  0.15240  0.19740  Biso   1.000  H
  H43      1.0000 0.86130  0.65240  0.30260  Biso   1.000  H
  H44      1.0000 0.13870  0.65240  0.19740  Biso   1.000  H
  H45      1.0000 0.63870  0.84760  0.69740  Biso   1.000  H
  H46      1.0000 0.36130  0.84760  0.80260  Biso   1.000  H
  H47      1.0000 0.13870  0.34760  0.69740  Biso   1.000  H
  H48      1.0000 0.86130  0.34760  0.80260  Biso   1.000  H
  H49      1.0000 0.53900  0.68650  0.72590  Biso   1.000  H
  H50      1.0000 0.46100  0.68650  0.77410  Biso   1.000  H
  H51      1.0000 0.03900  0.18650  0.72590  Biso   1.000  H
  H52      1.0000 0.96100  0.18650  0.77410  Biso   1.000  H
  H53      1.0000 0.46100  0.31350  0.27410  Biso   1.000  H
  H54      1.0000 0.53900  0.31350  0.22590  Biso   1.000  H
  H55      1.0000 0.96100  0.81350  0.27410  Biso   1.000  H
  H56      1.0000 0.03900  0.81350  0.22590  Biso   1.000  H
  H57      1.0000 0.47500  0.61480  0.66590  Biso   1.000  H
  H58      1.0000 0.52500  0.61480  0.83410  Biso   1.000  H
  H59      1.0000 0.97500  0.11480  0.66590  Biso   1.000  H
  H60      1.0000 0.02500  0.11480  0.83410  Biso   1.000  H
  H61      1.0000 0.52500  0.38520  0.33410  Biso   1.000  H
  H62      1.0000 0.47500  0.38520  0.16590  Biso   1.000  H
  H63      1.0000 0.02500  0.88520  0.33410  Biso   1.000  H
  H64      1.0000 0.97500  0.88520  0.16590  Biso   1.000  H
  H65      1.0000 0.60160  0.98680  0.76280  Biso   1.000  H
  H66      1.0000 0.39840  0.98680  0.73720  Biso   1.000  H
  H67      1.0000 0.10160  0.48680  0.76280  Biso   1.000  H
  H68      1.0000 0.89840  0.48680  0.73720  Biso   1.000  H
  H69      1.0000 0.39840  0.01320  0.23720  Biso   1.000  H
  H70      1.0000 0.60160  0.01320  0.26280  Biso   1.000  H
  H71      1.0000 0.89840  0.51320  0.23720  Biso   1.000  H
  H72      1.0000 0.10160  0.51320  0.26280  Biso   1.000  H
  H73      1.0000 0.66000  0.29830  0.67030  Biso   1.000  H
  H74      1.0000 0.34000  0.29830  0.82970  Biso   1.000  H
  H75      1.0000 0.16000  0.79830  0.67030  Biso   1.000  H
  H76      1.0000 0.84000  0.79830  0.82970  Biso   1.000  H
  H77      1.0000 0.34000  0.70170  0.32970  Biso   1.000  H
  H78      1.0000 0.66000  0.70170  0.17030  Biso   1.000  H
  H79      1.0000 0.84000  0.20170  0.32970  Biso   1.000  H
  H80      1.0000 0.16000  0.20170  0.17030  Biso   1.000  H
  H81      1.0000 0.63830  0.19260  0.59850  Biso   1.000  H
  H82      1.0000 0.36170  0.19260  0.90150  Biso   1.000  H
  H83      1.0000 0.13830  0.69260  0.59850  Biso   1.000  H
  H84      1.0000 0.86170  0.69260  0.90150  Biso   1.000  H
  H85      1.0000 0.36170  0.80740  0.40150  Biso   1.000  H
  H86      1.0000 0.63830  0.80740  0.09850  Biso   1.000  H
  H87      1.0000 0.86170  0.30740  0.40150  Biso   1.000  H
  H88      1.0000 0.13830  0.30740  0.09850  Biso   1.000  H
