data_image0
_cell_length_a       10.439
_cell_length_b       10.674
_cell_length_c       9.678
_cell_angle_alpha    101.43
_cell_angle_beta     109.69
_cell_angle_gamma    105.58

_symmetry_space_group_name_H-M    "P 1"
_symmetry_int_tables_number       1

loop_
  _symmetry_equiv_pos_as_xyz
  'x, y, z'

loop_
  _atom_site_label
  _atom_site_occupancy
  _atom_site_fract_x
  _atom_site_fract_y
  _atom_site_fract_z
  _atom_site_thermal_displace_type
  _atom_site_B_iso_or_equiv
  _atom_site_type_symbol
  Cu1      1.0000 0.80996  0.11968  0.57836  Biso   1.000  Cu
  Cu2      1.0000 0.19004  0.88032  0.42164  Biso   1.000  Cu
  Cl1      1.0000 0.85950  0.71350  0.75090  Biso   1.000  Cl
  Cl2      1.0000 0.14050  0.28650  0.24910  Biso   1.000  Cl
  O1       1.0000 0.86920  0.29140  0.53940  Biso   1.000  O
  O2       1.0000 0.13080  0.70860  0.46060  Biso   1.000  O
  O3       1.0000 0.08150  0.36130  0.74070  Biso   1.000  O
  O4       1.0000 0.91850  0.63870  0.25930  Biso   1.000  O
  O5       1.0000 0.98900  0.72770  0.87250  Biso   1.000  O
  O6       1.0000 0.01100  0.27230  0.12750  Biso   1.000  O
  O7       1.0000 0.75750  0.57960  0.69680  Biso   1.000  O
  O8       1.0000 0.24250  0.42040  0.30320  Biso   1.000  O
  O9       1.0000 0.89190  0.74540  0.62810  Biso   1.000  O
  O10      1.0000 0.10810  0.25460  0.37190  Biso   1.000  O
  O11      1.0000 0.79800  0.80590  0.80640  Biso   1.000  O
  O12      1.0000 0.20200  0.19410  0.19360  Biso   1.000  O
  O13      1.0000 0.54920  0.61650  0.87320  Biso   1.000  O
  O14      1.0000 0.45080  0.38350  0.12680  Biso   1.000  O
  O15      1.0000 0.64670  0.64540  0.18300  Biso   1.000  O
  O16      1.0000 0.35330  0.35460  0.81700  Biso   1.000  O
  N1       1.0000 0.84040  0.02980  0.39140  Biso   1.000  N
  N2       1.0000 0.15960  0.97020  0.60860  Biso   1.000  N
  N3       1.0000 0.00360  0.06260  0.68710  Biso   1.000  N
  N4       1.0000 0.99640  0.93740  0.31290  Biso   1.000  N
  N5       1.0000 0.65950  0.94520  0.56350  Biso   1.000  N
  N6       1.0000 0.34050  0.05480  0.43650  Biso   1.000  N
  N7       1.0000 0.75690  0.19450  0.74990  Biso   1.000  N
  N8       1.0000 0.24310  0.80550  0.25010  Biso   1.000  N
  N9       1.0000 0.60260  0.12920  0.87540  Biso   1.000  N
  N10      1.0000 0.39740  0.87080  0.12460  Biso   1.000  N
  N11      1.0000 0.49770  0.86460  0.67700  Biso   1.000  N
  N12      1.0000 0.50230  0.13540  0.32300  Biso   1.000  N
  C1       1.0000 0.79510  0.95890  0.12680  Biso   1.000  C
  C2       1.0000 0.20490  0.04110  0.87320  Biso   1.000  C
  C3       1.0000 0.76070  0.01520  0.24260  Biso   1.000  C
  C4       1.0000 0.23930  0.98480  0.75740  Biso   1.000  C
  C5       1.0000 0.95530  0.99110  0.41820  Biso   1.000  C
  C6       1.0000 0.04470  0.00890  0.58180  Biso   1.000  C
  C7       1.0000 0.08580  0.07940  0.83410  Biso   1.000  C
  C8       1.0000 0.91420  0.92060  0.16590  Biso   1.000  C
  C9       1.0000 0.61430  0.81690  0.46690  Biso   1.000  C
  C10      1.0000 0.38570  0.18310  0.53310  Biso   1.000  C
  C11      1.0000 0.51110  0.71140  0.47310  Biso   1.000  C
  C12      1.0000 0.48890  0.28860  0.52690  Biso   1.000  C
  C13      1.0000 0.45400  0.73820  0.57820  Biso   1.000  C
  C14      1.0000 0.54600  0.26180  0.42180  Biso   1.000  C
  C15      1.0000 0.59930  0.96000  0.66500  Biso   1.000  C
  C16      1.0000 0.40070  0.04000  0.33500  Biso   1.000  C
  C17      1.0000 0.65660  0.10350  0.77200  Biso   1.000  C
  C18      1.0000 0.34340  0.89650  0.22800  Biso   1.000  C
  C19      1.0000 0.65740  0.26150  0.96560  Biso   1.000  C
  C20      1.0000 0.34260  0.73850  0.03440  Biso   1.000  C
  C21      1.0000 0.75750  0.36150  0.95020  Biso   1.000  C
  C22      1.0000 0.24250  0.63850  0.04980  Biso   1.000  C
  C23      1.0000 0.80770  0.32490  0.83940  Biso   1.000  C
  C24      1.0000 0.19230  0.67510  0.16060  Biso   1.000  C
  C25      1.0000 0.99950  0.37520  0.62440  Biso   1.000  C
  C26      1.0000 0.00050  0.62480  0.37560  Biso   1.000  C
  C27      1.0000 0.05280  0.49890  0.57550  Biso   1.000  C
  C28      1.0000 0.94720  0.50110  0.42450  Biso   1.000  C
  H1       1.0000 0.73000  0.94600  0.02490  Biso   1.000  H
  H2       1.0000 0.27000  0.05400  0.97510  Biso   1.000  H
  H3       1.0000 0.67070  0.03290  0.21970  Biso   1.000  H
  H4       1.0000 0.32930  0.96710  0.78030  Biso   1.000  H
  H5       1.0000 0.05720  0.11740  0.90630  Biso   1.000  H
  H6       1.0000 0.94280  0.88260  0.09370  Biso   1.000  H
  H7       1.0000 0.66060  0.80550  0.39760  Biso   1.000  H
  H8       1.0000 0.33940  0.19450  0.60240  Biso   1.000  H
  H9       1.0000 0.48510  0.63520  0.41610  Biso   1.000  H
  H10      1.0000 0.51490  0.36480  0.58390  Biso   1.000  H
  H11      1.0000 0.37590  0.67370  0.58340  Biso   1.000  H
  H12      1.0000 0.62410  0.32630  0.41660  Biso   1.000  H
  H13      1.0000 0.61670  0.27920  0.03100  Biso   1.000  H
  H14      1.0000 0.38330  0.72080  0.96900  Biso   1.000  H
  H15      1.0000 0.78730  0.44710  0.00720  Biso   1.000  H
  H16      1.0000 0.21270  0.55290  0.99280  Biso   1.000  H
  H17      1.0000 0.87790  0.38280  0.82430  Biso   1.000  H
  H18      1.0000 0.12210  0.61720  0.17570  Biso   1.000  H
  H19      1.0000 0.14880  0.50430  0.57360  Biso   1.000  H
  H20      1.0000 0.85120  0.49570  0.42640  Biso   1.000  H
  H21      1.0000 0.07020  0.57170  0.65910  Biso   1.000  H
  H22      1.0000 0.92980  0.42830  0.34090  Biso   1.000  H
  H23      1.0000 0.60110  0.58760  0.19360  Biso   1.000  H
  H24      1.0000 0.39890  0.41240  0.80640  Biso   1.000  H
  H25      1.0000 0.72890  0.63940  0.19560  Biso   1.000  H
  H26      1.0000 0.27110  0.36060  0.80440  Biso   1.000  H
  H27      1.0000 0.61040  0.63610  0.84370  Biso   1.000  H
  H28      1.0000 0.38960  0.36390  0.15630  Biso   1.000  H
  H29      1.0000 0.49970  0.56230  0.85020  Biso   1.000  H
  H30      1.0000 0.50030  0.43770  0.14980  Biso   1.000  H
