data_image0
_cell_length_a       11.822
_cell_length_b       12.914
_cell_length_c       18.381
_cell_angle_alpha    90
_cell_angle_beta     105.617
_cell_angle_gamma    90

_symmetry_space_group_name_H-M    "P 1"
_symmetry_int_tables_number       1

loop_
  _symmetry_equiv_pos_as_xyz
  'x, y, z'

loop_
  _atom_site_label
  _atom_site_occupancy
  _atom_site_fract_x
  _atom_site_fract_y
  _atom_site_fract_z
  _atom_site_thermal_displace_type
  _atom_site_B_iso_or_equiv
  _atom_site_type_symbol
  Cu1      1.0000 0.49490  0.60146  0.05267  Biso   1.000  Cu
  Cu2      1.0000 0.00510  0.10146  0.44733  Biso   1.000  Cu
  Cu3      1.0000 0.50510  0.39854  0.94733  Biso   1.000  Cu
  Cu4      1.0000 0.99490  0.89854  0.55267  Biso   1.000  Cu
  Cu5      1.0000 0.58076  0.82062  0.98380  Biso   1.000  Cu
  Cu6      1.0000 0.91924  0.32062  0.51620  Biso   1.000  Cu
  Cu7      1.0000 0.41924  0.17938  0.01620  Biso   1.000  Cu
  Cu8      1.0000 0.08076  0.67938  0.48380  Biso   1.000  Cu
  P1       1.0000 0.75032  0.69176  0.11107  Biso   1.000  P
  P2       1.0000 0.74968  0.19176  0.38893  Biso   1.000  P
  P3       1.0000 0.24968  0.30824  0.88893  Biso   1.000  P
  P4       1.0000 0.25032  0.80824  0.61107  Biso   1.000  P
  P5       1.0000 0.52395  0.88438  0.29857  Biso   1.000  P
  P6       1.0000 0.97605  0.38438  0.20143  Biso   1.000  P
  P7       1.0000 0.47605  0.11562  0.70143  Biso   1.000  P
  P8       1.0000 0.02395  0.61562  0.79857  Biso   1.000  P
  P9       1.0000 0.01471  0.88289  0.36915  Biso   1.000  P
  P10      1.0000 0.48529  0.38289  0.13085  Biso   1.000  P
  P11      1.0000 0.98529  0.11711  0.63085  Biso   1.000  P
  P12      1.0000 0.51471  0.61711  0.86915  Biso   1.000  P
  N1       1.0000 0.32440  0.61820  0.04040  Biso   1.000  N
  N2       1.0000 0.17560  0.11820  0.45960  Biso   1.000  N
  N3       1.0000 0.67560  0.38180  0.95960  Biso   1.000  N
  N4       1.0000 0.82440  0.88180  0.54040  Biso   1.000  N
  N5       1.0000 0.42390  0.87670  0.93100  Biso   1.000  N
  N6       1.0000 0.07610  0.37670  0.56900  Biso   1.000  N
  N7       1.0000 0.57610  0.12330  0.06900  Biso   1.000  N
  N8       1.0000 0.92390  0.62330  0.43100  Biso   1.000  N
  O1       1.0000 0.48860  0.75170  0.04384  Biso   1.000  O
  O2       1.0000 0.01140  0.25170  0.45616  Biso   1.000  O
  O3       1.0000 0.51140  0.24830  0.95616  Biso   1.000  O
  O4       1.0000 0.98860  0.74830  0.54384  Biso   1.000  O
  O5       1.0000 0.39080  0.88040  0.09171  Biso   1.000  O
  O6       1.0000 0.10920  0.38040  0.40829  Biso   1.000  O
  O7       1.0000 0.60920  0.11960  0.90829  Biso   1.000  O
  O8       1.0000 0.89080  0.61960  0.59171  Biso   1.000  O
  H1       1.0000 0.41456  0.85737  0.13469  Biso   1.000  H
  H2       1.0000 0.08544  0.35737  0.36531  Biso   1.000  H
  H3       1.0000 0.58544  0.14263  0.86531  Biso   1.000  H
  H4       1.0000 0.91456  0.64263  0.63469  Biso   1.000  H
  O9       1.0000 0.66070  0.60630  0.09974  Biso   1.000  O
  O10      1.0000 0.83930  0.10630  0.40026  Biso   1.000  O
  O11      1.0000 0.33930  0.39370  0.90026  Biso   1.000  O
  O12      1.0000 0.16070  0.89370  0.59974  Biso   1.000  O
  O13      1.0000 0.72810  0.77350  0.04954  Biso   1.000  O
  O14      1.0000 0.77190  0.27350  0.45046  Biso   1.000  O
  O15      1.0000 0.27190  0.22650  0.95046  Biso   1.000  O
  O16      1.0000 0.22810  0.72650  0.54954  Biso   1.000  O
  O17      1.0000 0.87370  0.64710  0.11627  Biso   1.000  O
  O18      1.0000 0.62630  0.14710  0.38373  Biso   1.000  O
  O19      1.0000 0.12630  0.35290  0.88373  Biso   1.000  O
  O20      1.0000 0.37370  0.85290  0.61627  Biso   1.000  O
  H5       1.0000 0.89267  0.60703  0.15213  Biso   1.000  H
  H6       1.0000 0.60733  0.10703  0.34787  Biso   1.000  H
  H7       1.0000 0.10733  0.39297  0.84787  Biso   1.000  H
  H8       1.0000 0.39267  0.89297  0.65213  Biso   1.000  H
  O21      1.0000 0.06680  0.95170  0.31615  Biso   1.000  O
  O22      1.0000 0.43320  0.45170  0.18385  Biso   1.000  O
  O23      1.0000 0.93320  0.04830  0.68385  Biso   1.000  O
  O24      1.0000 0.56680  0.54830  0.81615  Biso   1.000  O
  H9       1.0000 0.06870  0.91850  0.27850  Biso   1.000  H
  H10      1.0000 0.43130  0.41850  0.22150  Biso   1.000  H
  H11      1.0000 0.93130  0.08150  0.72150  Biso   1.000  H
  H12      1.0000 0.56870  0.58150  0.77850  Biso   1.000  H
  O25      1.0000 0.09000  0.78940  0.39336  Biso   1.000  O
  O26      1.0000 0.41000  0.28940  0.10664  Biso   1.000  O
  O27      1.0000 0.91000  0.21060  0.60664  Biso   1.000  O
  O28      1.0000 0.59000  0.71060  0.89336  Biso   1.000  O
  O29      1.0000 0.00080  0.95070  0.43324  Biso   1.000  O
  O30      1.0000 0.49920  0.45070  0.06676  Biso   1.000  O
  O31      1.0000 0.99920  0.04930  0.56676  Biso   1.000  O
  O32      1.0000 0.50080  0.54930  0.93324  Biso   1.000  O
  O33      1.0000 0.52880  0.84160  0.37830  Biso   1.000  O
  O34      1.0000 0.97120  0.34160  0.12170  Biso   1.000  O
  O35      1.0000 0.47120  0.15840  0.62170  Biso   1.000  O
  O36      1.0000 0.02880  0.65840  0.87830  Biso   1.000  O
  H13      1.0000 0.46764  0.85612  0.38898  Biso   1.000  H
  H14      1.0000 0.03236  0.35612  0.11102  Biso   1.000  H
  H15      1.0000 0.53236  0.14388  0.61102  Biso   1.000  H
  H16      1.0000 0.96764  0.64388  0.88898  Biso   1.000  H
  O37      1.0000 0.42300  0.83770  0.23945  Biso   1.000  O
  O38      1.0000 0.07700  0.33770  0.26055  Biso   1.000  O
  O39      1.0000 0.57700  0.16230  0.76055  Biso   1.000  O
  O40      1.0000 0.92300  0.66230  0.73945  Biso   1.000  O
  O41      1.0000 0.52560  0.00060  0.29890  Biso   1.000  O
  O42      1.0000 0.97440  0.50060  0.20110  Biso   1.000  O
  O43      1.0000 0.47440  0.99940  0.70110  Biso   1.000  O
  O44      1.0000 0.02560  0.49940  0.79890  Biso   1.000  O
  O45      1.0000 0.66980  0.91750  0.93460  Biso   1.000  O
  O46      1.0000 0.83020  0.41750  0.56540  Biso   1.000  O
  O47      1.0000 0.33020  0.08250  0.06540  Biso   1.000  O
  O48      1.0000 0.16980  0.58250  0.43460  Biso   1.000  O
  C1       1.0000 0.24770  0.54280  0.04360  Biso   1.000  C
  C2       1.0000 0.25230  0.04280  0.45640  Biso   1.000  C
  C3       1.0000 0.75230  0.45720  0.95640  Biso   1.000  C
  C4       1.0000 0.74770  0.95720  0.54360  Biso   1.000  C
  H17      1.0000 0.26629  0.47469  0.03489  Biso   1.000  H
  H18      1.0000 0.23371  0.97469  0.46511  Biso   1.000  H
  H19      1.0000 0.73371  0.52531  0.96511  Biso   1.000  H
  H20      1.0000 0.76629  0.02531  0.53489  Biso   1.000  H
  C5       1.0000 0.14320  0.56310  0.05910  Biso   1.000  C
  C6       1.0000 0.35680  0.06310  0.44090  Biso   1.000  C
  C7       1.0000 0.85680  0.43690  0.94090  Biso   1.000  C
  C8       1.0000 0.64320  0.93690  0.55910  Biso   1.000  C
  H21      1.0000 0.09113  0.50955  0.06019  Biso   1.000  H
  H22      1.0000 0.40887  0.00955  0.43981  Biso   1.000  H
  H23      1.0000 0.90887  0.49045  0.93981  Biso   1.000  H
  H24      1.0000 0.59113  0.99045  0.56019  Biso   1.000  H
  C9       1.0000 0.11560  0.66230  0.07310  Biso   1.000  C
  C10      1.0000 0.38440  0.16230  0.42690  Biso   1.000  C
  C11      1.0000 0.88440  0.33770  0.92690  Biso   1.000  C
  C12      1.0000 0.61560  0.83770  0.57310  Biso   1.000  C
  H25      1.0000 0.04603  0.67652  0.08559  Biso   1.000  H
  H26      1.0000 0.45397  0.17652  0.41441  Biso   1.000  H
  H27      1.0000 0.95397  0.32348  0.91441  Biso   1.000  H
  H28      1.0000 0.54603  0.82348  0.58559  Biso   1.000  H
  C13      1.0000 0.19160  0.74140  0.06860  Biso   1.000  C
  C14      1.0000 0.30840  0.24140  0.43140  Biso   1.000  C
  C15      1.0000 0.80840  0.25860  0.93140  Biso   1.000  C
  C16      1.0000 0.69160  0.75860  0.56860  Biso   1.000  C
  H29      1.0000 0.17396  0.80963  0.07734  Biso   1.000  H
  H30      1.0000 0.32604  0.30963  0.42266  Biso   1.000  H
  H31      1.0000 0.82604  0.19037  0.92266  Biso   1.000  H
  H32      1.0000 0.67396  0.69037  0.57734  Biso   1.000  H
  C17      1.0000 0.29460  0.71700  0.05080  Biso   1.000  C
  C18      1.0000 0.20540  0.21700  0.44920  Biso   1.000  C
  C19      1.0000 0.70540  0.28300  0.94920  Biso   1.000  C
  C20      1.0000 0.79460  0.78300  0.55080  Biso   1.000  C
  C21      1.0000 0.38110  0.79900  0.03900  Biso   1.000  C
  C22      1.0000 0.11890  0.29900  0.46100  Biso   1.000  C
  C23      1.0000 0.61890  0.20100  0.96100  Biso   1.000  C
  C24      1.0000 0.88110  0.70100  0.53900  Biso   1.000  C
  C25      1.0000 0.33730  0.85290  0.96180  Biso   1.000  C
  C26      1.0000 0.16270  0.35290  0.53820  Biso   1.000  C
  C27      1.0000 0.66270  0.14710  0.03820  Biso   1.000  C
  C28      1.0000 0.83730  0.64710  0.46180  Biso   1.000  C
  C29      1.0000 0.22230  0.87580  0.92780  Biso   1.000  C
  C30      1.0000 0.27770  0.37580  0.57220  Biso   1.000  C
  C31      1.0000 0.77770  0.12420  0.07220  Biso   1.000  C
  C32      1.0000 0.72230  0.62420  0.42780  Biso   1.000  C
  H33      1.0000 0.16363  0.85787  0.95047  Biso   1.000  H
  H34      1.0000 0.33637  0.35787  0.54953  Biso   1.000  H
  H35      1.0000 0.83637  0.14213  0.04953  Biso   1.000  H
  H36      1.0000 0.66363  0.64213  0.45047  Biso   1.000  H
  C33      1.0000 0.19480  0.92680  0.85820  Biso   1.000  C
  C34      1.0000 0.30520  0.42680  0.64180  Biso   1.000  C
  C35      1.0000 0.80520  0.07320  0.14180  Biso   1.000  C
  C36      1.0000 0.69480  0.57320  0.35820  Biso   1.000  C
  H37      1.0000 0.11748  0.94396  0.83396  Biso   1.000  H
  H38      1.0000 0.38252  0.44396  0.66604  Biso   1.000  H
  H39      1.0000 0.88252  0.05604  0.16604  Biso   1.000  H
  H40      1.0000 0.61748  0.55604  0.33396  Biso   1.000  H
  C37      1.0000 0.28330  0.95110  0.82650  Biso   1.000  C
  C38      1.0000 0.21670  0.45110  0.67350  Biso   1.000  C
  C39      1.0000 0.71670  0.04890  0.17350  Biso   1.000  C
  C40      1.0000 0.78330  0.54890  0.32650  Biso   1.000  C
  H41      1.0000 0.26709  0.98517  0.78024  Biso   1.000  H
  H42      1.0000 0.23291  0.48517  0.71976  Biso   1.000  H
  H43      1.0000 0.73291  0.01483  0.21976  Biso   1.000  H
  H44      1.0000 0.76709  0.51483  0.28024  Biso   1.000  H
  C41      1.0000 0.39590  0.92470  0.86350  Biso   1.000  C
  C42      1.0000 0.10410  0.42470  0.63650  Biso   1.000  C
  C43      1.0000 0.60410  0.07530  0.13650  Biso   1.000  C
  C44      1.0000 0.89590  0.57530  0.36350  Biso   1.000  C
  H45      1.0000 0.45568  0.94043  0.84119  Biso   1.000  H
  H46      1.0000 0.04432  0.44043  0.65881  Biso   1.000  H
  H47      1.0000 0.54432  0.05957  0.15881  Biso   1.000  H
  H48      1.0000 0.95568  0.55957  0.34119  Biso   1.000  H
  C45      1.0000 0.76010  0.75620  0.19940  Biso   1.000  C
  C46      1.0000 0.73990  0.25620  0.30060  Biso   1.000  C
  C47      1.0000 0.23990  0.24380  0.80060  Biso   1.000  C
  C48      1.0000 0.26010  0.74380  0.69940  Biso   1.000  C
  C49      1.0000 0.86610  0.78720  0.24620  Biso   1.000  C
  C50      1.0000 0.63390  0.28720  0.25380  Biso   1.000  C
  C51      1.0000 0.13390  0.21280  0.75380  Biso   1.000  C
  C52      1.0000 0.36610  0.71280  0.74620  Biso   1.000  C
  H49      1.0000 0.93517  0.77050  0.23383  Biso   1.000  H
  H50      1.0000 0.56483  0.27050  0.26617  Biso   1.000  H
  H51      1.0000 0.06483  0.22950  0.76617  Biso   1.000  H
  H52      1.0000 0.43517  0.72950  0.73383  Biso   1.000  H
  C53      1.0000 0.87180  0.84370  0.31260  Biso   1.000  C
  C54      1.0000 0.62820  0.34370  0.18740  Biso   1.000  C
  C55      1.0000 0.12820  0.15630  0.68740  Biso   1.000  C
  C56      1.0000 0.37180  0.65630  0.81260  Biso   1.000  C
  C57      1.0000 0.76870  0.87030  0.32960  Biso   1.000  C
  C58      1.0000 0.73130  0.37030  0.17040  Biso   1.000  C
  C59      1.0000 0.23130  0.12970  0.67040  Biso   1.000  C
  C60      1.0000 0.26870  0.62970  0.82960  Biso   1.000  C
  H53      1.0000 0.77166  0.90875  0.37287  Biso   1.000  H
  H54      1.0000 0.72834  0.40875  0.12713  Biso   1.000  H
  H55      1.0000 0.22834  0.09125  0.62713  Biso   1.000  H
  H56      1.0000 0.27166  0.59125  0.87287  Biso   1.000  H
  C61      1.0000 0.66010  0.84020  0.28270  Biso   1.000  C
  C62      1.0000 0.83990  0.34020  0.21730  Biso   1.000  C
  C63      1.0000 0.33990  0.15980  0.71730  Biso   1.000  C
  C64      1.0000 0.16010  0.65980  0.78270  Biso   1.000  C
  C65      1.0000 0.65710  0.78300  0.21850  Biso   1.000  C
  C66      1.0000 0.84290  0.28300  0.28150  Biso   1.000  C
  C67      1.0000 0.34290  0.21700  0.78150  Biso   1.000  C
  C68      1.0000 0.15710  0.71700  0.71850  Biso   1.000  C
  H57      1.0000 0.58496  0.76205  0.18736  Biso   1.000  H
  H58      1.0000 0.91504  0.26205  0.31264  Biso   1.000  H
  H59      1.0000 0.41504  0.23795  0.81264  Biso   1.000  H
  H60      1.0000 0.08496  0.73795  0.68736  Biso   1.000  H
  O49      1.0000 0.34270  0.12470  0.22040  Biso   1.000  O
  O50      1.0000 0.15730  0.62470  0.27960  Biso   1.000  O
  O51      1.0000 0.65730  0.87530  0.77960  Biso   1.000  O
  O52      1.0000 0.84270  0.37530  0.72040  Biso   1.000  O
  O53      1.0000 0.31440  0.34180  0.25620  Biso   1.000  O
  O54      1.0000 0.18560  0.84180  0.24380  Biso   1.000  O
  O55      1.0000 0.68560  0.65820  0.74380  Biso   1.000  O
  O56      1.0000 0.81440  0.15820  0.75620  Biso   1.000  O
  O57      1.0000 0.92200  0.88470  0.02650  Biso   1.000  O
  O58      1.0000 0.57800  0.38470  0.47350  Biso   1.000  O
  O59      1.0000 0.07800  0.11530  0.97350  Biso   1.000  O
  O60      1.0000 0.42200  0.61530  0.52650  Biso   1.000  O
  O61      1.0000 0.08460  0.01330  0.10360  Biso   1.000  O
  O62      1.0000 0.41540  0.51330  0.39640  Biso   1.000  O
  O63      1.0000 0.91540  0.98670  0.89640  Biso   1.000  O
  O64      1.0000 0.58460  0.48670  0.60360  Biso   1.000  O
  O65      1.0000 0.38250  0.62610  0.25920  Biso   1.000  O
  O66      1.0000 0.11750  0.12610  0.24080  Biso   1.000  O
  O67      1.0000 0.61750  0.37390  0.74080  Biso   1.000  O
  O68      1.0000 0.88250  0.87390  0.75920  Biso   1.000  O
  O69      1.0000 0.34470  0.78760  0.42140  Biso   1.000  O
  O70      1.0000 0.15530  0.28760  0.07860  Biso   1.000  O
  O71      1.0000 0.65530  0.21240  0.57860  Biso   1.000  O
  O72      1.0000 0.84470  0.71240  0.92140  Biso   1.000  O
