data_image0
_cell_length_a       13.407
_cell_length_b       20.998
_cell_length_c       13.171
_cell_angle_alpha    90
_cell_angle_beta     104.296
_cell_angle_gamma    90

_symmetry_space_group_name_H-M    "P 1"
_symmetry_int_tables_number       1

loop_
  _symmetry_equiv_pos_as_xyz
  'x, y, z'

loop_
  _atom_site_label
  _atom_site_occupancy
  _atom_site_fract_x
  _atom_site_fract_y
  _atom_site_fract_z
  _atom_site_thermal_displace_type
  _atom_site_B_iso_or_equiv
  _atom_site_type_symbol
  W1       1.0000 0.36894  0.37005  0.35863  Biso   1.000  W
  W2       1.0000 0.63106  0.87005  0.14137  Biso   1.000  W
  W3       1.0000 0.63106  0.62995  0.64137  Biso   1.000  W
  W4       1.0000 0.36894  0.12995  0.85863  Biso   1.000  W
  W5       1.0000 0.50197  0.47739  0.23470  Biso   1.000  W
  W6       1.0000 0.49803  0.97739  0.26530  Biso   1.000  W
  W7       1.0000 0.49803  0.52261  0.76530  Biso   1.000  W
  W8       1.0000 0.50197  0.02261  0.73470  Biso   1.000  W
  W9       1.0000 0.36849  0.39153  0.62266  Biso   1.000  W
  W10      1.0000 0.63151  0.89153  0.87734  Biso   1.000  W
  W11      1.0000 0.63151  0.60847  0.37734  Biso   1.000  W
  W12      1.0000 0.36849  0.10847  0.12266  Biso   1.000  W
  W13      1.0000 0.36039  0.60385  0.30538  Biso   1.000  W
  W14      1.0000 0.63961  0.10385  0.19462  Biso   1.000  W
  W15      1.0000 0.63961  0.39615  0.69462  Biso   1.000  W
  W16      1.0000 0.36039  0.89615  0.80538  Biso   1.000  W
  W17      1.0000 0.22941  0.49652  0.43022  Biso   1.000  W
  W18      1.0000 0.77059  0.99652  0.06978  Biso   1.000  W
  W19      1.0000 0.77059  0.50348  0.56978  Biso   1.000  W
  W20      1.0000 0.22941  0.00348  0.93022  Biso   1.000  W
  W21      1.0000 0.63956  0.37243  0.43038  Biso   1.000  W
  W22      1.0000 0.36044  0.87243  0.06962  Biso   1.000  W
  W23      1.0000 0.36044  0.62757  0.56962  Biso   1.000  W
  W24      1.0000 0.63956  0.12757  0.93038  Biso   1.000  W
  Si1      1.0000 0.50000  0.50000  0.50000  Biso   1.000  Si
  Si2      1.0000 0.50000  0.00000  0.00000  Biso   1.000  Si
  O1       1.0000 0.40800  0.45740  0.48300  Biso   1.000  O
  O2       1.0000 0.59200  0.95740  0.01700  Biso   1.000  O
  O3       1.0000 0.59200  0.54260  0.51700  Biso   1.000  O
  O4       1.0000 0.40800  0.04260  0.98300  Biso   1.000  O
  O5       1.0000 0.50600  0.55320  0.58800  Biso   1.000  O
  O6       1.0000 0.49400  0.05320  0.91200  Biso   1.000  O
  O7       1.0000 0.49400  0.44680  0.41200  Biso   1.000  O
  O8       1.0000 0.50600  0.94680  0.08800  Biso   1.000  O
  O9       1.0000 0.60800  0.45420  0.53400  Biso   1.000  O
  O10      1.0000 0.39200  0.95420  0.96600  Biso   1.000  O
  O11      1.0000 0.39200  0.54580  0.46600  Biso   1.000  O
  O12      1.0000 0.60800  0.04580  0.03400  Biso   1.000  O
  O13      1.0000 0.50300  0.53580  0.39200  Biso   1.000  O
  O14      1.0000 0.49700  0.03580  0.10800  Biso   1.000  O
  O15      1.0000 0.49700  0.46420  0.60800  Biso   1.000  O
  O16      1.0000 0.50300  0.96420  0.89200  Biso   1.000  O
  O17      1.0000 0.49700  0.63730  0.32900  Biso   1.000  O
  O18      1.0000 0.50300  0.13730  0.17100  Biso   1.000  O
  O19      1.0000 0.50300  0.36270  0.67100  Biso   1.000  O
  O20      1.0000 0.49700  0.86270  0.82900  Biso   1.000  O
  O21      1.0000 0.39800  0.54170  0.22300  Biso   1.000  O
  O22      1.0000 0.60200  0.04170  0.27700  Biso   1.000  O
  O23      1.0000 0.60200  0.45830  0.77700  Biso   1.000  O
  O24      1.0000 0.39800  0.95830  0.72300  Biso   1.000  O
  O25      1.0000 0.26000  0.54750  0.32700  Biso   1.000  O
  O26      1.0000 0.74000  0.04750  0.17300  Biso   1.000  O
  O27      1.0000 0.74000  0.45250  0.67300  Biso   1.000  O
  O28      1.0000 0.26000  0.95250  0.82700  Biso   1.000  O
  O29      1.0000 0.29810  0.65310  0.21420  Biso   1.000  O
  O30      1.0000 0.70190  0.15310  0.28580  Biso   1.000  O
  O31      1.0000 0.70190  0.34690  0.78580  Biso   1.000  O
  O32      1.0000 0.29810  0.84690  0.71420  Biso   1.000  O
  O33      1.0000 0.25900  0.42720  0.35100  Biso   1.000  O
  O34      1.0000 0.74100  0.92720  0.14900  Biso   1.000  O
  O35      1.0000 0.74100  0.57280  0.64900  Biso   1.000  O
  O36      1.0000 0.25900  0.07280  0.85100  Biso   1.000  O
  O37      1.0000 0.25300  0.56730  0.52000  Biso   1.000  O
  O38      1.0000 0.74700  0.06730  0.98000  Biso   1.000  O
  O39      1.0000 0.74700  0.43270  0.48000  Biso   1.000  O
  O40      1.0000 0.25300  0.93270  0.02000  Biso   1.000  O
  O41      1.0000 0.25700  0.44210  0.54970  Biso   1.000  O
  O42      1.0000 0.74300  0.94210  0.95030  Biso   1.000  O
  O43      1.0000 0.74300  0.55790  0.45030  Biso   1.000  O
  O44      1.0000 0.25700  0.05790  0.04970  Biso   1.000  O
  O45      1.0000 0.10200  0.49440  0.39800  Biso   1.000  O
  O46      1.0000 0.89800  0.99440  0.10200  Biso   1.000  O
  O47      1.0000 0.89800  0.50560  0.60200  Biso   1.000  O
  O48      1.0000 0.10200  0.00560  0.89800  Biso   1.000  O
  O49      1.0000 0.36400  0.34940  0.49700  Biso   1.000  O
  O50      1.0000 0.63600  0.84940  0.00300  Biso   1.000  O
  O51      1.0000 0.63600  0.65060  0.50300  Biso   1.000  O
  O52      1.0000 0.36400  0.15060  0.99700  Biso   1.000  O
  O53      1.0000 0.30740  0.33910  0.68350  Biso   1.000  O
  O54      1.0000 0.69260  0.83910  0.81650  Biso   1.000  O
  O55      1.0000 0.69260  0.66090  0.31650  Biso   1.000  O
  O56      1.0000 0.30740  0.16090  0.18350  Biso   1.000  O
  O57      1.0000 0.39640  0.45670  0.72200  Biso   1.000  O
  O58      1.0000 0.60360  0.95670  0.77800  Biso   1.000  O
  O59      1.0000 0.60360  0.54330  0.27800  Biso   1.000  O
  O60      1.0000 0.39640  0.04330  0.22200  Biso   1.000  O
  O61      1.0000 0.31100  0.30780  0.29160  Biso   1.000  O
  O62      1.0000 0.68900  0.80780  0.20840  Biso   1.000  O
  O63      1.0000 0.68900  0.69220  0.70840  Biso   1.000  O
  O64      1.0000 0.31100  0.19220  0.79160  Biso   1.000  O
  O65      1.0000 0.50350  0.33950  0.39600  Biso   1.000  O
  O66      1.0000 0.49650  0.83950  0.10400  Biso   1.000  O
  O67      1.0000 0.49650  0.66050  0.60400  Biso   1.000  O
  O68      1.0000 0.50350  0.16050  0.89600  Biso   1.000  O
  O69      1.0000 0.40290  0.41550  0.25100  Biso   1.000  O
  O70      1.0000 0.59710  0.91550  0.24900  Biso   1.000  O
  O71      1.0000 0.59710  0.58450  0.74900  Biso   1.000  O
  O72      1.0000 0.40290  0.08450  0.75100  Biso   1.000  O
  O73      1.0000 0.64900  0.35250  0.57000  Biso   1.000  O
  O74      1.0000 0.35100  0.85250  0.93000  Biso   1.000  O
  O75      1.0000 0.35100  0.64750  0.43000  Biso   1.000  O
  O76      1.0000 0.64900  0.14750  0.07000  Biso   1.000  O
  O77      1.0000 0.70500  0.31260  0.39500  Biso   1.000  O
  O78      1.0000 0.29500  0.81260  0.10500  Biso   1.000  O
  O79      1.0000 0.29500  0.68740  0.60500  Biso   1.000  O
  O80      1.0000 0.70500  0.18740  0.89500  Biso   1.000  O
  O81      1.0000 0.60360  0.41850  0.30200  Biso   1.000  O
  O82      1.0000 0.39640  0.91850  0.19800  Biso   1.000  O
  O83      1.0000 0.39640  0.58150  0.69800  Biso   1.000  O
  O84      1.0000 0.60360  0.08150  0.80200  Biso   1.000  O
  O85      1.0000 0.50500  0.46670  0.11270  Biso   1.000  O
  O86      1.0000 0.49500  0.96670  0.38730  Biso   1.000  O
  O87      1.0000 0.49500  0.53330  0.88730  Biso   1.000  O
  O88      1.0000 0.50500  0.03330  0.61270  Biso   1.000  O
  Cu1      1.0000 0.00960  0.26700  0.78110  Biso   1.000  Cu
  Cu2      1.0000 0.99040  0.76700  0.71890  Biso   1.000  Cu
  Cu3      1.0000 0.99040  0.73300  0.21890  Biso   1.000  Cu
  Cu4      1.0000 0.00960  0.23300  0.28110  Biso   1.000  Cu
  Cu5      1.0000 0.00870  0.27190  0.03220  Biso   1.000  Cu
  Cu6      1.0000 0.99130  0.77190  0.46780  Biso   1.000  Cu
  Cu7      1.0000 0.99130  0.72810  0.96780  Biso   1.000  Cu
  Cu8      1.0000 0.00870  0.22810  0.53220  Biso   1.000  Cu
  C1       1.0000 0.23100  0.30010  0.88500  Biso   1.000  C
  C2       1.0000 0.76900  0.80010  0.61500  Biso   1.000  C
  C3       1.0000 0.76900  0.69990  0.11500  Biso   1.000  C
  C4       1.0000 0.23100  0.19990  0.38500  Biso   1.000  C
  H1       1.0000 0.25380  0.30520  0.82430  Biso   1.000  H
  H2       1.0000 0.74620  0.80520  0.67570  Biso   1.000  H
  H3       1.0000 0.74620  0.69480  0.17570  Biso   1.000  H
  H4       1.0000 0.25380  0.19480  0.32430  Biso   1.000  H
  C5       1.0000 0.23400  0.29170  0.04600  Biso   1.000  C
  C6       1.0000 0.76600  0.79170  0.45400  Biso   1.000  C
  C7       1.0000 0.76600  0.70830  0.95400  Biso   1.000  C
  C8       1.0000 0.23400  0.20830  0.54600  Biso   1.000  C
  H5       1.0000 0.25430  0.28820  0.11900  Biso   1.000  H
  H6       1.0000 0.74570  0.78820  0.38100  Biso   1.000  H
  H7       1.0000 0.74570  0.71180  0.88100  Biso   1.000  H
  H8       1.0000 0.25430  0.21180  0.61900  Biso   1.000  H
  C9       1.0000 0.45500  0.28710  0.11100  Biso   1.000  C
  C10      1.0000 0.54500  0.78710  0.38900  Biso   1.000  C
  C11      1.0000 0.54500  0.71290  0.88900  Biso   1.000  C
  C12      1.0000 0.45500  0.21290  0.61100  Biso   1.000  C
  H9       1.0000 0.41660  0.27510  0.15740  Biso   1.000  H
  H10      1.0000 0.58340  0.77510  0.34260  Biso   1.000  H
  H11      1.0000 0.58340  0.72490  0.84260  Biso   1.000  H
  H12      1.0000 0.41660  0.22490  0.65740  Biso   1.000  H
  C13      1.0000 0.56200  0.28300  0.14000  Biso   1.000  C
  C14      1.0000 0.43800  0.78300  0.36000  Biso   1.000  C
  C15      1.0000 0.43800  0.71700  0.86000  Biso   1.000  C
  C16      1.0000 0.56200  0.21700  0.64000  Biso   1.000  C
  H13      1.0000 0.59660  0.26590  0.20430  Biso   1.000  H
  H14      1.0000 0.40340  0.76590  0.29570  Biso   1.000  H
  H15      1.0000 0.40340  0.73410  0.79570  Biso   1.000  H
  H16      1.0000 0.59660  0.23410  0.70430  Biso   1.000  H
  C17      1.0000 0.61400  0.30490  0.07100  Biso   1.000  C
  C18      1.0000 0.38600  0.80490  0.42900  Biso   1.000  C
  C19      1.0000 0.38600  0.69510  0.92900  Biso   1.000  C
  C20      1.0000 0.61400  0.19510  0.57100  Biso   1.000  C
  C21      1.0000 0.56600  0.32800  0.97400  Biso   1.000  C
  C22      1.0000 0.43400  0.82800  0.52600  Biso   1.000  C
  C23      1.0000 0.43400  0.67200  0.02600  Biso   1.000  C
  C24      1.0000 0.56600  0.17200  0.47400  Biso   1.000  C
  H17      1.0000 0.60450  0.34090  0.92800  Biso   1.000  H
  H18      1.0000 0.39550  0.84090  0.57200  Biso   1.000  H
  H19      1.0000 0.39550  0.65910  0.07200  Biso   1.000  H
  H20      1.0000 0.60450  0.15910  0.42800  Biso   1.000  H
  C25      1.0000 0.46100  0.33170  0.94700  Biso   1.000  C
  C26      1.0000 0.53900  0.83170  0.55300  Biso   1.000  C
  C27      1.0000 0.53900  0.66830  0.05300  Biso   1.000  C
  C28      1.0000 0.46100  0.16830  0.44700  Biso   1.000  C
  H21      1.0000 0.42740  0.34960  0.88280  Biso   1.000  H
  H22      1.0000 0.57260  0.84960  0.61720  Biso   1.000  H
  H23      1.0000 0.57260  0.65040  0.11720  Biso   1.000  H
  H24      1.0000 0.42740  0.15040  0.38280  Biso   1.000  H
  C29      1.0000 0.78800  0.27610  0.18900  Biso   1.000  C
  C30      1.0000 0.21200  0.77610  0.31100  Biso   1.000  C
  C31      1.0000 0.21200  0.72390  0.81100  Biso   1.000  C
  C32      1.0000 0.78800  0.22390  0.68900  Biso   1.000  C
  H25      1.0000 0.76790  0.27160  0.25110  Biso   1.000  H
  H26      1.0000 0.23210  0.77160  0.24890  Biso   1.000  H
  H27      1.0000 0.23210  0.72840  0.74890  Biso   1.000  H
  H28      1.0000 0.76790  0.22840  0.75110  Biso   1.000  H
  C33      1.0000 0.79100  0.29760  0.02800  Biso   1.000  C
  C34      1.0000 0.20900  0.79760  0.47200  Biso   1.000  C
  C35      1.0000 0.20900  0.70240  0.97200  Biso   1.000  C
  C36      1.0000 0.79100  0.20240  0.52800  Biso   1.000  C
  H29      1.0000 0.77270  0.31030  0.95780  Biso   1.000  H
  H30      1.0000 0.22730  0.81030  0.54220  Biso   1.000  H
  H31      1.0000 0.22730  0.68970  0.04220  Biso   1.000  H
  H32      1.0000 0.77270  0.18970  0.45780  Biso   1.000  H
  C37      1.0000 0.40800  0.30910  0.01300  Biso   1.000  C
  C38      1.0000 0.59200  0.80910  0.48700  Biso   1.000  C
  C39      1.0000 0.59200  0.69090  0.98700  Biso   1.000  C
  C40      1.0000 0.40800  0.19090  0.51300  Biso   1.000  C
  N1       1.0000 0.13700  0.28980  0.88500  Biso   1.000  N
  N2       1.0000 0.86300  0.78980  0.61500  Biso   1.000  N
  N3       1.0000 0.86300  0.71020  0.11500  Biso   1.000  N
  N4       1.0000 0.13700  0.21020  0.38500  Biso   1.000  N
  N5       1.0000 0.13800  0.28590  0.98870  Biso   1.000  N
  N6       1.0000 0.86200  0.78590  0.51130  Biso   1.000  N
  N7       1.0000 0.86200  0.71410  0.01130  Biso   1.000  N
  N8       1.0000 0.13800  0.21410  0.48870  Biso   1.000  N
  N9       1.0000 0.29740  0.30290  0.98570  Biso   1.000  N
  N10      1.0000 0.70260  0.80290  0.51430  Biso   1.000  N
  N11      1.0000 0.70260  0.69710  0.01430  Biso   1.000  N
  N12      1.0000 0.29740  0.19710  0.48570  Biso   1.000  N
  N13      1.0000 0.87900  0.27890  0.07920  Biso   1.000  N
  N14      1.0000 0.12100  0.77890  0.42080  Biso   1.000  N
  N15      1.0000 0.12100  0.72110  0.92080  Biso   1.000  N
  N16      1.0000 0.87900  0.22110  0.57920  Biso   1.000  N
  N17      1.0000 0.87730  0.26520  0.17790  Biso   1.000  N
  N18      1.0000 0.12270  0.76520  0.32210  Biso   1.000  N
  N19      1.0000 0.12270  0.73480  0.82210  Biso   1.000  N
  N20      1.0000 0.87730  0.23480  0.67790  Biso   1.000  N
  N21      1.0000 0.72610  0.29550  0.09570  Biso   1.000  N
  N22      1.0000 0.27390  0.79550  0.40430  Biso   1.000  N
  N23      1.0000 0.27390  0.70450  0.90430  Biso   1.000  N
  N24      1.0000 0.72610  0.20450  0.59570  Biso   1.000  N
  O89      1.0000 0.93590  0.27720  0.88640  Biso   1.000  O
  O90      1.0000 0.06410  0.77720  0.61360  Biso   1.000  O
  O91      1.0000 0.06410  0.72280  0.11360  Biso   1.000  O
  O92      1.0000 0.93590  0.22280  0.38640  Biso   1.000  O
  O93      1.0000 0.07800  0.25990  0.66950  Biso   1.000  O
  O94      1.0000 0.92200  0.75990  0.83050  Biso   1.000  O
  O95      1.0000 0.92200  0.74010  0.33050  Biso   1.000  O
  O96      1.0000 0.07800  0.24010  0.16950  Biso   1.000  O
  O97      1.0000 0.04900  0.15300  0.82600  Biso   1.000  O
  O98      1.0000 0.95100  0.65300  0.67400  Biso   1.000  O
  O99      1.0000 0.95100  0.84700  0.17400  Biso   1.000  O
  O100     1.0000 0.04900  0.34700  0.32600  Biso   1.000  O
  O101     1.0000 0.97300  0.14500  0.99800  Biso   1.000  O
  O102     1.0000 0.02700  0.64500  0.50200  Biso   1.000  O
  O103     1.0000 0.02700  0.85500  0.00200  Biso   1.000  O
  O104     1.0000 0.97300  0.35500  0.49800  Biso   1.000  O
  O105     1.0000 0.19500  0.46200  0.09400  Biso   1.000  O
  O106     1.0000 0.80500  0.96200  0.40600  Biso   1.000  O
  O107     1.0000 0.80500  0.53800  0.90600  Biso   1.000  O
  O108     1.0000 0.19500  0.03800  0.59400  Biso   1.000  O
  O109     1.0000 0.29800  0.46400  0.93900  Biso   1.000  O
  O110     1.0000 0.70200  0.96400  0.56100  Biso   1.000  O
  O111     1.0000 0.70200  0.53600  0.06100  Biso   1.000  O
  O112     1.0000 0.29800  0.03600  0.43900  Biso   1.000  O
  O113     1.0000 0.98600  0.37900  0.73100  Biso   1.000  O
  O114     1.0000 0.01400  0.87900  0.76900  Biso   1.000  O
  O115     1.0000 0.01400  0.62100  0.26900  Biso   1.000  O
  O116     1.0000 0.98600  0.12100  0.23100  Biso   1.000  O
  O117     1.0000 0.03100  0.38900  0.09100  Biso   1.000  O
  O118     1.0000 0.96900  0.88900  0.40900  Biso   1.000  O
  O119     1.0000 0.96900  0.61100  0.90900  Biso   1.000  O
  O120     1.0000 0.03100  0.11100  0.59100  Biso   1.000  O
