data_image0
_cell_length_a       5.0944
_cell_length_b       8.4853
_cell_length_c       10.5077
_cell_angle_alpha    111.999
_cell_angle_beta     93.077
_cell_angle_gamma    101.291

_symmetry_space_group_name_H-M    "P 1"
_symmetry_int_tables_number       1

loop_
  _symmetry_equiv_pos_as_xyz
  'x, y, z'

loop_
  _atom_site_label
  _atom_site_occupancy
  _atom_site_fract_x
  _atom_site_fract_y
  _atom_site_fract_z
  _atom_site_thermal_displace_type
  _atom_site_B_iso_or_equiv
  _atom_site_type_symbol
  Cu1      1.0000 0.03190  0.03180  0.77370  Biso   1.000  Cu
  Cu2      1.0000 0.96810  0.96820  0.22630  Biso   1.000  Cu
  S1       1.0000 0.37810  0.79870  0.29600  Biso   1.000  S
  S2       1.0000 0.62190  0.20130  0.70400  Biso   1.000  S
  P1       1.0000 0.09620  0.23320  0.09230  Biso   1.000  P
  P2       1.0000 0.90380  0.76680  0.90770  Biso   1.000  P
  O1       1.0000 0.04760  0.23100  0.94840  Biso   1.000  O
  O2       1.0000 0.95240  0.76900  0.05160  Biso   1.000  O
  O3       1.0000 0.95220  0.81600  0.59300  Biso   1.000  O
  O4       1.0000 0.04780  0.18400  0.40700  Biso   1.000  O
  O5       1.0000 0.11020  0.83470  0.32150  Biso   1.000  O
  O6       1.0000 0.88980  0.16530  0.67850  Biso   1.000  O
  O7       1.0000 0.85950  0.11140  0.12300  Biso   1.000  O
  O8       1.0000 0.14050  0.88860  0.87700  Biso   1.000  O
  O9       1.0000 0.36530  0.19160  0.12010  Biso   1.000  O
  O10      1.0000 0.63470  0.80840  0.87990  Biso   1.000  O
  O11      1.0000 0.52850  0.79690  0.41480  Biso   1.000  O
  O12      1.0000 0.47150  0.20310  0.58520  Biso   1.000  O
  O13      1.0000 0.52240  0.90950  0.23500  Biso   1.000  O
  O14      1.0000 0.47760  0.09050  0.76500  Biso   1.000  O
  C1       1.0000 0.12090  0.45440  0.21920  Biso   1.000  C
  C2       1.0000 0.87910  0.54560  0.78080  Biso   1.000  C
  C3       1.0000 0.31590  0.57190  0.16700  Biso   1.000  C
  C4       1.0000 0.68410  0.42810  0.83300  Biso   1.000  C
  Cu3      1.0000 0.50000  0.00000  0.00000  Biso   1.000  Cu
  O15      1.0000 0.65760  0.35170  0.39780  Biso   1.000  O
  O16      1.0000 0.34240  0.64830  0.60220  Biso   1.000  O
