data_image0
_cell_length_a       8.0521
_cell_length_b       8.9499
_cell_length_c       10.1242
_cell_angle_alpha    90
_cell_angle_beta     96.5
_cell_angle_gamma    90

_symmetry_space_group_name_H-M    "P 1"
_symmetry_int_tables_number       1

loop_
  _symmetry_equiv_pos_as_xyz
  'x, y, z'

loop_
  _atom_site_label
  _atom_site_occupancy
  _atom_site_fract_x
  _atom_site_fract_y
  _atom_site_fract_z
  _atom_site_thermal_displace_type
  _atom_site_B_iso_or_equiv
  _atom_site_type_symbol
  Cu1      1.0000 0.00000  0.00000  0.00000  Biso   1.000  Cu
  Cu2      1.0000 0.50000  0.50000  0.50000  Biso   1.000  Cu
  N1       1.0000 0.11110  0.03450  0.18420  Biso   1.000  N
  N2       1.0000 0.38890  0.53450  0.31580  Biso   1.000  N
  N3       1.0000 0.88890  0.96550  0.81580  Biso   1.000  N
  N4       1.0000 0.61110  0.46550  0.68420  Biso   1.000  N
  N5       1.0000 0.43400  0.28570  0.47870  Biso   1.000  N
  N6       1.0000 0.06600  0.78570  0.02130  Biso   1.000  N
  N7       1.0000 0.56600  0.71430  0.52130  Biso   1.000  N
  N8       1.0000 0.93400  0.21430  0.97870  Biso   1.000  N
  C1       1.0000 0.17440  0.04370  0.29060  Biso   1.000  C
  C2       1.0000 0.32560  0.54370  0.20940  Biso   1.000  C
  C3       1.0000 0.82560  0.95630  0.70940  Biso   1.000  C
  C4       1.0000 0.67440  0.45630  0.79060  Biso   1.000  C
  C5       1.0000 0.35130  0.18310  0.45430  Biso   1.000  C
  C6       1.0000 0.14870  0.68310  0.04570  Biso   1.000  C
  C7       1.0000 0.64870  0.81690  0.54570  Biso   1.000  C
  C8       1.0000 0.85130  0.31690  0.95430  Biso   1.000  C
  C9       1.0000 0.25290  0.05710  0.42160  Biso   1.000  C
  C10      1.0000 0.24710  0.55710  0.07840  Biso   1.000  C
  C11      1.0000 0.74710  0.94290  0.57840  Biso   1.000  C
  C12      1.0000 0.75290  0.44290  0.92160  Biso   1.000  C
  C13      1.0000 0.22750  0.94420  0.51900  Biso   1.000  C
  C14      1.0000 0.27250  0.44420  0.98100  Biso   1.000  C
  C15      1.0000 0.77250  0.05580  0.48100  Biso   1.000  C
  C16      1.0000 0.72750  0.55580  0.01900  Biso   1.000  C
  C17      1.0000 0.30340  0.87050  0.74480  Biso   1.000  C
  C18      1.0000 0.19660  0.37050  0.75520  Biso   1.000  C
  C19      1.0000 0.69660  0.12950  0.25520  Biso   1.000  C
  C20      1.0000 0.80340  0.62950  0.24480  Biso   1.000  C
  C21      1.0000 0.37240  0.94630  0.87060  Biso   1.000  C
  C22      1.0000 0.12760  0.44630  0.62940  Biso   1.000  C
  C23      1.0000 0.62760  0.05370  0.12940  Biso   1.000  C
  C24      1.0000 0.87240  0.55370  0.37060  Biso   1.000  C
  O1       1.0000 0.14600  0.83040  0.49550  Biso   1.000  O
  O2       1.0000 0.35400  0.33040  0.00450  Biso   1.000  O
  O3       1.0000 0.85400  0.16960  0.50450  Biso   1.000  O
  O4       1.0000 0.64600  0.66960  0.99550  Biso   1.000  O
  O5       1.0000 0.30580  0.98030  0.63800  Biso   1.000  O
  O6       1.0000 0.19420  0.48030  0.86200  Biso   1.000  O
  O7       1.0000 0.69420  0.01970  0.36200  Biso   1.000  O
  O8       1.0000 0.80580  0.51970  0.13800  Biso   1.000  O
  O9       1.0000 0.25320  0.04980  0.91190  Biso   1.000  O
  O10      1.0000 0.24680  0.54980  0.58810  Biso   1.000  O
  O11      1.0000 0.74680  0.95020  0.08810  Biso   1.000  O
  O12      1.0000 0.75320  0.45020  0.41190  Biso   1.000  O
  H1       1.0000 0.47800  0.00170  0.85500  Biso   1.000  H
  H2       1.0000 0.02200  0.50170  0.64500  Biso   1.000  H
  H3       1.0000 0.52200  0.99830  0.14500  Biso   1.000  H
  H4       1.0000 0.97800  0.49830  0.35500  Biso   1.000  H
  H5       1.0000 0.18290  0.83740  0.74710  Biso   1.000  H
  H6       1.0000 0.31710  0.33740  0.75290  Biso   1.000  H
  H7       1.0000 0.81710  0.16260  0.25290  Biso   1.000  H
  H8       1.0000 0.68290  0.66260  0.24710  Biso   1.000  H
  H9       1.0000 0.37880  0.77440  0.73090  Biso   1.000  H
  H10      1.0000 0.12120  0.27440  0.76910  Biso   1.000  H
  H11      1.0000 0.62120  0.22560  0.26910  Biso   1.000  H
  H12      1.0000 0.87880  0.72560  0.23090  Biso   1.000  H
  H13      1.0000 0.40330  0.86180  0.93910  Biso   1.000  H
  H14      1.0000 0.09670  0.36180  0.56090  Biso   1.000  H
  H15      1.0000 0.59670  0.13820  0.06090  Biso   1.000  H
  H16      1.0000 0.90330  0.63820  0.43910  Biso   1.000  H
  H17      1.0000 0.29870  0.13690  0.94380  Biso   1.000  H
  H18      1.0000 0.20130  0.63690  0.55620  Biso   1.000  H
  H19      1.0000 0.70130  0.86310  0.05620  Biso   1.000  H
  H20      1.0000 0.79870  0.36310  0.44380  Biso   1.000  H
