data_image0
_cell_length_a       18.658
_cell_length_b       18.658
_cell_length_c       8.653
_cell_angle_alpha    90
_cell_angle_beta     90
_cell_angle_gamma    90

_symmetry_space_group_name_H-M    "P 1"
_symmetry_int_tables_number       1

loop_
  _symmetry_equiv_pos_as_xyz
  'x, y, z'

loop_
  _atom_site_label
  _atom_site_occupancy
  _atom_site_fract_x
  _atom_site_fract_y
  _atom_site_fract_z
  _atom_site_thermal_displace_type
  _atom_site_B_iso_or_equiv
  _atom_site_type_symbol
  Cu1      1.0000 0.29553  0.29553  0.00000  Biso   1.000  Cu
  Cu2      1.0000 0.20447  0.79553  0.00000  Biso   1.000  Cu
  Cu3      1.0000 0.70447  0.70447  0.00000  Biso   1.000  Cu
  Cu4      1.0000 0.79553  0.20447  0.00000  Biso   1.000  Cu
  N1       1.0000 0.19630  0.28770  0.08580  Biso   1.000  N
  N2       1.0000 0.21230  0.69630  0.08580  Biso   1.000  N
  N3       1.0000 0.80370  0.71230  0.08580  Biso   1.000  N
  N4       1.0000 0.78770  0.30370  0.08580  Biso   1.000  N
  N5       1.0000 0.69630  0.21230  0.91420  Biso   1.000  N
  N6       1.0000 0.28770  0.19630  0.91420  Biso   1.000  N
  N7       1.0000 0.30370  0.78770  0.91420  Biso   1.000  N
  N8       1.0000 0.71230  0.80370  0.91420  Biso   1.000  N
  N9       1.0000 0.18610  0.29740  0.24130  Biso   1.000  N
  N10      1.0000 0.20260  0.68610  0.24130  Biso   1.000  N
  N11      1.0000 0.81390  0.70260  0.24130  Biso   1.000  N
  N12      1.0000 0.79740  0.31390  0.24130  Biso   1.000  N
  N13      1.0000 0.68610  0.20260  0.75870  Biso   1.000  N
  N14      1.0000 0.29740  0.18610  0.75870  Biso   1.000  N
  N15      1.0000 0.31390  0.79740  0.75870  Biso   1.000  N
  N16      1.0000 0.70260  0.81390  0.75870  Biso   1.000  N
  H1       1.0000 0.21840  0.31550  0.30430  Biso   1.000  H
  H2       1.0000 0.18450  0.71840  0.30430  Biso   1.000  H
  H3       1.0000 0.78160  0.68450  0.30430  Biso   1.000  H
  H4       1.0000 0.81550  0.28160  0.30430  Biso   1.000  H
  H5       1.0000 0.71840  0.18450  0.69570  Biso   1.000  H
  H6       1.0000 0.31550  0.21840  0.69570  Biso   1.000  H
  H7       1.0000 0.28160  0.81550  0.69570  Biso   1.000  H
  H8       1.0000 0.68450  0.78160  0.69570  Biso   1.000  H
  N17      1.0000 0.89620  0.20020  0.07210  Biso   1.000  N
  N18      1.0000 0.29980  0.39620  0.07210  Biso   1.000  N
  N19      1.0000 0.10380  0.79980  0.07210  Biso   1.000  N
  N20      1.0000 0.70020  0.60380  0.07210  Biso   1.000  N
  N21      1.0000 0.39620  0.29980  0.92790  Biso   1.000  N
  N22      1.0000 0.20020  0.89620  0.92790  Biso   1.000  N
  N23      1.0000 0.60380  0.70020  0.92790  Biso   1.000  N
  N24      1.0000 0.79980  0.10380  0.92790  Biso   1.000  N
  N25      1.0000 0.92420  0.14420  0.15280  Biso   1.000  N
  N26      1.0000 0.35580  0.42420  0.15280  Biso   1.000  N
  N27      1.0000 0.07580  0.85580  0.15280  Biso   1.000  N
  N28      1.0000 0.64420  0.57580  0.15280  Biso   1.000  N
  N29      1.0000 0.42420  0.35580  0.84720  Biso   1.000  N
  N30      1.0000 0.14420  0.92420  0.84720  Biso   1.000  N
  N31      1.0000 0.57580  0.64420  0.84720  Biso   1.000  N
  N32      1.0000 0.85580  0.07580  0.84720  Biso   1.000  N
  H9       1.0000 0.90100  0.10530  0.17130  Biso   1.000  H
  H10      1.0000 0.39470  0.40100  0.17130  Biso   1.000  H
  H11      1.0000 0.09900  0.89470  0.17130  Biso   1.000  H
  H12      1.0000 0.60530  0.59900  0.17130  Biso   1.000  H
  H13      1.0000 0.40100  0.39470  0.82870  Biso   1.000  H
  H14      1.0000 0.10530  0.90100  0.82870  Biso   1.000  H
  H15      1.0000 0.59900  0.60530  0.82870  Biso   1.000  H
  H16      1.0000 0.89470  0.09900  0.82870  Biso   1.000  H
  C1       1.0000 0.11940  0.27520  0.28600  Biso   1.000  C
  C2       1.0000 0.22480  0.61940  0.28600  Biso   1.000  C
  C3       1.0000 0.88060  0.72480  0.28600  Biso   1.000  C
  C4       1.0000 0.77520  0.38060  0.28600  Biso   1.000  C
  C5       1.0000 0.61940  0.22480  0.71400  Biso   1.000  C
  C6       1.0000 0.27520  0.11940  0.71400  Biso   1.000  C
  C7       1.0000 0.38060  0.77520  0.71400  Biso   1.000  C
  C8       1.0000 0.72480  0.88060  0.71400  Biso   1.000  C
  C9       1.0000 0.09810  0.27770  0.45410  Biso   1.000  C
  C10      1.0000 0.22230  0.59810  0.45410  Biso   1.000  C
  C11      1.0000 0.90190  0.72230  0.45410  Biso   1.000  C
  C12      1.0000 0.77770  0.40190  0.45410  Biso   1.000  C
  C13      1.0000 0.59810  0.22230  0.54590  Biso   1.000  C
  C14      1.0000 0.27770  0.09810  0.54590  Biso   1.000  C
  C15      1.0000 0.40190  0.77770  0.54590  Biso   1.000  C
  C16      1.0000 0.72230  0.90190  0.54590  Biso   1.000  C
  H17      1.0000 0.04660  0.26830  0.46370  Biso   1.000  H
  H18      1.0000 0.23170  0.54660  0.46370  Biso   1.000  H
  H19      1.0000 0.95340  0.73170  0.46370  Biso   1.000  H
  H20      1.0000 0.76830  0.45340  0.46370  Biso   1.000  H
  H21      1.0000 0.54660  0.23170  0.53630  Biso   1.000  H
  H22      1.0000 0.26830  0.04660  0.53630  Biso   1.000  H
  H23      1.0000 0.45340  0.76830  0.53630  Biso   1.000  H
  H24      1.0000 0.73170  0.95340  0.53630  Biso   1.000  H
  H25      1.0000 0.10900  0.32520  0.49640  Biso   1.000  H
  H26      1.0000 0.17480  0.60900  0.49640  Biso   1.000  H
  H27      1.0000 0.89100  0.67480  0.49640  Biso   1.000  H
  H28      1.0000 0.82520  0.39100  0.49640  Biso   1.000  H
  H29      1.0000 0.60900  0.17480  0.50360  Biso   1.000  H
  H30      1.0000 0.32520  0.10900  0.50360  Biso   1.000  H
  H31      1.0000 0.39100  0.82520  0.50360  Biso   1.000  H
  H32      1.0000 0.67480  0.89100  0.50360  Biso   1.000  H
  H33      1.0000 0.12490  0.24120  0.51150  Biso   1.000  H
  H34      1.0000 0.25880  0.62490  0.51150  Biso   1.000  H
  H35      1.0000 0.87510  0.75880  0.51150  Biso   1.000  H
  H36      1.0000 0.74120  0.37510  0.51150  Biso   1.000  H
  H37      1.0000 0.62490  0.25880  0.48850  Biso   1.000  H
  H38      1.0000 0.24120  0.12490  0.48850  Biso   1.000  H
  H39      1.0000 0.37510  0.74120  0.48850  Biso   1.000  H
  H40      1.0000 0.75880  0.87510  0.48850  Biso   1.000  H
  C17      1.0000 0.08550  0.25160  0.15560  Biso   1.000  C
  C18      1.0000 0.24840  0.58550  0.15560  Biso   1.000  C
  C19      1.0000 0.91450  0.74840  0.15560  Biso   1.000  C
  C20      1.0000 0.75160  0.41450  0.15560  Biso   1.000  C
  C21      1.0000 0.58550  0.24840  0.84440  Biso   1.000  C
  C22      1.0000 0.25160  0.08550  0.84440  Biso   1.000  C
  C23      1.0000 0.41450  0.75160  0.84440  Biso   1.000  C
  C24      1.0000 0.74840  0.91450  0.84440  Biso   1.000  C
  C25      1.0000 0.13500  0.25980  0.03170  Biso   1.000  C
  C26      1.0000 0.24020  0.63500  0.03170  Biso   1.000  C
  C27      1.0000 0.86500  0.74020  0.03170  Biso   1.000  C
  C28      1.0000 0.75980  0.36500  0.03170  Biso   1.000  C
  C29      1.0000 0.63500  0.24020  0.96830  Biso   1.000  C
  C30      1.0000 0.25980  0.13500  0.96830  Biso   1.000  C
  C31      1.0000 0.36500  0.75980  0.96830  Biso   1.000  C
  C32      1.0000 0.74020  0.86500  0.96830  Biso   1.000  C
  C33      1.0000 0.12160  0.24260  0.86620  Biso   1.000  C
  C34      1.0000 0.25740  0.62160  0.86620  Biso   1.000  C
  C35      1.0000 0.87840  0.75740  0.86620  Biso   1.000  C
  C36      1.0000 0.74260  0.37840  0.86620  Biso   1.000  C
  C37      1.0000 0.62160  0.25740  0.13380  Biso   1.000  C
  C38      1.0000 0.24260  0.12160  0.13380  Biso   1.000  C
  C39      1.0000 0.37840  0.74260  0.13380  Biso   1.000  C
  C40      1.0000 0.75740  0.87840  0.13380  Biso   1.000  C
  H41      1.0000 0.16360  0.25630  0.80470  Biso   1.000  H
  H42      1.0000 0.24370  0.66360  0.80470  Biso   1.000  H
  H43      1.0000 0.83640  0.74370  0.80470  Biso   1.000  H
  H44      1.0000 0.75630  0.33640  0.80470  Biso   1.000  H
  H45      1.0000 0.66360  0.24370  0.19530  Biso   1.000  H
  H46      1.0000 0.25630  0.16360  0.19530  Biso   1.000  H
  H47      1.0000 0.33640  0.75630  0.19530  Biso   1.000  H
  H48      1.0000 0.74370  0.83640  0.19530  Biso   1.000  H
  H49      1.0000 0.07960  0.26920  0.82980  Biso   1.000  H
  H50      1.0000 0.23080  0.57960  0.82980  Biso   1.000  H
  H51      1.0000 0.92040  0.73080  0.82980  Biso   1.000  H
  H52      1.0000 0.76920  0.42040  0.82980  Biso   1.000  H
  H53      1.0000 0.57960  0.23080  0.17020  Biso   1.000  H
  H54      1.0000 0.26920  0.07960  0.17020  Biso   1.000  H
  H55      1.0000 0.42040  0.76920  0.17020  Biso   1.000  H
  H56      1.0000 0.73080  0.92040  0.17020  Biso   1.000  H
  H57      1.0000 0.11300  0.19110  0.85510  Biso   1.000  H
  H58      1.0000 0.30890  0.61300  0.85510  Biso   1.000  H
  H59      1.0000 0.88700  0.80890  0.85510  Biso   1.000  H
  H60      1.0000 0.69110  0.38700  0.85510  Biso   1.000  H
  H61      1.0000 0.61300  0.30890  0.14490  Biso   1.000  H
  H62      1.0000 0.19110  0.11300  0.14490  Biso   1.000  H
  H63      1.0000 0.38700  0.69110  0.14490  Biso   1.000  H
  H64      1.0000 0.80890  0.88700  0.14490  Biso   1.000  H
  C41      1.0000 0.01350  0.21890  0.14380  Biso   1.000  C
  C42      1.0000 0.28110  0.51350  0.14380  Biso   1.000  C
  C43      1.0000 0.98650  0.78110  0.14380  Biso   1.000  C
  C44      1.0000 0.71890  0.48650  0.14380  Biso   1.000  C
  C45      1.0000 0.51350  0.28110  0.85620  Biso   1.000  C
  C46      1.0000 0.21890  0.01350  0.85620  Biso   1.000  C
  C47      1.0000 0.48650  0.71890  0.85620  Biso   1.000  C
  C48      1.0000 0.78110  0.98650  0.85620  Biso   1.000  C
  C49      1.0000 0.99250  0.15290  0.19910  Biso   1.000  C
  C50      1.0000 0.34710  0.49250  0.19910  Biso   1.000  C
  C51      1.0000 0.00750  0.84710  0.19910  Biso   1.000  C
  C52      1.0000 0.65290  0.50750  0.19910  Biso   1.000  C
  C53      1.0000 0.49250  0.34710  0.80090  Biso   1.000  C
  C54      1.0000 0.15290  0.99250  0.80090  Biso   1.000  C
  C55      1.0000 0.50750  0.65290  0.80090  Biso   1.000  C
  C56      1.0000 0.84710  0.00750  0.80090  Biso   1.000  C
  C57      1.0000 0.02990  0.09900  0.29740  Biso   1.000  C
  C58      1.0000 0.40100  0.52990  0.29740  Biso   1.000  C
  C59      1.0000 0.97010  0.90100  0.29740  Biso   1.000  C
  C60      1.0000 0.59900  0.47010  0.29740  Biso   1.000  C
  C61      1.0000 0.52990  0.40100  0.70260  Biso   1.000  C
  C62      1.0000 0.09900  0.02990  0.70260  Biso   1.000  C
  C63      1.0000 0.47010  0.59900  0.70260  Biso   1.000  C
  C64      1.0000 0.90100  0.97010  0.70260  Biso   1.000  C
  H65      1.0000 0.01080  0.05120  0.27510  Biso   1.000  H
  H66      1.0000 0.44880  0.51080  0.27510  Biso   1.000  H
  H67      1.0000 0.98920  0.94880  0.27510  Biso   1.000  H
  H68      1.0000 0.55120  0.48920  0.27510  Biso   1.000  H
  H69      1.0000 0.51080  0.44880  0.72490  Biso   1.000  H
  H70      1.0000 0.05120  0.01080  0.72490  Biso   1.000  H
  H71      1.0000 0.48920  0.55120  0.72490  Biso   1.000  H
  H72      1.0000 0.94880  0.98920  0.72490  Biso   1.000  H
  H73      1.0000 0.02200  0.11040  0.40660  Biso   1.000  H
  H74      1.0000 0.38960  0.52200  0.40660  Biso   1.000  H
  H75      1.0000 0.97800  0.88960  0.40660  Biso   1.000  H
  H76      1.0000 0.61040  0.47800  0.40660  Biso   1.000  H
  H77      1.0000 0.52200  0.38960  0.59340  Biso   1.000  H
  H78      1.0000 0.11040  0.02200  0.59340  Biso   1.000  H
  H79      1.0000 0.47800  0.61040  0.59340  Biso   1.000  H
  H80      1.0000 0.88960  0.97800  0.59340  Biso   1.000  H
  H81      1.0000 0.08130  0.10000  0.27500  Biso   1.000  H
  H82      1.0000 0.40000  0.58130  0.27500  Biso   1.000  H
  H83      1.0000 0.91870  0.90000  0.27500  Biso   1.000  H
  H84      1.0000 0.60000  0.41870  0.27500  Biso   1.000  H
  H85      1.0000 0.58130  0.40000  0.72500  Biso   1.000  H
  H86      1.0000 0.10000  0.08130  0.72500  Biso   1.000  H
  H87      1.0000 0.41870  0.60000  0.72500  Biso   1.000  H
  H88      1.0000 0.90000  0.91870  0.72500  Biso   1.000  H
  C65      1.0000 0.95260  0.24700  0.06470  Biso   1.000  C
  C66      1.0000 0.25300  0.45260  0.06470  Biso   1.000  C
  C67      1.0000 0.04740  0.75300  0.06470  Biso   1.000  C
  C68      1.0000 0.74700  0.54740  0.06470  Biso   1.000  C
  C69      1.0000 0.45260  0.25300  0.93530  Biso   1.000  C
  C70      1.0000 0.24700  0.95260  0.93530  Biso   1.000  C
  C71      1.0000 0.54740  0.74700  0.93530  Biso   1.000  C
  C72      1.0000 0.75300  0.04740  0.93530  Biso   1.000  C
  C73      1.0000 0.94960  0.31940  0.99140  Biso   1.000  C
  C74      1.0000 0.18060  0.44960  0.99140  Biso   1.000  C
  C75      1.0000 0.05040  0.68060  0.99140  Biso   1.000  C
  C76      1.0000 0.81940  0.55040  0.99140  Biso   1.000  C
  C77      1.0000 0.44960  0.18060  0.00860  Biso   1.000  C
  C78      1.0000 0.31940  0.94960  0.00860  Biso   1.000  C
  C79      1.0000 0.55040  0.81940  0.00860  Biso   1.000  C
  C80      1.0000 0.68060  0.05040  0.00860  Biso   1.000  C
  H89      1.0000 0.90630  0.32310  0.92780  Biso   1.000  H
  H90      1.0000 0.17690  0.40630  0.92780  Biso   1.000  H
  H91      1.0000 0.09370  0.67690  0.92780  Biso   1.000  H
  H92      1.0000 0.82310  0.59370  0.92780  Biso   1.000  H
  H93      1.0000 0.40630  0.17690  0.07220  Biso   1.000  H
  H94      1.0000 0.32310  0.90630  0.07220  Biso   1.000  H
  H95      1.0000 0.59370  0.82310  0.07220  Biso   1.000  H
  H96      1.0000 0.67690  0.09370  0.07220  Biso   1.000  H
  H97      1.0000 0.99200  0.32640  0.92620  Biso   1.000  H
  H98      1.0000 0.17360  0.49200  0.92620  Biso   1.000  H
  H99      1.0000 0.00800  0.67360  0.92620  Biso   1.000  H
  H100     1.0000 0.82640  0.50800  0.92620  Biso   1.000  H
  H101     1.0000 0.49200  0.17360  0.07380  Biso   1.000  H
  H102     1.0000 0.32640  0.99200  0.07380  Biso   1.000  H
  H103     1.0000 0.50800  0.82640  0.07380  Biso   1.000  H
  H104     1.0000 0.67360  0.00800  0.07380  Biso   1.000  H
  H105     1.0000 0.94850  0.35630  0.07200  Biso   1.000  H
  H106     1.0000 0.14370  0.44850  0.07200  Biso   1.000  H
  H107     1.0000 0.05150  0.64370  0.07200  Biso   1.000  H
  H108     1.0000 0.85630  0.55150  0.07200  Biso   1.000  H
  H109     1.0000 0.44850  0.14370  0.92800  Biso   1.000  H
  H110     1.0000 0.35630  0.94850  0.92800  Biso   1.000  H
  H111     1.0000 0.55150  0.85630  0.92800  Biso   1.000  H
  H112     1.0000 0.64370  0.05150  0.92800  Biso   1.000  H
  O1       1.0000 0.34160  0.25590  0.25100  Biso   1.000  O
  O2       1.0000 0.24410  0.84160  0.25100  Biso   1.000  O
  O3       1.0000 0.65840  0.74410  0.25100  Biso   1.000  O
  O4       1.0000 0.75590  0.15840  0.25100  Biso   1.000  O
  O5       1.0000 0.84160  0.24410  0.74900  Biso   1.000  O
  O6       1.0000 0.25590  0.34160  0.74900  Biso   1.000  O
  O7       1.0000 0.15840  0.75590  0.74900  Biso   1.000  O
  O8       1.0000 0.74410  0.65840  0.74900  Biso   1.000  O
  O9       1.0000 0.43730  0.19660  0.41210  Biso   1.000  O
  O10      1.0000 0.30340  0.93730  0.41210  Biso   1.000  O
  O11      1.0000 0.56270  0.80340  0.41210  Biso   1.000  O
  O12      1.0000 0.69660  0.06270  0.41210  Biso   1.000  O
  O13      1.0000 0.93730  0.30340  0.58790  Biso   1.000  O
  O14      1.0000 0.19660  0.43730  0.58790  Biso   1.000  O
  O15      1.0000 0.06270  0.69660  0.58790  Biso   1.000  O
  O16      1.0000 0.80340  0.56270  0.58790  Biso   1.000  O
  O17      1.0000 0.35940  0.29750  0.55710  Biso   1.000  O
  O18      1.0000 0.20250  0.85940  0.55710  Biso   1.000  O
  O19      1.0000 0.64060  0.70250  0.55710  Biso   1.000  O
  O20      1.0000 0.79750  0.14060  0.55710  Biso   1.000  O
  O21      1.0000 0.85940  0.20250  0.44290  Biso   1.000  O
  O22      1.0000 0.29750  0.35940  0.44290  Biso   1.000  O
  O23      1.0000 0.14060  0.79750  0.44290  Biso   1.000  O
  O24      1.0000 0.70250  0.64060  0.44290  Biso   1.000  O
  Cr1      1.0000 0.39898  0.27097  0.38060  Biso   1.000  Cr
  Cr2      1.0000 0.22903  0.89898  0.38060  Biso   1.000  Cr
  Cr3      1.0000 0.60102  0.72903  0.38060  Biso   1.000  Cr
  Cr4      1.0000 0.77097  0.10102  0.38060  Biso   1.000  Cr
  Cr5      1.0000 0.89898  0.22903  0.61940  Biso   1.000  Cr
  Cr6      1.0000 0.27097  0.39898  0.61940  Biso   1.000  Cr
  Cr7      1.0000 0.10102  0.77097  0.61940  Biso   1.000  Cr
  Cr8      1.0000 0.72903  0.60102  0.61940  Biso   1.000  Cr
  O25      1.0000 0.38870  0.25090  0.55190  Biso   1.000  O
  O26      1.0000 0.24910  0.88870  0.55190  Biso   1.000  O
  O27      1.0000 0.61130  0.74910  0.55190  Biso   1.000  O
  O28      1.0000 0.75090  0.11130  0.55190  Biso   1.000  O
  O29      1.0000 0.88870  0.24910  0.44810  Biso   1.000  O
  O30      1.0000 0.25090  0.38870  0.44810  Biso   1.000  O
  O31      1.0000 0.11130  0.75090  0.44810  Biso   1.000  O
  O32      1.0000 0.74910  0.61130  0.44810  Biso   1.000  O
  O33      1.0000 0.45000  0.33820  0.34010  Biso   1.000  O
  O34      1.0000 0.16180  0.95000  0.34010  Biso   1.000  O
  O35      1.0000 0.55000  0.66180  0.34010  Biso   1.000  O
  O36      1.0000 0.83820  0.05000  0.34010  Biso   1.000  O
  O37      1.0000 0.95000  0.16180  0.65990  Biso   1.000  O
  O38      1.0000 0.33820  0.45000  0.65990  Biso   1.000  O
  O39      1.0000 0.05000  0.83820  0.65990  Biso   1.000  O
  O40      1.0000 0.66180  0.55000  0.65990  Biso   1.000  O
  Cr9      1.0000 0.37317  0.29700  0.40350  Biso   1.000  Cr
  Cr10     1.0000 0.20300  0.87317  0.40350  Biso   1.000  Cr
  Cr11     1.0000 0.62683  0.70300  0.40350  Biso   1.000  Cr
  Cr12     1.0000 0.79700  0.12683  0.40350  Biso   1.000  Cr
  Cr13     1.0000 0.87317  0.20300  0.59650  Biso   1.000  Cr
  Cr14     1.0000 0.29700  0.37317  0.59650  Biso   1.000  Cr
  Cr15     1.0000 0.12683  0.79700  0.59650  Biso   1.000  Cr
  Cr16     1.0000 0.70300  0.62683  0.59650  Biso   1.000  Cr
