data_image0
_cell_length_a       14.71
_cell_length_b       14.32
_cell_length_c       15.8
_cell_angle_alpha    90
_cell_angle_beta     96.47
_cell_angle_gamma    90

_symmetry_space_group_name_H-M    "P 1"
_symmetry_int_tables_number       1

loop_
  _symmetry_equiv_pos_as_xyz
  'x, y, z'

loop_
  _atom_site_label
  _atom_site_occupancy
  _atom_site_fract_x
  _atom_site_fract_y
  _atom_site_fract_z
  _atom_site_thermal_displace_type
  _atom_site_B_iso_or_equiv
  _atom_site_type_symbol
  Cu1      1.0000 0.25062  0.38463  0.27017  Biso   1.000  Cu
  Cu2      1.0000 0.74938  0.88463  0.22983  Biso   1.000  Cu
  Cu3      1.0000 0.74938  0.61537  0.72983  Biso   1.000  Cu
  Cu4      1.0000 0.25062  0.11537  0.77017  Biso   1.000  Cu
  Cr1      1.0000 0.16761  0.29652  0.04336  Biso   1.000  Cr
  Cr2      1.0000 0.83239  0.79652  0.45664  Biso   1.000  Cr
  Cr3      1.0000 0.83239  0.70348  0.95664  Biso   1.000  Cr
  Cr4      1.0000 0.16761  0.20348  0.54336  Biso   1.000  Cr
  O1       1.0000 0.21735  0.33803  0.13194  Biso   1.000  O
  O2       1.0000 0.78265  0.83803  0.36806  Biso   1.000  O
  O3       1.0000 0.78265  0.66197  0.86806  Biso   1.000  O
  O4       1.0000 0.21735  0.16197  0.63194  Biso   1.000  O
  N1       1.0000 0.16396  0.49370  0.24321  Biso   1.000  N
  N2       1.0000 0.83604  0.99370  0.25679  Biso   1.000  N
  N3       1.0000 0.83604  0.50630  0.75679  Biso   1.000  N
  N4       1.0000 0.16396  0.00630  0.74321  Biso   1.000  N
  C1       1.0000 0.08222  0.48190  0.19570  Biso   1.000  C
  C2       1.0000 0.91778  0.98190  0.30430  Biso   1.000  C
  C3       1.0000 0.91778  0.51810  0.80430  Biso   1.000  C
  C4       1.0000 0.08222  0.01810  0.69570  Biso   1.000  C
  H1       1.0000 0.06620  0.42160  0.17390  Biso   1.000  H
  H2       1.0000 0.93380  0.92160  0.32610  Biso   1.000  H
  H3       1.0000 0.93380  0.57840  0.82610  Biso   1.000  H
  H4       1.0000 0.06620  0.07840  0.67390  Biso   1.000  H
  O5       1.0000 0.16350  0.37610  0.97016  Biso   1.000  O
  O6       1.0000 0.83650  0.87610  0.52984  Biso   1.000  O
  O7       1.0000 0.83650  0.62390  0.02984  Biso   1.000  O
  O8       1.0000 0.16350  0.12390  0.47016  Biso   1.000  O
  N5       1.0000 0.85376  0.81149  0.18958  Biso   1.000  N
  N6       1.0000 0.14624  0.31149  0.31042  Biso   1.000  N
  N7       1.0000 0.14624  0.18851  0.81042  Biso   1.000  N
  N8       1.0000 0.85376  0.68851  0.68958  Biso   1.000  N
  C5       1.0000 0.02161  0.55420  0.17810  Biso   1.000  C
  C6       1.0000 0.97839  0.05420  0.32190  Biso   1.000  C
  C7       1.0000 0.97839  0.44580  0.82190  Biso   1.000  C
  C8       1.0000 0.02161  0.94580  0.67810  Biso   1.000  C
  H5       1.0000 0.96450  0.54320  0.14510  Biso   1.000  H
  H6       1.0000 0.03550  0.04320  0.35490  Biso   1.000  H
  H7       1.0000 0.03550  0.45680  0.85490  Biso   1.000  H
  H8       1.0000 0.96450  0.95680  0.64510  Biso   1.000  H
  O9       1.0000 0.06791  0.25950  0.05650  Biso   1.000  O
  O10      1.0000 0.93209  0.75950  0.44350  Biso   1.000  O
  O11      1.0000 0.93209  0.74050  0.94350  Biso   1.000  O
  O12      1.0000 0.06791  0.24050  0.55650  Biso   1.000  O
  N9       1.0000 0.92077  0.85736  0.15286  Biso   1.000  N
  N10      1.0000 0.07923  0.35736  0.34714  Biso   1.000  N
  N11      1.0000 0.07923  0.14264  0.84714  Biso   1.000  N
  N12      1.0000 0.92077  0.64264  0.65286  Biso   1.000  N
  H9       1.0000 0.91430  0.91390  0.13120  Biso   1.000  H
  H10      1.0000 0.08570  0.41390  0.36880  Biso   1.000  H
  H11      1.0000 0.08570  0.08610  0.86880  Biso   1.000  H
  H12      1.0000 0.91430  0.58610  0.63120  Biso   1.000  H
  C9       1.0000 0.04392  0.64430  0.20880  Biso   1.000  C
  C10      1.0000 0.95608  0.14430  0.29120  Biso   1.000  C
  C11      1.0000 0.95608  0.35570  0.79120  Biso   1.000  C
  C12      1.0000 0.04392  0.85570  0.70880  Biso   1.000  C
  O13      1.0000 0.23798  0.20405  0.00938  Biso   1.000  O
  O14      1.0000 0.76202  0.70405  0.49062  Biso   1.000  O
  O15      1.0000 0.76202  0.79595  0.99062  Biso   1.000  O
  O16      1.0000 0.23798  0.29595  0.50938  Biso   1.000  O
  N13      1.0000 0.35295  0.46728  0.23939  Biso   1.000  N
  N14      1.0000 0.64705  0.96728  0.26061  Biso   1.000  N
  N15      1.0000 0.64705  0.53272  0.76061  Biso   1.000  N
  N16      1.0000 0.35295  0.03272  0.73939  Biso   1.000  N
  C13      1.0000 0.12870  0.65610  0.25620  Biso   1.000  C
  C14      1.0000 0.87130  0.15610  0.24380  Biso   1.000  C
  C15      1.0000 0.87130  0.34390  0.74380  Biso   1.000  C
  C16      1.0000 0.12870  0.84390  0.75620  Biso   1.000  C
  H13      1.0000 0.14690  0.71620  0.27720  Biso   1.000  H
  H14      1.0000 0.85310  0.21620  0.22280  Biso   1.000  H
  H15      1.0000 0.85310  0.28380  0.72280  Biso   1.000  H
  H16      1.0000 0.14690  0.78380  0.77720  Biso   1.000  H
  N17      1.0000 0.66072  0.73844  0.11864  Biso   1.000  N
  N18      1.0000 0.33928  0.23844  0.38136  Biso   1.000  N
  N19      1.0000 0.33928  0.26156  0.88136  Biso   1.000  N
  N20      1.0000 0.66072  0.76156  0.61864  Biso   1.000  N
  H17      1.0000 0.69590  0.75600  0.08000  Biso   1.000  H
  H18      1.0000 0.30410  0.25600  0.42000  Biso   1.000  H
  H19      1.0000 0.30410  0.24400  0.92000  Biso   1.000  H
  H20      1.0000 0.69590  0.74400  0.58000  Biso   1.000  H
  C17      1.0000 0.18670  0.58020  0.27300  Biso   1.000  C
  C18      1.0000 0.81330  0.08020  0.22700  Biso   1.000  C
  C19      1.0000 0.81330  0.41980  0.72700  Biso   1.000  C
  C20      1.0000 0.18670  0.91980  0.77300  Biso   1.000  C
  H21      1.0000 0.24390  0.58930  0.30620  Biso   1.000  H
  H22      1.0000 0.75610  0.08930  0.19380  Biso   1.000  H
  H23      1.0000 0.75610  0.41070  0.69380  Biso   1.000  H
  H24      1.0000 0.24390  0.91070  0.80620  Biso   1.000  H
  N21      1.0000 0.66002  0.78088  0.19578  Biso   1.000  N
  N22      1.0000 0.33998  0.28088  0.30422  Biso   1.000  N
  N23      1.0000 0.33998  0.21912  0.80422  Biso   1.000  N
  N24      1.0000 0.66002  0.71912  0.69578  Biso   1.000  N
  C21      1.0000 0.98042  0.72280  0.19190  Biso   1.000  C
  C22      1.0000 0.01958  0.22280  0.30810  Biso   1.000  C
  C23      1.0000 0.01958  0.27720  0.80810  Biso   1.000  C
  C24      1.0000 0.98042  0.77720  0.69190  Biso   1.000  C
  C25      1.0000 0.88961  0.72770  0.21282  Biso   1.000  C
  C26      1.0000 0.11039  0.22770  0.28718  Biso   1.000  C
  C27      1.0000 0.11039  0.27230  0.78718  Biso   1.000  C
  C28      1.0000 0.88961  0.77230  0.71282  Biso   1.000  C
  C29      1.0000 0.99720  0.80670  0.15360  Biso   1.000  C
  C30      1.0000 0.00280  0.30670  0.34640  Biso   1.000  C
  C31      1.0000 0.00280  0.19330  0.84640  Biso   1.000  C
  C32      1.0000 0.99720  0.69330  0.65360  Biso   1.000  C
  C33      1.0000 0.83750  0.65360  0.25300  Biso   1.000  C
  C34      1.0000 0.16250  0.15360  0.24700  Biso   1.000  C
  C35      1.0000 0.16250  0.34640  0.74700  Biso   1.000  C
  C36      1.0000 0.83750  0.84640  0.75300  Biso   1.000  C
  H25      1.0000 0.79060  0.68260  0.28370  Biso   1.000  H
  H26      1.0000 0.20940  0.18260  0.21630  Biso   1.000  H
  H27      1.0000 0.20940  0.31740  0.71630  Biso   1.000  H
  H28      1.0000 0.79060  0.81740  0.78370  Biso   1.000  H
  H29      1.0000 0.87940  0.61730  0.29290  Biso   1.000  H
  H30      1.0000 0.12060  0.11730  0.20710  Biso   1.000  H
  H31      1.0000 0.12060  0.38270  0.70710  Biso   1.000  H
  H32      1.0000 0.87940  0.88270  0.79290  Biso   1.000  H
  H33      1.0000 0.80810  0.61210  0.20870  Biso   1.000  H
  H34      1.0000 0.19190  0.11210  0.29130  Biso   1.000  H
  H35      1.0000 0.19190  0.38790  0.79130  Biso   1.000  H
  H36      1.0000 0.80810  0.88790  0.70870  Biso   1.000  H
  C37      1.0000 0.07860  0.84130  0.11360  Biso   1.000  C
  C38      1.0000 0.92140  0.34130  0.38640  Biso   1.000  C
  C39      1.0000 0.92140  0.15870  0.88640  Biso   1.000  C
  C40      1.0000 0.07860  0.65870  0.61360  Biso   1.000  C
  H37      1.0000 0.09890  0.90100  0.13940  Biso   1.000  H
  H38      1.0000 0.90110  0.40100  0.36060  Biso   1.000  H
  H39      1.0000 0.90110  0.09900  0.86060  Biso   1.000  H
  H40      1.0000 0.09890  0.59900  0.63940  Biso   1.000  H
  H41      1.0000 0.06180  0.84980  0.05230  Biso   1.000  H
  H42      1.0000 0.93820  0.34980  0.44770  Biso   1.000  H
  H43      1.0000 0.93820  0.15020  0.94770  Biso   1.000  H
  H44      1.0000 0.06180  0.65020  0.55230  Biso   1.000  H
  H45      1.0000 0.12830  0.79560  0.12300  Biso   1.000  H
  H46      1.0000 0.87170  0.29560  0.37700  Biso   1.000  H
  H47      1.0000 0.87170  0.20440  0.87700  Biso   1.000  H
  H48      1.0000 0.12830  0.70440  0.62300  Biso   1.000  H
  C41      1.0000 0.34837  0.50897  0.16290  Biso   1.000  C
  C42      1.0000 0.65163  0.00897  0.33710  Biso   1.000  C
  C43      1.0000 0.65163  0.49103  0.83710  Biso   1.000  C
  C44      1.0000 0.34837  0.99103  0.66290  Biso   1.000  C
  H49      1.0000 0.29800  0.49530  0.12170  Biso   1.000  H
  H50      1.0000 0.70200  0.99530  0.37830  Biso   1.000  H
  H51      1.0000 0.70200  0.50470  0.87830  Biso   1.000  H
  H52      1.0000 0.29800  0.00470  0.62170  Biso   1.000  H
  C45      1.0000 0.41462  0.57150  0.14165  Biso   1.000  C
  C46      1.0000 0.58538  0.07150  0.35835  Biso   1.000  C
  C47      1.0000 0.58538  0.42850  0.85835  Biso   1.000  C
  C48      1.0000 0.41462  0.92850  0.64165  Biso   1.000  C
  H53      1.0000 0.40960  0.59910  0.08670  Biso   1.000  H
  H54      1.0000 0.59040  0.09910  0.41330  Biso   1.000  H
  H55      1.0000 0.59040  0.40090  0.91330  Biso   1.000  H
  H56      1.0000 0.40960  0.90090  0.58670  Biso   1.000  H
  C49      1.0000 0.48900  0.59338  0.20211  Biso   1.000  C
  C50      1.0000 0.51100  0.09338  0.29789  Biso   1.000  C
  C51      1.0000 0.51100  0.40662  0.79789  Biso   1.000  C
  C52      1.0000 0.48900  0.90662  0.70211  Biso   1.000  C
  C53      1.0000 0.49382  0.54890  0.28137  Biso   1.000  C
  C54      1.0000 0.50618  0.04890  0.21863  Biso   1.000  C
  C55      1.0000 0.50618  0.45110  0.71863  Biso   1.000  C
  C56      1.0000 0.49382  0.95110  0.78137  Biso   1.000  C
  H57      1.0000 0.54360  0.56080  0.32370  Biso   1.000  H
  H58      1.0000 0.45640  0.06080  0.17630  Biso   1.000  H
  H59      1.0000 0.45640  0.43920  0.67630  Biso   1.000  H
  H60      1.0000 0.54360  0.93920  0.82370  Biso   1.000  H
  C57      1.0000 0.42509  0.48719  0.29751  Biso   1.000  C
  C58      1.0000 0.57491  0.98719  0.20249  Biso   1.000  C
  C59      1.0000 0.57491  0.51281  0.70249  Biso   1.000  C
  C60      1.0000 0.42509  0.01281  0.79751  Biso   1.000  C
  H61      1.0000 0.42880  0.45770  0.35170  Biso   1.000  H
  H62      1.0000 0.57120  0.95770  0.14830  Biso   1.000  H
  H63      1.0000 0.57120  0.54230  0.64830  Biso   1.000  H
  H64      1.0000 0.42880  0.04230  0.85170  Biso   1.000  H
  C61      1.0000 0.55946  0.66129  0.18284  Biso   1.000  C
  C62      1.0000 0.44054  0.16129  0.31716  Biso   1.000  C
  C63      1.0000 0.44054  0.33871  0.81716  Biso   1.000  C
  C64      1.0000 0.55946  0.83871  0.68284  Biso   1.000  C
  C65      1.0000 0.59835  0.73363  0.23567  Biso   1.000  C
  C66      1.0000 0.40165  0.23363  0.26433  Biso   1.000  C
  C67      1.0000 0.40165  0.26637  0.76433  Biso   1.000  C
  C68      1.0000 0.59835  0.76637  0.73567  Biso   1.000  C
  C69      1.0000 0.60150  0.66670  0.10823  Biso   1.000  C
  C70      1.0000 0.39850  0.16670  0.39177  Biso   1.000  C
  C71      1.0000 0.39850  0.33330  0.89177  Biso   1.000  C
  C72      1.0000 0.60150  0.83330  0.60823  Biso   1.000  C
  C73      1.0000 0.57740  0.76000  0.32280  Biso   1.000  C
  C74      1.0000 0.42260  0.26000  0.17720  Biso   1.000  C
  C75      1.0000 0.42260  0.24000  0.67720  Biso   1.000  C
  C76      1.0000 0.57740  0.74000  0.82280  Biso   1.000  C
  H65      1.0000 0.62240  0.73140  0.36540  Biso   1.000  H
  H66      1.0000 0.37760  0.23140  0.13460  Biso   1.000  H
  H67      1.0000 0.37760  0.26860  0.63460  Biso   1.000  H
  H68      1.0000 0.62240  0.76860  0.86540  Biso   1.000  H
  H69      1.0000 0.51600  0.73790  0.33130  Biso   1.000  H
  H70      1.0000 0.48400  0.23790  0.16870  Biso   1.000  H
  H71      1.0000 0.48400  0.26210  0.66870  Biso   1.000  H
  H72      1.0000 0.51600  0.76210  0.83130  Biso   1.000  H
  H73      1.0000 0.57990  0.82810  0.32890  Biso   1.000  H
  H74      1.0000 0.42010  0.32810  0.17110  Biso   1.000  H
  H75      1.0000 0.42010  0.17190  0.67110  Biso   1.000  H
  H76      1.0000 0.57990  0.67190  0.82890  Biso   1.000  H
  C77      1.0000 0.59080  0.60980  0.02850  Biso   1.000  C
  C78      1.0000 0.40920  0.10980  0.47150  Biso   1.000  C
  C79      1.0000 0.40920  0.39020  0.97150  Biso   1.000  C
  C80      1.0000 0.59080  0.89020  0.52850  Biso   1.000  C
  H77      1.0000 0.53960  0.63420  0.98970  Biso   1.000  H
  H78      1.0000 0.46040  0.13420  0.51030  Biso   1.000  H
  H79      1.0000 0.46040  0.36580  0.01030  Biso   1.000  H
  H80      1.0000 0.53960  0.86580  0.48970  Biso   1.000  H
  H81      1.0000 0.57870  0.54470  0.04250  Biso   1.000  H
  H82      1.0000 0.42130  0.04470  0.45750  Biso   1.000  H
  H83      1.0000 0.42130  0.45530  0.95750  Biso   1.000  H
  H84      1.0000 0.57870  0.95530  0.54250  Biso   1.000  H
  H85      1.0000 0.64720  0.61330  0.00100  Biso   1.000  H
  H86      1.0000 0.35280  0.11330  0.49900  Biso   1.000  H
  H87      1.0000 0.35280  0.38670  0.99900  Biso   1.000  H
  H88      1.0000 0.64720  0.88670  0.50100  Biso   1.000  H
  Cr5      1.0000 0.23857  0.08280  0.01400  Biso   1.000  Cr
  Cr6      1.0000 0.76143  0.58280  0.48600  Biso   1.000  Cr
  Cr7      1.0000 0.76143  0.91720  0.98600  Biso   1.000  Cr
  Cr8      1.0000 0.23857  0.41720  0.51400  Biso   1.000  Cr
  O17      1.0000 0.27140  0.04888  0.92080  Biso   1.000  O
  O18      1.0000 0.72860  0.54888  0.57920  Biso   1.000  O
  O19      1.0000 0.72860  0.95112  0.07920  Biso   1.000  O
  O20      1.0000 0.27140  0.45112  0.42080  Biso   1.000  O
  O21      1.0000 0.28900  0.04090  0.09820  Biso   1.000  O
  O22      1.0000 0.71100  0.54090  0.40180  Biso   1.000  O
  O23      1.0000 0.71100  0.95910  0.90180  Biso   1.000  O
  O24      1.0000 0.28900  0.45910  0.59820  Biso   1.000  O
  O25      1.0000 0.13300  0.04270  0.00630  Biso   1.000  O
  O26      1.0000 0.86700  0.54270  0.49370  Biso   1.000  O
  O27      1.0000 0.86700  0.95730  0.99370  Biso   1.000  O
  O28      1.0000 0.13300  0.45730  0.50630  Biso   1.000  O
  Cr9      1.0000 0.26640  0.07860  0.01000  Biso   1.000  Cr
  Cr10     1.0000 0.73360  0.57860  0.49000  Biso   1.000  Cr
  Cr11     1.0000 0.73360  0.92140  0.99000  Biso   1.000  Cr
  Cr12     1.0000 0.26640  0.42140  0.51000  Biso   1.000  Cr
  O29      1.0000 0.34130  0.05900  0.07420  Biso   1.000  O
  O30      1.0000 0.65870  0.55900  0.42580  Biso   1.000  O
  O31      1.0000 0.65870  0.94100  0.92580  Biso   1.000  O
  O32      1.0000 0.34130  0.44100  0.57420  Biso   1.000  O
  O33      1.0000 0.18240  0.02730  0.05380  Biso   1.000  O
  O34      1.0000 0.81760  0.52730  0.44620  Biso   1.000  O
  O35      1.0000 0.81760  0.97270  0.94620  Biso   1.000  O
  O36      1.0000 0.18240  0.47270  0.55380  Biso   1.000  O
