data_image0
_cell_length_a       9.1824
_cell_length_b       15.9474
_cell_length_c       20.6708
_cell_angle_alpha    90
_cell_angle_beta     90
_cell_angle_gamma    90

_symmetry_space_group_name_H-M    "P 1"
_symmetry_int_tables_number       1

loop_
  _symmetry_equiv_pos_as_xyz
  'x, y, z'

loop_
  _atom_site_label
  _atom_site_occupancy
  _atom_site_fract_x
  _atom_site_fract_y
  _atom_site_fract_z
  _atom_site_thermal_displace_type
  _atom_site_B_iso_or_equiv
  _atom_site_type_symbol
  Cu1      1.0000 0.05134  0.11277  0.18875  Biso   1.000  Cu
  Cu2      1.0000 0.55134  0.38723  0.81125  Biso   1.000  Cu
  Cu3      1.0000 0.94866  0.61277  0.31125  Biso   1.000  Cu
  Cu4      1.0000 0.44866  0.88723  0.68875  Biso   1.000  Cu
  O1       1.0000 0.91710  0.22520  0.44320  Biso   1.000  O
  O2       1.0000 0.41710  0.27480  0.55680  Biso   1.000  O
  O3       1.0000 0.08290  0.72520  0.05680  Biso   1.000  O
  O4       1.0000 0.58290  0.77480  0.94320  Biso   1.000  O
  O5       1.0000 0.83430  0.49350  0.36625  Biso   1.000  O
  O6       1.0000 0.33430  0.00650  0.63375  Biso   1.000  O
  O7       1.0000 0.16570  0.99350  0.13375  Biso   1.000  O
  O8       1.0000 0.66570  0.50650  0.86625  Biso   1.000  O
  O9       1.0000 0.23570  0.13040  0.23391  Biso   1.000  O
  O10      1.0000 0.73570  0.36960  0.76609  Biso   1.000  O
  O11      1.0000 0.76430  0.63040  0.26609  Biso   1.000  O
  O12      1.0000 0.26430  0.86960  0.73391  Biso   1.000  O
  O13      1.0000 0.11290  0.18060  0.11525  Biso   1.000  O
  O14      1.0000 0.61290  0.31940  0.88475  Biso   1.000  O
  O15      1.0000 0.88710  0.68060  0.38475  Biso   1.000  O
  O16      1.0000 0.38710  0.81940  0.61525  Biso   1.000  O
  O17      1.0000 0.99300  0.04800  0.26451  Biso   1.000  O
  O18      1.0000 0.49300  0.45200  0.73549  Biso   1.000  O
  O19      1.0000 0.00700  0.54800  0.23549  Biso   1.000  O
  O20      1.0000 0.50700  0.95200  0.76451  Biso   1.000  O
  O21      1.0000 0.87370  0.08360  0.14103  Biso   1.000  O
  O22      1.0000 0.37370  0.41640  0.85897  Biso   1.000  O
  O23      1.0000 0.12630  0.58360  0.35897  Biso   1.000  O
  O24      1.0000 0.62630  0.91640  0.64103  Biso   1.000  O
  N1       1.0000 0.89540  0.30390  0.44190  Biso   1.000  N
  N2       1.0000 0.39540  0.19610  0.55810  Biso   1.000  N
  N3       1.0000 0.10460  0.80390  0.05810  Biso   1.000  N
  N4       1.0000 0.60460  0.69610  0.94190  Biso   1.000  N
  N5       1.0000 0.85680  0.43140  0.40510  Biso   1.000  N
  N6       1.0000 0.35680  0.06860  0.59490  Biso   1.000  N
  N7       1.0000 0.14320  0.93140  0.09490  Biso   1.000  N
  N8       1.0000 0.64320  0.56860  0.90510  Biso   1.000  N
  N9       1.0000 0.94710  0.23050  0.24170  Biso   1.000  N
  N10      1.0000 0.44710  0.26950  0.75830  Biso   1.000  N
  N11      1.0000 0.05290  0.73050  0.25830  Biso   1.000  N
  N12      1.0000 0.55290  0.76950  0.74170  Biso   1.000  N
  N13      1.0000 0.85870  0.29070  0.21945  Biso   1.000  N
  N14      1.0000 0.35870  0.20930  0.78055  Biso   1.000  N
  N15      1.0000 0.14130  0.79070  0.28055  Biso   1.000  N
  N16      1.0000 0.64130  0.70930  0.71945  Biso   1.000  N
  C1       1.0000 0.87880  0.35080  0.38790  Biso   1.000  C
  C2       1.0000 0.37880  0.14920  0.61210  Biso   1.000  C
  C3       1.0000 0.12120  0.85080  0.11210  Biso   1.000  C
  C4       1.0000 0.62120  0.64920  0.88790  Biso   1.000  C
  C5       1.0000 0.89770  0.35690  0.50250  Biso   1.000  C
  C6       1.0000 0.39770  0.14310  0.49750  Biso   1.000  C
  C7       1.0000 0.10230  0.85690  0.99750  Biso   1.000  C
  C8       1.0000 0.60230  0.64310  0.00250  Biso   1.000  C
  C9       1.0000 0.84480  0.44270  0.47650  Biso   1.000  C
  C10      1.0000 0.34480  0.05730  0.52350  Biso   1.000  C
  C11      1.0000 0.15520  0.94270  0.02350  Biso   1.000  C
  C12      1.0000 0.65520  0.55730  0.97650  Biso   1.000  C
  C13      1.0000 0.05710  0.35630  0.52580  Biso   1.000  C
  C14      1.0000 0.55710  0.14370  0.47420  Biso   1.000  C
  C15      1.0000 0.94290  0.85630  0.97420  Biso   1.000  C
  C16      1.0000 0.44290  0.64370  0.02580  Biso   1.000  C
  H1       1.0000 0.06560  0.38910  0.56450  Biso   1.000  H
  H2       1.0000 0.56560  0.11090  0.43550  Biso   1.000  H
  H3       1.0000 0.93440  0.88910  0.93550  Biso   1.000  H
  H4       1.0000 0.43440  0.61090  0.06450  Biso   1.000  H
  H5       1.0000 0.11840  0.37970  0.49280  Biso   1.000  H
  H6       1.0000 0.61840  0.12030  0.50720  Biso   1.000  H
  H7       1.0000 0.88160  0.87970  0.00720  Biso   1.000  H
  H8       1.0000 0.38160  0.62030  0.99280  Biso   1.000  H
  H9       1.0000 0.08670  0.29960  0.53450  Biso   1.000  H
  H10      1.0000 0.58670  0.20040  0.46550  Biso   1.000  H
  H11      1.0000 0.91330  0.79960  0.96550  Biso   1.000  H
  H12      1.0000 0.41330  0.70040  0.03450  Biso   1.000  H
  C17      1.0000 0.79750  0.31410  0.55390  Biso   1.000  C
  C18      1.0000 0.29750  0.18590  0.44610  Biso   1.000  C
  C19      1.0000 0.20250  0.81410  0.94610  Biso   1.000  C
  C20      1.0000 0.70250  0.68590  0.05390  Biso   1.000  C
  H13      1.0000 0.79760  0.34670  0.59290  Biso   1.000  H
  H14      1.0000 0.29760  0.15330  0.40710  Biso   1.000  H
  H15      1.0000 0.20240  0.84670  0.90710  Biso   1.000  H
  H16      1.0000 0.70240  0.65330  0.09290  Biso   1.000  H
  H17      1.0000 0.83320  0.25870  0.56290  Biso   1.000  H
  H18      1.0000 0.33320  0.24130  0.43710  Biso   1.000  H
  H19      1.0000 0.16680  0.75870  0.93710  Biso   1.000  H
  H20      1.0000 0.66680  0.74130  0.06290  Biso   1.000  H
  H21      1.0000 0.70000  0.31050  0.53730  Biso   1.000  H
  H22      1.0000 0.20000  0.18950  0.46270  Biso   1.000  H
  H23      1.0000 0.30000  0.81050  0.96270  Biso   1.000  H
  H24      1.0000 0.80000  0.68950  0.03730  Biso   1.000  H
  C21      1.0000 0.68440  0.46220  0.49050  Biso   1.000  C
  C22      1.0000 0.18440  0.03780  0.50950  Biso   1.000  C
  C23      1.0000 0.31560  0.96220  0.00950  Biso   1.000  C
  C24      1.0000 0.81560  0.53780  0.99050  Biso   1.000  C
  H25      1.0000 0.65390  0.50900  0.46460  Biso   1.000  H
  H26      1.0000 0.15390  0.99100  0.53540  Biso   1.000  H
  H27      1.0000 0.34610  0.00900  0.03540  Biso   1.000  H
  H28      1.0000 0.84610  0.49100  0.96460  Biso   1.000  H
  H29      1.0000 0.67290  0.47570  0.53550  Biso   1.000  H
  H30      1.0000 0.17290  0.02430  0.46450  Biso   1.000  H
  H31      1.0000 0.32710  0.97570  0.96450  Biso   1.000  H
  H32      1.0000 0.82710  0.52430  0.03550  Biso   1.000  H
  H33      1.0000 0.62590  0.41410  0.48020  Biso   1.000  H
  H34      1.0000 0.12590  0.08590  0.51980  Biso   1.000  H
  H35      1.0000 0.37410  0.91410  0.01980  Biso   1.000  H
  H36      1.0000 0.87410  0.58590  0.98020  Biso   1.000  H
  C25      1.0000 0.93840  0.51870  0.49670  Biso   1.000  C
  C26      1.0000 0.43840  0.98130  0.50330  Biso   1.000  C
  C27      1.0000 0.06160  0.01870  0.00330  Biso   1.000  C
  C28      1.0000 0.56160  0.48130  0.99670  Biso   1.000  C
  H37      1.0000 0.93140  0.52660  0.54260  Biso   1.000  H
  H38      1.0000 0.43140  0.97340  0.45740  Biso   1.000  H
  H39      1.0000 0.06860  0.02660  0.95740  Biso   1.000  H
  H40      1.0000 0.56860  0.47340  0.04260  Biso   1.000  H
  H41      1.0000 0.90390  0.56800  0.47500  Biso   1.000  H
  H42      1.0000 0.40390  0.93200  0.52500  Biso   1.000  H
  H43      1.0000 0.09610  0.06800  0.02500  Biso   1.000  H
  H44      1.0000 0.59610  0.43200  0.97500  Biso   1.000  H
  H45      1.0000 0.03810  0.50870  0.48510  Biso   1.000  H
  H46      1.0000 0.53810  0.99130  0.51490  Biso   1.000  H
  H47      1.0000 0.96190  0.00870  0.01490  Biso   1.000  H
  H48      1.0000 0.46190  0.49130  0.98510  Biso   1.000  H
  C29      1.0000 0.88590  0.31790  0.32340  Biso   1.000  C
  C30      1.0000 0.38590  0.18210  0.67660  Biso   1.000  C
  C31      1.0000 0.11410  0.81790  0.17660  Biso   1.000  C
  C32      1.0000 0.61410  0.68210  0.82340  Biso   1.000  C
  C33      1.0000 0.81690  0.34670  0.26620  Biso   1.000  C
  C34      1.0000 0.31690  0.15330  0.73380  Biso   1.000  C
  C35      1.0000 0.18310  0.84670  0.23380  Biso   1.000  C
  C36      1.0000 0.68310  0.65330  0.76620  Biso   1.000  C
  C37      1.0000 0.71920  0.41040  0.24810  Biso   1.000  C
  C38      1.0000 0.21920  0.08960  0.75190  Biso   1.000  C
  C39      1.0000 0.28080  0.91040  0.25190  Biso   1.000  C
  C40      1.0000 0.78080  0.58960  0.74810  Biso   1.000  C
  H49      1.0000 0.68890  0.45000  0.27820  Biso   1.000  H
  H50      1.0000 0.18890  0.05000  0.72180  Biso   1.000  H
  H51      1.0000 0.31110  0.95000  0.22180  Biso   1.000  H
  H52      1.0000 0.81110  0.55000  0.77820  Biso   1.000  H
  C41      1.0000 0.66920  0.41340  0.18600  Biso   1.000  C
  C42      1.0000 0.16920  0.08660  0.81400  Biso   1.000  C
  C43      1.0000 0.33080  0.91340  0.31400  Biso   1.000  C
  C44      1.0000 0.83080  0.58660  0.68600  Biso   1.000  C
  H53      1.0000 0.60270  0.45440  0.17390  Biso   1.000  H
  H54      1.0000 0.10270  0.04560  0.82610  Biso   1.000  H
  H55      1.0000 0.39730  0.95440  0.32610  Biso   1.000  H
  H56      1.0000 0.89730  0.54560  0.67390  Biso   1.000  H
  C45      1.0000 0.71730  0.35530  0.14100  Biso   1.000  C
  C46      1.0000 0.21730  0.14470  0.85900  Biso   1.000  C
  C47      1.0000 0.28270  0.85530  0.35900  Biso   1.000  C
  C48      1.0000 0.78270  0.64470  0.64100  Biso   1.000  C
  H57      1.0000 0.68340  0.35900  0.09870  Biso   1.000  H
  H58      1.0000 0.18340  0.14100  0.90130  Biso   1.000  H
  H59      1.0000 0.31660  0.85900  0.40130  Biso   1.000  H
  H60      1.0000 0.81660  0.64100  0.59870  Biso   1.000  H
  C49      1.0000 0.80980  0.29480  0.15610  Biso   1.000  C
  C50      1.0000 0.30980  0.20520  0.84390  Biso   1.000  C
  C51      1.0000 0.19020  0.79480  0.34390  Biso   1.000  C
  C52      1.0000 0.69020  0.70520  0.65610  Biso   1.000  C
  H61      1.0000 0.84090  0.25630  0.12520  Biso   1.000  H
  H62      1.0000 0.34090  0.24370  0.87480  Biso   1.000  H
  H63      1.0000 0.15910  0.75630  0.37480  Biso   1.000  H
  H64      1.0000 0.65910  0.74370  0.62520  Biso   1.000  H
  C53      1.0000 0.96080  0.24650  0.30510  Biso   1.000  C
  C54      1.0000 0.46080  0.25350  0.69490  Biso   1.000  C
  C55      1.0000 0.03920  0.74650  0.19490  Biso   1.000  C
  C56      1.0000 0.53920  0.75350  0.80510  Biso   1.000  C
  H65      1.0000 0.01440  0.21340  0.33350  Biso   1.000  H
  H66      1.0000 0.51440  0.28660  0.66650  Biso   1.000  H
  H67      1.0000 0.98560  0.71340  0.16650  Biso   1.000  H
  H68      1.0000 0.48560  0.78660  0.83350  Biso   1.000  H
  C57      1.0000 0.33840  0.17420  0.21340  Biso   1.000  C
  C58      1.0000 0.83840  0.32580  0.78660  Biso   1.000  C
  C59      1.0000 0.66160  0.67420  0.28660  Biso   1.000  C
  C60      1.0000 0.16160  0.82580  0.71340  Biso   1.000  C
  C61      1.0000 0.34670  0.21630  0.15550  Biso   1.000  C
  C62      1.0000 0.84670  0.28370  0.84450  Biso   1.000  C
  C63      1.0000 0.65330  0.71630  0.34450  Biso   1.000  C
  C64      1.0000 0.15330  0.78370  0.65550  Biso   1.000  C
  H69      1.0000 0.43150  0.24550  0.14560  Biso   1.000  H
  H70      1.0000 0.93150  0.25450  0.85440  Biso   1.000  H
  H71      1.0000 0.56850  0.74550  0.35440  Biso   1.000  H
  H72      1.0000 0.06850  0.75450  0.64560  Biso   1.000  H
  C65      1.0000 0.23330  0.21670  0.11150  Biso   1.000  C
  C66      1.0000 0.73330  0.28330  0.88850  Biso   1.000  C
  C67      1.0000 0.76670  0.71670  0.38850  Biso   1.000  C
  C68      1.0000 0.26670  0.78330  0.61150  Biso   1.000  C
  C69      1.0000 0.46630  0.18100  0.25880  Biso   1.000  C
  C70      1.0000 0.96630  0.31900  0.74120  Biso   1.000  C
  C71      1.0000 0.53370  0.68100  0.24120  Biso   1.000  C
  C72      1.0000 0.03370  0.81900  0.75880  Biso   1.000  C
  C73      1.0000 0.25530  0.26460  0.04750  Biso   1.000  C
  C74      1.0000 0.75530  0.23540  0.95250  Biso   1.000  C
  C75      1.0000 0.74470  0.76460  0.45250  Biso   1.000  C
  C76      1.0000 0.24470  0.73540  0.54750  Biso   1.000  C
  C77      1.0000 0.87460  0.00830  0.26920  Biso   1.000  C
  C78      1.0000 0.37460  0.49170  0.73080  Biso   1.000  C
  C79      1.0000 0.12540  0.50830  0.23080  Biso   1.000  C
  C80      1.0000 0.62540  0.99170  0.76920  Biso   1.000  C
  C81      1.0000 0.77150  0.99600  0.22270  Biso   1.000  C
  C82      1.0000 0.27150  0.50400  0.77730  Biso   1.000  C
  C83      1.0000 0.22850  0.49600  0.27730  Biso   1.000  C
  C84      1.0000 0.72850  0.00400  0.72270  Biso   1.000  C
  H73      1.0000 0.69360  0.96050  0.23150  Biso   1.000  H
  H74      1.0000 0.19360  0.53950  0.76850  Biso   1.000  H
  H75      1.0000 0.30640  0.46050  0.26850  Biso   1.000  H
  H76      1.0000 0.80640  0.03950  0.73150  Biso   1.000  H
  C85      1.0000 0.77900  0.03510  0.16200  Biso   1.000  C
  C86      1.0000 0.27900  0.46490  0.83800  Biso   1.000  C
  C87      1.0000 0.22100  0.53510  0.33800  Biso   1.000  C
  C88      1.0000 0.72100  0.96490  0.66200  Biso   1.000  C
  C89      1.0000 0.85020  0.96900  0.33530  Biso   1.000  C
  C90      1.0000 0.35020  0.53100  0.66470  Biso   1.000  C
  C91      1.0000 0.14980  0.46900  0.16470  Biso   1.000  C
  C92      1.0000 0.64980  0.03100  0.83530  Biso   1.000  C
  C93      1.0000 0.65390  0.01860  0.11420  Biso   1.000  C
  C94      1.0000 0.15390  0.48140  0.88580  Biso   1.000  C
  C95      1.0000 0.34610  0.51860  0.38580  Biso   1.000  C
  C96      1.0000 0.84610  0.98140  0.61420  Biso   1.000  C
  F1       1.0000 0.14060  0.30100  0.02900  Biso   1.000  F
  F2       1.0000 0.64060  0.19900  0.97100  Biso   1.000  F
  F3       1.0000 0.85940  0.80100  0.47100  Biso   1.000  F
  F4       1.0000 0.35940  0.69900  0.52900  Biso   1.000  F
  F5       1.0000 0.29190  0.21440  0.00240  Biso   1.000  F
  F6       1.0000 0.79190  0.28560  0.99760  Biso   1.000  F
  F7       1.0000 0.70810  0.71440  0.49760  Biso   1.000  F
  F8       1.0000 0.20810  0.78560  0.50240  Biso   1.000  F
  F9       1.0000 0.35750  0.32270  0.05020  Biso   1.000  F
  F10      1.0000 0.85750  0.17730  0.94980  Biso   1.000  F
  F11      1.0000 0.64250  0.82270  0.44980  Biso   1.000  F
  F12      1.0000 0.14250  0.67730  0.55020  Biso   1.000  F
  F13      1.0000 0.59170  0.18990  0.22980  Biso   1.000  F
  F14      1.0000 0.09170  0.31010  0.77020  Biso   1.000  F
  F15      1.0000 0.40830  0.68990  0.27020  Biso   1.000  F
  F16      1.0000 0.90830  0.81010  0.72980  Biso   1.000  F
  F17      1.0000 0.44900  0.24700  0.29820  Biso   1.000  F
  F18      1.0000 0.94900  0.25300  0.70180  Biso   1.000  F
  F19      1.0000 0.55100  0.74700  0.20180  Biso   1.000  F
  F20      1.0000 0.05100  0.75300  0.79820  Biso   1.000  F
  F21      1.0000 0.47870  0.11530  0.29770  Biso   1.000  F
  F22      1.0000 0.97870  0.38470  0.70230  Biso   1.000  F
  F23      1.0000 0.52130  0.61530  0.20230  Biso   1.000  F
  F24      1.0000 0.02130  0.88470  0.79770  Biso   1.000  F
  F25      1.0000 0.52840  0.01260  0.14430  Biso   1.000  F
  F26      1.0000 0.02840  0.48740  0.85570  Biso   1.000  F
  F27      1.0000 0.47160  0.51260  0.35570  Biso   1.000  F
  F28      1.0000 0.97160  0.98740  0.64430  Biso   1.000  F
  F29      1.0000 0.62900  0.08990  0.08080  Biso   1.000  F
  F30      1.0000 0.12900  0.41010  0.91920  Biso   1.000  F
  F31      1.0000 0.37100  0.58990  0.41920  Biso   1.000  F
  F32      1.0000 0.87100  0.91010  0.58080  Biso   1.000  F
  F33      1.0000 0.68600  0.96100  0.07800  Biso   1.000  F
  F34      1.0000 0.18600  0.53900  0.92200  Biso   1.000  F
  F35      1.0000 0.31400  0.46100  0.42200  Biso   1.000  F
  F36      1.0000 0.81400  0.03900  0.57800  Biso   1.000  F
  F37      1.0000 0.87560  0.89320  0.33410  Biso   1.000  F
  F38      1.0000 0.37560  0.60680  0.66590  Biso   1.000  F
  F39      1.0000 0.12440  0.39320  0.16590  Biso   1.000  F
  F40      1.0000 0.62440  0.10680  0.83410  Biso   1.000  F
  F41      1.0000 0.92990  0.99630  0.37830  Biso   1.000  F
  F42      1.0000 0.42990  0.50370  0.62170  Biso   1.000  F
  F43      1.0000 0.07010  0.49630  0.12170  Biso   1.000  F
  F44      1.0000 0.57010  0.00370  0.87830  Biso   1.000  F
  F45      1.0000 0.72500  0.97470  0.35590  Biso   1.000  F
  F46      1.0000 0.22500  0.52530  0.64410  Biso   1.000  F
  F47      1.0000 0.27500  0.47470  0.14410  Biso   1.000  F
  F48      1.0000 0.77500  0.02530  0.85590  Biso   1.000  F
  F49      1.0000 0.56600  0.07600  0.11300  Biso   1.000  F
  F50      1.0000 0.06600  0.42400  0.88700  Biso   1.000  F
  F51      1.0000 0.43400  0.57600  0.38700  Biso   1.000  F
  F52      1.0000 0.93400  0.92400  0.61300  Biso   1.000  F
  F53      1.0000 0.59300  0.94300  0.12000  Biso   1.000  F
  F54      1.0000 0.09300  0.55700  0.88000  Biso   1.000  F
  F55      1.0000 0.40700  0.44300  0.38000  Biso   1.000  F
  F56      1.0000 0.90700  0.05700  0.62000  Biso   1.000  F
  F57      1.0000 0.69500  0.02500  0.05730  Biso   1.000  F
  F58      1.0000 0.19500  0.47500  0.94270  Biso   1.000  F
  F59      1.0000 0.30500  0.52500  0.44270  Biso   1.000  F
  F60      1.0000 0.80500  0.97500  0.55730  Biso   1.000  F
