data_image0
_cell_length_a       8.8145
_cell_length_b       9.5878
_cell_length_c       11.3029
_cell_angle_alpha    82.786
_cell_angle_beta     70.994
_cell_angle_gamma    86.46

_symmetry_space_group_name_H-M    "P 1"
_symmetry_int_tables_number       1

loop_
  _symmetry_equiv_pos_as_xyz
  'x, y, z'

loop_
  _atom_site_label
  _atom_site_occupancy
  _atom_site_fract_x
  _atom_site_fract_y
  _atom_site_fract_z
  _atom_site_thermal_displace_type
  _atom_site_B_iso_or_equiv
  _atom_site_type_symbol
  Cu1      1.0000 0.50000  0.00000  0.50000  Biso   1.000  Cu
  O1       1.0000 0.32470  0.14910  0.20839  Biso   1.000  O
  O2       1.0000 0.67530  0.85090  0.79161  Biso   1.000  O
  O3       1.0000 0.48300  0.29111  0.74712  Biso   1.000  O
  O4       1.0000 0.51700  0.70889  0.25288  Biso   1.000  O
  O5       1.0000 0.55810  0.98190  0.27728  Biso   1.000  O
  O6       1.0000 0.44190  0.01810  0.72272  Biso   1.000  O
  N1       1.0000 0.08340  0.15290  0.17847  Biso   1.000  N
  N2       1.0000 0.91660  0.84710  0.82153  Biso   1.000  N
  N3       1.0000 0.45500  0.51670  0.78870  Biso   1.000  N
  N4       1.0000 0.54500  0.48330  0.21130  Biso   1.000  N
  N5       1.0000 0.73430  0.07058  0.45585  Biso   1.000  N
  N6       1.0000 0.26570  0.92942  0.54415  Biso   1.000  N
  N7       1.0000 0.57210  0.79721  0.53058  Biso   1.000  N
  N8       1.0000 0.42790  0.20279  0.46942  Biso   1.000  N
  C1       1.0000 0.32130  0.18160  0.99600  Biso   1.000  C
  C2       1.0000 0.67870  0.81840  0.00400  Biso   1.000  C
  H1       1.0000 0.25530  0.14250  0.95490  Biso   1.000  H
  H2       1.0000 0.74470  0.85750  0.04510  Biso   1.000  H
  H3       1.0000 0.42660  0.13620  0.97080  Biso   1.000  H
  H4       1.0000 0.57340  0.86380  0.02920  Biso   1.000  H
  C3       1.0000 0.24560  0.15720  0.13700  Biso   1.000  C
  C4       1.0000 0.75440  0.84280  0.86300  Biso   1.000  C
  C5       1.0000 0.33570  0.33970  0.95830  Biso   1.000  C
  C6       1.0000 0.66430  0.66030  0.04170  Biso   1.000  C
  H5       1.0000 0.22890  0.38170  0.97450  Biso   1.000  H
  H6       1.0000 0.77110  0.61830  0.02550  Biso   1.000  H
  H7       1.0000 0.38660  0.37930  0.01030  Biso   1.000  H
  H8       1.0000 0.61340  0.62070  0.98970  Biso   1.000  H
  C7       1.0000 0.43100  0.37700  0.82190  Biso   1.000  C
  C8       1.0000 0.56900  0.62300  0.17810  Biso   1.000  C
  C9       1.0000 0.98580  0.14310  0.30510  Biso   1.000  C
  C10      1.0000 0.01420  0.85690  0.69490  Biso   1.000  C
  C11      1.0000 0.83840  0.08050  0.33790  Biso   1.000  C
  C12      1.0000 0.16160  0.91950  0.66210  Biso   1.000  C
  H9       1.0000 0.81010  0.04360  0.27590  Biso   1.000  H
  H10      1.0000 0.18990  0.95640  0.72410  Biso   1.000  H
  C13      1.0000 0.77890  0.12010  0.54480  Biso   1.000  C
  C14      1.0000 0.22110  0.87990  0.45520  Biso   1.000  C
  H11      1.0000 0.70950  0.11100  0.62720  Biso   1.000  H
  H12      1.0000 0.29050  0.88900  0.37280  Biso   1.000  H
  C15      1.0000 0.92330  0.18390  0.51890  Biso   1.000  C
  C16      1.0000 0.07670  0.81610  0.48110  Biso   1.000  C
  H13      1.0000 0.94980  0.21770  0.58300  Biso   1.000  H
  H14      1.0000 0.05020  0.78230  0.41700  Biso   1.000  H
  C17      1.0000 0.02880  0.19760  0.39760  Biso   1.000  C
  C18      1.0000 0.97120  0.80240  0.60240  Biso   1.000  C
  H15      1.0000 0.12610  0.24210  0.37830  Biso   1.000  H
  H16      1.0000 0.87390  0.75790  0.62170  Biso   1.000  H
  C19      1.0000 0.53880  0.58230  0.66850  Biso   1.000  C
  C20      1.0000 0.46120  0.41770  0.33150  Biso   1.000  C
  C21      1.0000 0.49790  0.72070  0.63950  Biso   1.000  C
  C22      1.0000 0.50210  0.27930  0.36050  Biso   1.000  C
  H17      1.0000 0.41440  0.76300  0.69880  Biso   1.000  H
  H18      1.0000 0.58560  0.23700  0.30120  Biso   1.000  H
  C23      1.0000 0.69090  0.73480  0.44460  Biso   1.000  C
  C24      1.0000 0.30910  0.26520  0.55540  Biso   1.000  C
  H19      1.0000 0.74330  0.78640  0.36830  Biso   1.000  H
  H20      1.0000 0.25670  0.21360  0.63170  Biso   1.000  H
  C25      1.0000 0.73740  0.59710  0.46600  Biso   1.000  C
  C26      1.0000 0.26260  0.40290  0.53400  Biso   1.000  C
  H21      1.0000 0.81950  0.55680  0.40420  Biso   1.000  H
  H22      1.0000 0.18050  0.44320  0.59580  Biso   1.000  H
  C27      1.0000 0.66230  0.51820  0.57920  Biso   1.000  C
  C28      1.0000 0.33770  0.48180  0.42080  Biso   1.000  C
  H23      1.0000 0.69340  0.42520  0.59520  Biso   1.000  H
  H24      1.0000 0.30660  0.57480  0.40480  Biso   1.000  H
  H25      1.0000 0.40700  0.56600  0.83800  Biso   1.000  H
  H26      1.0000 0.59300  0.43400  0.16200  Biso   1.000  H
  H27      1.0000 0.55700  0.90800  0.25600  Biso   1.000  H
  H28      1.0000 0.44300  0.09200  0.74400  Biso   1.000  H
  H29      1.0000 0.51000  0.03200  0.23900  Biso   1.000  H
  H30      1.0000 0.49000  0.96800  0.76100  Biso   1.000  H
  H31      1.0000 0.03900  0.15100  0.12700  Biso   1.000  H
  H32      1.0000 0.96100  0.84900  0.87300  Biso   1.000  H
  P1       1.0000 0.14664  0.73958  0.08569  Biso   1.000  P
  P2       1.0000 0.85336  0.26042  0.91431  Biso   1.000  P
  F1       1.0000 0.23530  0.84260  0.13870  Biso   1.000  F
  F2       1.0000 0.76470  0.15740  0.86130  Biso   1.000  F
  F3       1.0000 0.11610  0.86680  0.99490  Biso   1.000  F
  F4       1.0000 0.88390  0.13320  0.00510  Biso   1.000  F
  F5       1.0000 0.98250  0.77840  0.18050  Biso   1.000  F
  F6       1.0000 0.01750  0.22160  0.81950  Biso   1.000  F
  F7       1.0000 0.06770  0.64100  0.02350  Biso   1.000  F
  F8       1.0000 0.93230  0.35900  0.97650  Biso   1.000  F
  F9       1.0000 0.16070  0.61810  0.18810  Biso   1.000  F
  F10      1.0000 0.83930  0.38190  0.81190  Biso   1.000  F
  F11      1.0000 0.31300  0.69020  0.00390  Biso   1.000  F
  F12      1.0000 0.68700  0.30980  0.99610  Biso   1.000  F
  F13      1.0000 0.20800  0.72500  0.93600  Biso   1.000  F
  F14      1.0000 0.79200  0.27500  0.06400  Biso   1.000  F
  F15      1.0000 0.27600  0.84600  0.02000  Biso   1.000  F
  F16      1.0000 0.72400  0.15400  0.98000  Biso   1.000  F
  F17      1.0000 0.24730  0.62250  0.11630  Biso   1.000  F
  F18      1.0000 0.75270  0.37750  0.88370  Biso   1.000  F
  F19      1.0000 0.01400  0.84060  0.07900  Biso   1.000  F
  F20      1.0000 0.98600  0.15940  0.92100  Biso   1.000  F
  F21      1.0000 0.12700  0.77900  0.20400  Biso   1.000  F
  F22      1.0000 0.87300  0.22100  0.79600  Biso   1.000  F
  F23      1.0000 0.02400  0.63600  0.11700  Biso   1.000  F
  F24      1.0000 0.97600  0.36400  0.88300  Biso   1.000  F
