data_image0
_cell_length_a       6.685
_cell_length_b       9.7739
_cell_length_c       13.2657
_cell_angle_alpha    90
_cell_angle_beta     93.136
_cell_angle_gamma    90

_symmetry_space_group_name_H-M    "P 1"
_symmetry_int_tables_number       1

loop_
  _symmetry_equiv_pos_as_xyz
  'x, y, z'

loop_
  _atom_site_label
  _atom_site_occupancy
  _atom_site_fract_x
  _atom_site_fract_y
  _atom_site_fract_z
  _atom_site_thermal_displace_type
  _atom_site_B_iso_or_equiv
  _atom_site_type_symbol
  Cu1      1.0000 0.00000  0.50000  0.00000  Biso   1.000  Cu
  Cu2      1.0000 0.50000  0.00000  0.50000  Biso   1.000  Cu
  N1       1.0000 0.19730  0.38300  0.93408  Biso   1.000  N
  N2       1.0000 0.30270  0.88300  0.56592  Biso   1.000  N
  N3       1.0000 0.80270  0.61700  0.06592  Biso   1.000  N
  N4       1.0000 0.69730  0.11700  0.43408  Biso   1.000  N
  C1       1.0000 0.33920  0.40580  0.10400  Biso   1.000  C
  C2       1.0000 0.16080  0.90580  0.39600  Biso   1.000  C
  C3       1.0000 0.66080  0.59420  0.89600  Biso   1.000  C
  C4       1.0000 0.83920  0.09420  0.60400  Biso   1.000  C
  C5       1.0000 0.49840  0.21740  0.86920  Biso   1.000  C
  C6       1.0000 0.00160  0.71740  0.63080  Biso   1.000  C
  C7       1.0000 0.50160  0.78260  0.13080  Biso   1.000  C
  C8       1.0000 0.99840  0.28260  0.36920  Biso   1.000  C
  H1       1.0000 0.60330  0.16190  0.84620  Biso   1.000  H
  H2       1.0000 0.89670  0.66190  0.65380  Biso   1.000  H
  H3       1.0000 0.39670  0.83810  0.15380  Biso   1.000  H
  H4       1.0000 0.10330  0.33810  0.34620  Biso   1.000  H
  C9       1.0000 0.35230  0.34780  0.99880  Biso   1.000  C
  C10      1.0000 0.14770  0.84780  0.50120  Biso   1.000  C
  C11      1.0000 0.64770  0.65220  0.00120  Biso   1.000  C
  C12      1.0000 0.85230  0.15220  0.49880  Biso   1.000  C
  C13      1.0000 0.33740  0.25170  0.80450  Biso   1.000  C
  C14      1.0000 0.16260  0.75170  0.69550  Biso   1.000  C
  C15      1.0000 0.66260  0.74830  0.19550  Biso   1.000  C
  C16      1.0000 0.83740  0.24830  0.30450  Biso   1.000  C
  H5       1.0000 0.32910  0.21930  0.73690  Biso   1.000  H
  H6       1.0000 0.17090  0.71930  0.76310  Biso   1.000  H
  H7       1.0000 0.67090  0.78070  0.26310  Biso   1.000  H
  H8       1.0000 0.82910  0.28070  0.23690  Biso   1.000  H
  C17      1.0000 0.50590  0.26450  0.96830  Biso   1.000  C
  C18      1.0000 0.99410  0.76450  0.53170  Biso   1.000  C
  C19      1.0000 0.49410  0.73550  0.03170  Biso   1.000  C
  C20      1.0000 0.00590  0.23550  0.46830  Biso   1.000  C
  C21      1.0000 0.18770  0.33460  0.84010  Biso   1.000  C
  C22      1.0000 0.31230  0.83460  0.65990  Biso   1.000  C
  C23      1.0000 0.81230  0.66540  0.15990  Biso   1.000  C
  C24      1.0000 0.68770  0.16540  0.34010  Biso   1.000  C
  H9       1.0000 0.07560  0.35740  0.79620  Biso   1.000  H
  H10      1.0000 0.42440  0.85740  0.70380  Biso   1.000  H
  H11      1.0000 0.92440  0.64260  0.20380  Biso   1.000  H
  H12      1.0000 0.57560  0.14260  0.29620  Biso   1.000  H
  O1       1.0000 0.18510  0.47737  0.11924  Biso   1.000  O
  O2       1.0000 0.31490  0.97737  0.38076  Biso   1.000  O
  O3       1.0000 0.81490  0.52263  0.88076  Biso   1.000  O
  O4       1.0000 0.68510  0.02263  0.61924  Biso   1.000  O
  O5       1.0000 0.47520  0.37800  0.16772  Biso   1.000  O
  O6       1.0000 0.02480  0.87800  0.33228  Biso   1.000  O
  O7       1.0000 0.52480  0.62200  0.83228  Biso   1.000  O
  O8       1.0000 0.97520  0.12200  0.66772  Biso   1.000  O
  O9       1.0000 0.66060  0.10080  0.07634  Biso   1.000  O
  O10      1.0000 0.83940  0.60080  0.42366  Biso   1.000  O
  O11      1.0000 0.33940  0.89920  0.92366  Biso   1.000  O
  O12      1.0000 0.16060  0.39920  0.57634  Biso   1.000  O
  O13      1.0000 0.83450  0.29110  0.04683  Biso   1.000  O
  O14      1.0000 0.66550  0.79110  0.45317  Biso   1.000  O
  O15      1.0000 0.16550  0.70890  0.95317  Biso   1.000  O
  O16      1.0000 0.33450  0.20890  0.54683  Biso   1.000  O
  C25      1.0000 0.68310  0.22310  0.03650  Biso   1.000  C
  C26      1.0000 0.81690  0.72310  0.46350  Biso   1.000  C
  C27      1.0000 0.31690  0.77690  0.96350  Biso   1.000  C
  C28      1.0000 0.18310  0.27690  0.53650  Biso   1.000  C
  O17      1.0000 0.50600  0.50050  0.34997  Biso   1.000  O
  O18      1.0000 0.99400  0.00050  0.15003  Biso   1.000  O
  O19      1.0000 0.49400  0.49950  0.65003  Biso   1.000  O
  O20      1.0000 0.00600  0.99950  0.84997  Biso   1.000  O
  C29      1.0000 0.33630  0.58550  0.35960  Biso   1.000  C
  C30      1.0000 0.16370  0.08550  0.14040  Biso   1.000  C
  C31      1.0000 0.66370  0.41450  0.64040  Biso   1.000  C
  C32      1.0000 0.83630  0.91450  0.85960  Biso   1.000  C
  H13      1.0000 0.37330  0.68100  0.34780  Biso   1.000  H
  H14      1.0000 0.12670  0.18100  0.15220  Biso   1.000  H
  H15      1.0000 0.62670  0.31900  0.65220  Biso   1.000  H
  H16      1.0000 0.87330  0.81900  0.84780  Biso   1.000  H
  H17      1.0000 0.28820  0.57630  0.42770  Biso   1.000  H
  H18      1.0000 0.21180  0.07630  0.07230  Biso   1.000  H
  H19      1.0000 0.71180  0.42370  0.57230  Biso   1.000  H
  H20      1.0000 0.78820  0.92370  0.92770  Biso   1.000  H
  H21      1.0000 0.23000  0.55810  0.30980  Biso   1.000  H
  H22      1.0000 0.27000  0.05810  0.19020  Biso   1.000  H
  H23      1.0000 0.77000  0.44190  0.69020  Biso   1.000  H
  H24      1.0000 0.73000  0.94190  0.80980  Biso   1.000  H
  H25      1.0000 0.50300  0.46700  0.29900  Biso   1.000  H
  H26      1.0000 0.99700  0.96700  0.20100  Biso   1.000  H
  H27      1.0000 0.49700  0.53300  0.70100  Biso   1.000  H
  H28      1.0000 0.00300  0.03300  0.79900  Biso   1.000  H
  H29      1.0000 0.77900  0.07000  0.10600  Biso   1.000  H
  H30      1.0000 0.72100  0.57000  0.39400  Biso   1.000  H
  H31      1.0000 0.22100  0.93000  0.89400  Biso   1.000  H
  H32      1.0000 0.27900  0.43000  0.60600  Biso   1.000  H
