data_image0
_cell_length_a       16.5302
_cell_length_b       6.5743
_cell_length_c       9.7369
_cell_angle_alpha    90
_cell_angle_beta     95.125
_cell_angle_gamma    90

_symmetry_space_group_name_H-M    "P 1"
_symmetry_int_tables_number       1

loop_
  _symmetry_equiv_pos_as_xyz
  'x, y, z'

loop_
  _atom_site_label
  _atom_site_occupancy
  _atom_site_fract_x
  _atom_site_fract_y
  _atom_site_fract_z
  _atom_site_thermal_displace_type
  _atom_site_B_iso_or_equiv
  _atom_site_type_symbol
  Br1      1.0000 0.09070  0.69270  0.24625  Biso   1.000  Br
  Br2      1.0000 0.90930  0.19270  0.25375  Biso   1.000  Br
  Br3      1.0000 0.90930  0.30730  0.75375  Biso   1.000  Br
  Br4      1.0000 0.09070  0.80730  0.74625  Biso   1.000  Br
  Cu1      1.0000 0.00000  0.00000  0.00000  Biso   1.000  Cu
  Cu2      1.0000 0.00000  0.50000  0.50000  Biso   1.000  Cu
  N1       1.0000 0.10230  0.15630  0.02300  Biso   1.000  N
  N2       1.0000 0.89770  0.65630  0.47700  Biso   1.000  N
  N3       1.0000 0.89770  0.84370  0.97700  Biso   1.000  N
  N4       1.0000 0.10230  0.34370  0.52300  Biso   1.000  N
  N5       1.0000 0.22920  0.20600  0.09380  Biso   1.000  N
  N6       1.0000 0.77080  0.70600  0.40620  Biso   1.000  N
  N7       1.0000 0.77080  0.79400  0.90620  Biso   1.000  N
  N8       1.0000 0.22920  0.29400  0.59380  Biso   1.000  N
  N9       1.0000 0.39060  0.93200  0.03770  Biso   1.000  N
  N10      1.0000 0.60940  0.43200  0.46230  Biso   1.000  N
  N11      1.0000 0.60940  0.06800  0.96230  Biso   1.000  N
  N12      1.0000 0.39060  0.56800  0.53770  Biso   1.000  N
  N13      1.0000 0.20780  0.33180  0.98630  Biso   1.000  N
  N14      1.0000 0.79220  0.83180  0.51370  Biso   1.000  N
  N15      1.0000 0.79220  0.66820  0.01370  Biso   1.000  N
  N16      1.0000 0.20780  0.16820  0.48630  Biso   1.000  N
  C1       1.0000 0.29440  0.64000  0.02880  Biso   1.000  C
  C2       1.0000 0.70560  0.14000  0.47120  Biso   1.000  C
  C3       1.0000 0.70560  0.36000  0.97120  Biso   1.000  C
  C4       1.0000 0.29440  0.86000  0.52880  Biso   1.000  C
  H1       1.0000 0.25000  0.73420  0.04720  Biso   1.000  H
  H2       1.0000 0.75000  0.23420  0.45280  Biso   1.000  H
  H3       1.0000 0.75000  0.26580  0.95280  Biso   1.000  H
  H4       1.0000 0.25000  0.76580  0.54720  Biso   1.000  H
  H5       1.0000 0.31670  0.57870  0.11710  Biso   1.000  H
  H6       1.0000 0.68330  0.07870  0.38290  Biso   1.000  H
  H7       1.0000 0.68330  0.42130  0.88290  Biso   1.000  H
  H8       1.0000 0.31670  0.92130  0.61710  Biso   1.000  H
  N17      1.0000 0.40640  0.10400  0.97620  Biso   1.000  N
  N18      1.0000 0.59360  0.60400  0.52380  Biso   1.000  N
  N19      1.0000 0.59360  0.89600  0.02380  Biso   1.000  N
  N20      1.0000 0.40640  0.39600  0.47620  Biso   1.000  N
  N21      1.0000 0.16680  0.10200  0.11320  Biso   1.000  N
  N22      1.0000 0.83320  0.60200  0.38680  Biso   1.000  N
  N23      1.0000 0.83320  0.89800  0.88680  Biso   1.000  N
  N24      1.0000 0.16680  0.39800  0.61320  Biso   1.000  N
  C5       1.0000 0.12870  0.30000  0.94720  Biso   1.000  C
  C6       1.0000 0.87130  0.80000  0.55280  Biso   1.000  C
  C7       1.0000 0.87130  0.70000  0.05280  Biso   1.000  C
  C8       1.0000 0.12870  0.20000  0.44720  Biso   1.000  C
  H9       1.0000 0.09740  0.37150  0.87610  Biso   1.000  H
  H10      1.0000 0.90260  0.87150  0.62390  Biso   1.000  H
  H11      1.0000 0.90260  0.62850  0.12390  Biso   1.000  H
  H12      1.0000 0.09740  0.12850  0.37610  Biso   1.000  H
  N25      1.0000 0.40910  0.93200  0.17540  Biso   1.000  N
  N26      1.0000 0.59090  0.43200  0.32460  Biso   1.000  N
  N27      1.0000 0.59090  0.06800  0.82460  Biso   1.000  N
  N28      1.0000 0.40910  0.56800  0.67540  Biso   1.000  N
  C9       1.0000 0.26310  0.47300  0.92680  Biso   1.000  C
  C10      1.0000 0.73690  0.97300  0.57320  Biso   1.000  C
  C11      1.0000 0.73690  0.52700  0.07320  Biso   1.000  C
  C12      1.0000 0.26310  0.02700  0.42680  Biso   1.000  C
  H13      1.0000 0.23460  0.53820  0.84440  Biso   1.000  H
  H14      1.0000 0.76540  0.03820  0.65560  Biso   1.000  H
  H15      1.0000 0.76540  0.46180  0.15560  Biso   1.000  H
  H16      1.0000 0.23460  0.96180  0.34440  Biso   1.000  H
  H17      1.0000 0.30990  0.39680  0.89660  Biso   1.000  H
  H18      1.0000 0.69010  0.89680  0.60340  Biso   1.000  H
  H19      1.0000 0.69010  0.60320  0.10340  Biso   1.000  H
  H20      1.0000 0.30990  0.10320  0.39660  Biso   1.000  H
  C13      1.0000 0.43630  0.22700  0.07500  Biso   1.000  C
  C14      1.0000 0.56370  0.72700  0.42500  Biso   1.000  C
  C15      1.0000 0.56370  0.77300  0.92500  Biso   1.000  C
  C16      1.0000 0.43630  0.27300  0.57500  Biso   1.000  C
  H21      1.0000 0.45370  0.36310  0.06470  Biso   1.000  H
  H22      1.0000 0.54630  0.86310  0.43530  Biso   1.000  H
  H23      1.0000 0.54630  0.63690  0.93530  Biso   1.000  H
  H24      1.0000 0.45370  0.13690  0.56470  Biso   1.000  H
  C17      1.0000 0.36110  0.75200  0.95920  Biso   1.000  C
  C18      1.0000 0.63890  0.25200  0.54080  Biso   1.000  C
  C19      1.0000 0.63890  0.24800  0.04080  Biso   1.000  C
  C20      1.0000 0.36110  0.74800  0.45920  Biso   1.000  C
  H25      1.0000 0.40710  0.65770  0.95000  Biso   1.000  H
  H26      1.0000 0.59290  0.15770  0.55000  Biso   1.000  H
  H27      1.0000 0.59290  0.34230  0.05000  Biso   1.000  H
  H28      1.0000 0.40710  0.84230  0.45000  Biso   1.000  H
  H29      1.0000 0.33950  0.79410  0.86550  Biso   1.000  H
  H30      1.0000 0.66050  0.29410  0.63450  Biso   1.000  H
  H31      1.0000 0.66050  0.20590  0.13450  Biso   1.000  H
  H32      1.0000 0.33950  0.70590  0.36550  Biso   1.000  H
  N29      1.0000 0.43740  0.12400  0.18900  Biso   1.000  N
  N30      1.0000 0.56260  0.62400  0.31100  Biso   1.000  N
  N31      1.0000 0.56260  0.87600  0.81100  Biso   1.000  N
  N32      1.0000 0.43740  0.37600  0.68900  Biso   1.000  N
  O1       1.0000 0.06840  0.70200  0.07620  Biso   1.000  O
  O2       1.0000 0.93160  0.20200  0.42380  Biso   1.000  O
  O3       1.0000 0.93160  0.29800  0.92380  Biso   1.000  O
  O4       1.0000 0.06840  0.79800  0.57620  Biso   1.000  O
  O5       1.0000 0.01410  0.54000  0.29660  Biso   1.000  O
  O6       1.0000 0.98590  0.04000  0.20340  Biso   1.000  O
  O7       1.0000 0.98590  0.46000  0.70340  Biso   1.000  O
  O8       1.0000 0.01410  0.96000  0.79660  Biso   1.000  O
  O9       1.0000 0.17260  0.55830  0.26880  Biso   1.000  O
  O10      1.0000 0.82740  0.05830  0.23120  Biso   1.000  O
  O11      1.0000 0.82740  0.44170  0.73120  Biso   1.000  O
  O12      1.0000 0.17260  0.94170  0.76880  Biso   1.000  O
