data_image0
_cell_length_a       15.1113
_cell_length_b       8.9694
_cell_length_c       17.7869
_cell_angle_alpha    90
_cell_angle_beta     97.542
_cell_angle_gamma    90

_symmetry_space_group_name_H-M    "P 1"
_symmetry_int_tables_number       1

loop_
  _symmetry_equiv_pos_as_xyz
  'x, y, z'

loop_
  _atom_site_label
  _atom_site_occupancy
  _atom_site_fract_x
  _atom_site_fract_y
  _atom_site_fract_z
  _atom_site_thermal_displace_type
  _atom_site_B_iso_or_equiv
  _atom_site_type_symbol
  Br1      1.0000 0.81497  0.52676  0.59630  Biso   1.000  Br
  Br2      1.0000 0.18503  0.52676  0.90370  Biso   1.000  Br
  Br3      1.0000 0.31497  0.02676  0.59630  Biso   1.000  Br
  Br4      1.0000 0.68503  0.02676  0.90370  Biso   1.000  Br
  Br5      1.0000 0.18503  0.47324  0.40370  Biso   1.000  Br
  Br6      1.0000 0.81497  0.47324  0.09630  Biso   1.000  Br
  Br7      1.0000 0.68503  0.97324  0.40370  Biso   1.000  Br
  Br8      1.0000 0.31497  0.97324  0.09630  Biso   1.000  Br
  O1       1.0000 0.76559  0.47650  0.51379  Biso   1.000  O
  O2       1.0000 0.23441  0.47650  0.98621  Biso   1.000  O
  O3       1.0000 0.26559  0.97650  0.51379  Biso   1.000  O
  O4       1.0000 0.73441  0.97650  0.98621  Biso   1.000  O
  O5       1.0000 0.23441  0.52350  0.48621  Biso   1.000  O
  O6       1.0000 0.76559  0.52350  0.01379  Biso   1.000  O
  O7       1.0000 0.73441  0.02350  0.48621  Biso   1.000  O
  O8       1.0000 0.26559  0.02350  0.01379  Biso   1.000  O
  O9       1.0000 0.75523  0.66680  0.62384  Biso   1.000  O
  O10      1.0000 0.24477  0.66680  0.87616  Biso   1.000  O
  O11      1.0000 0.25523  0.16680  0.62384  Biso   1.000  O
  O12      1.0000 0.74477  0.16680  0.87616  Biso   1.000  O
  O13      1.0000 0.24477  0.33320  0.37616  Biso   1.000  O
  O14      1.0000 0.75523  0.33320  0.12384  Biso   1.000  O
  O15      1.0000 0.74477  0.83320  0.37616  Biso   1.000  O
  O16      1.0000 0.25523  0.83320  0.12384  Biso   1.000  O
  O17      1.0000 0.90968  0.60400  0.58017  Biso   1.000  O
  O18      1.0000 0.09032  0.60400  0.91983  Biso   1.000  O
  O19      1.0000 0.40968  0.10400  0.58017  Biso   1.000  O
  O20      1.0000 0.59032  0.10400  0.91983  Biso   1.000  O
  O21      1.0000 0.09032  0.39600  0.41983  Biso   1.000  O
  O22      1.0000 0.90968  0.39600  0.08017  Biso   1.000  O
  O23      1.0000 0.59032  0.89600  0.41983  Biso   1.000  O
  O24      1.0000 0.40968  0.89600  0.08017  Biso   1.000  O
  Cu1      1.0000 0.00000  0.00000  0.50000  Biso   1.000  Cu
  Cu2      1.0000 0.00000  0.00000  0.00000  Biso   1.000  Cu
  Cu3      1.0000 0.50000  0.50000  0.50000  Biso   1.000  Cu
  Cu4      1.0000 0.50000  0.50000  0.00000  Biso   1.000  Cu
  N1       1.0000 0.06930  0.85090  0.57545  Biso   1.000  N
  N2       1.0000 0.93070  0.85090  0.92455  Biso   1.000  N
  N3       1.0000 0.56930  0.35090  0.57545  Biso   1.000  N
  N4       1.0000 0.43070  0.35090  0.92455  Biso   1.000  N
  N5       1.0000 0.93070  0.14910  0.42455  Biso   1.000  N
  N6       1.0000 0.06930  0.14910  0.07545  Biso   1.000  N
  N7       1.0000 0.43070  0.64910  0.42455  Biso   1.000  N
  N8       1.0000 0.56930  0.64910  0.07545  Biso   1.000  N
  N9       1.0000 0.33870  0.68970  0.64406  Biso   1.000  N
  N10      1.0000 0.66130  0.68970  0.85594  Biso   1.000  N
  N11      1.0000 0.83870  0.18970  0.64406  Biso   1.000  N
  N12      1.0000 0.16130  0.18970  0.85594  Biso   1.000  N
  N13      1.0000 0.66130  0.31030  0.35594  Biso   1.000  N
  N14      1.0000 0.33870  0.31030  0.14406  Biso   1.000  N
  N15      1.0000 0.16130  0.81030  0.35594  Biso   1.000  N
  N16      1.0000 0.83870  0.81030  0.14406  Biso   1.000  N
  N17      1.0000 0.39918  0.69410  0.59936  Biso   1.000  N
  N18      1.0000 0.60082  0.69410  0.90064  Biso   1.000  N
  N19      1.0000 0.89918  0.19410  0.59936  Biso   1.000  N
  N20      1.0000 0.10082  0.19410  0.90064  Biso   1.000  N
  N21      1.0000 0.60082  0.30590  0.40064  Biso   1.000  N
  N22      1.0000 0.39918  0.30590  0.09936  Biso   1.000  N
  N23      1.0000 0.10082  0.80590  0.40064  Biso   1.000  N
  N24      1.0000 0.89918  0.80590  0.09936  Biso   1.000  N
  N25      1.0000 0.42090  0.55260  0.57994  Biso   1.000  N
  N26      1.0000 0.57910  0.55260  0.92006  Biso   1.000  N
  N27      1.0000 0.92090  0.05260  0.57994  Biso   1.000  N
  N28      1.0000 0.07910  0.05260  0.92006  Biso   1.000  N
  N29      1.0000 0.57910  0.44740  0.42006  Biso   1.000  N
  N30      1.0000 0.42090  0.44740  0.07994  Biso   1.000  N
  N31      1.0000 0.07910  0.94740  0.42006  Biso   1.000  N
  N32      1.0000 0.92090  0.94740  0.07994  Biso   1.000  N
  C1       1.0000 0.37090  0.46310  0.61464  Biso   1.000  C
  C2       1.0000 0.62910  0.46310  0.88536  Biso   1.000  C
  C3       1.0000 0.87090  0.96310  0.61464  Biso   1.000  C
  C4       1.0000 0.12910  0.96310  0.88536  Biso   1.000  C
  C5       1.0000 0.62910  0.53690  0.38536  Biso   1.000  C
  C6       1.0000 0.37090  0.53690  0.11464  Biso   1.000  C
  C7       1.0000 0.12910  0.03690  0.38536  Biso   1.000  C
  C8       1.0000 0.87090  0.03690  0.11464  Biso   1.000  C
  H1       1.0000 0.37100  0.35730  0.61190  Biso   1.000  H
  H2       1.0000 0.62900  0.35730  0.88810  Biso   1.000  H
  H3       1.0000 0.87100  0.85730  0.61190  Biso   1.000  H
  H4       1.0000 0.12900  0.85730  0.88810  Biso   1.000  H
  H5       1.0000 0.62900  0.64270  0.38810  Biso   1.000  H
  H6       1.0000 0.37100  0.64270  0.11190  Biso   1.000  H
  H7       1.0000 0.12900  0.14270  0.38810  Biso   1.000  H
  H8       1.0000 0.87100  0.14270  0.11190  Biso   1.000  H
  C9       1.0000 0.24940  0.50020  0.69817  Biso   1.000  C
  C10      1.0000 0.75060  0.50020  0.80183  Biso   1.000  C
  C11      1.0000 0.74940  0.00020  0.69817  Biso   1.000  C
  C12      1.0000 0.25060  0.00020  0.80183  Biso   1.000  C
  C13      1.0000 0.75060  0.49980  0.30183  Biso   1.000  C
  C14      1.0000 0.24940  0.49980  0.19817  Biso   1.000  C
  C15      1.0000 0.25060  0.99980  0.30183  Biso   1.000  C
  C16      1.0000 0.74940  0.99980  0.19817  Biso   1.000  C
  H9       1.0000 0.24890  0.56900  0.74170  Biso   1.000  H
  H10      1.0000 0.75110  0.56900  0.75830  Biso   1.000  H
  H11      1.0000 0.74890  0.06900  0.74170  Biso   1.000  H
  H12      1.0000 0.25110  0.06900  0.75830  Biso   1.000  H
  H13      1.0000 0.75110  0.43100  0.25830  Biso   1.000  H
  H14      1.0000 0.24890  0.43100  0.24170  Biso   1.000  H
  H15      1.0000 0.25110  0.93100  0.25830  Biso   1.000  H
  H16      1.0000 0.74890  0.93100  0.24170  Biso   1.000  H
  H17      1.0000 0.26220  0.39870  0.71860  Biso   1.000  H
  H18      1.0000 0.73780  0.39870  0.78140  Biso   1.000  H
  H19      1.0000 0.76220  0.89870  0.71860  Biso   1.000  H
  H20      1.0000 0.23780  0.89870  0.78140  Biso   1.000  H
  H21      1.0000 0.73780  0.60130  0.28140  Biso   1.000  H
  H22      1.0000 0.26220  0.60130  0.21860  Biso   1.000  H
  H23      1.0000 0.23780  0.10130  0.28140  Biso   1.000  H
  H24      1.0000 0.76220  0.10130  0.21860  Biso   1.000  H
  N33      1.0000 0.32004  0.54480  0.65430  Biso   1.000  N
  N34      1.0000 0.67996  0.54480  0.84570  Biso   1.000  N
  N35      1.0000 0.82004  0.04480  0.65430  Biso   1.000  N
  N36      1.0000 0.17996  0.04480  0.84570  Biso   1.000  N
  N37      1.0000 0.67996  0.45520  0.34570  Biso   1.000  N
  N38      1.0000 0.32004  0.45520  0.15430  Biso   1.000  N
  N39      1.0000 0.17996  0.95520  0.34570  Biso   1.000  N
  N40      1.0000 0.82004  0.95520  0.15430  Biso   1.000  N
  C17      1.0000 0.09199  0.71160  0.56512  Biso   1.000  C
  C18      1.0000 0.90801  0.71160  0.93488  Biso   1.000  C
  C19      1.0000 0.59199  0.21160  0.56512  Biso   1.000  C
  C20      1.0000 0.40801  0.21160  0.93488  Biso   1.000  C
  C21      1.0000 0.90801  0.28840  0.43488  Biso   1.000  C
  C22      1.0000 0.09199  0.28840  0.06512  Biso   1.000  C
  C23      1.0000 0.40801  0.78840  0.43488  Biso   1.000  C
  C24      1.0000 0.59199  0.78840  0.06512  Biso   1.000  C
  H25      1.0000 0.08340  0.65940  0.51830  Biso   1.000  H
  H26      1.0000 0.91660  0.65940  0.98170  Biso   1.000  H
  H27      1.0000 0.58340  0.15940  0.51830  Biso   1.000  H
  H28      1.0000 0.41660  0.15940  0.98170  Biso   1.000  H
  H29      1.0000 0.91660  0.34060  0.48170  Biso   1.000  H
  H30      1.0000 0.08340  0.34060  0.01830  Biso   1.000  H
  H31      1.0000 0.41660  0.84060  0.48170  Biso   1.000  H
  H32      1.0000 0.58340  0.84060  0.01830  Biso   1.000  H
  N41      1.0000 0.12863  0.65640  0.63058  Biso   1.000  N
  N42      1.0000 0.87137  0.65640  0.86942  Biso   1.000  N
  N43      1.0000 0.62863  0.15640  0.63058  Biso   1.000  N
  N44      1.0000 0.37137  0.15640  0.86942  Biso   1.000  N
  N45      1.0000 0.87137  0.34360  0.36942  Biso   1.000  N
  N46      1.0000 0.12863  0.34360  0.13058  Biso   1.000  N
  N47      1.0000 0.37137  0.84360  0.36942  Biso   1.000  N
  N48      1.0000 0.62863  0.84360  0.13058  Biso   1.000  N
  N49      1.0000 0.09267  0.88090  0.64946  Biso   1.000  N
  N50      1.0000 0.90733  0.88090  0.85054  Biso   1.000  N
  N51      1.0000 0.59267  0.38090  0.64946  Biso   1.000  N
  N52      1.0000 0.40733  0.38090  0.85054  Biso   1.000  N
  N53      1.0000 0.90733  0.11910  0.35054  Biso   1.000  N
  N54      1.0000 0.09267  0.11910  0.14946  Biso   1.000  N
  N55      1.0000 0.40733  0.61910  0.35054  Biso   1.000  N
  N56      1.0000 0.59267  0.61910  0.14946  Biso   1.000  N
  N57      1.0000 0.12870  0.76370  0.68357  Biso   1.000  N
  N58      1.0000 0.87130  0.76370  0.81643  Biso   1.000  N
  N59      1.0000 0.62870  0.26370  0.68357  Biso   1.000  N
  N60      1.0000 0.37130  0.26370  0.81643  Biso   1.000  N
  N61      1.0000 0.87130  0.23630  0.31643  Biso   1.000  N
  N62      1.0000 0.12870  0.23630  0.18357  Biso   1.000  N
  N63      1.0000 0.37130  0.73630  0.31643  Biso   1.000  N
  N64      1.0000 0.62870  0.73630  0.18357  Biso   1.000  N
  C25      1.0000 0.15739  0.50130  0.65079  Biso   1.000  C
  C26      1.0000 0.84261  0.50130  0.84921  Biso   1.000  C
  C27      1.0000 0.65739  0.00130  0.65079  Biso   1.000  C
  C28      1.0000 0.34261  0.00130  0.84921  Biso   1.000  C
  C29      1.0000 0.84261  0.49870  0.34921  Biso   1.000  C
  C30      1.0000 0.15739  0.49870  0.15079  Biso   1.000  C
  C31      1.0000 0.34261  0.99870  0.34921  Biso   1.000  C
  C32      1.0000 0.65739  0.99870  0.15079  Biso   1.000  C
  H33      1.0000 0.16150  0.44510  0.60280  Biso   1.000  H
  H34      1.0000 0.83850  0.44510  0.89720  Biso   1.000  H
  H35      1.0000 0.66150  0.94510  0.60280  Biso   1.000  H
  H36      1.0000 0.33850  0.94510  0.89720  Biso   1.000  H
  H37      1.0000 0.83850  0.55490  0.39720  Biso   1.000  H
  H38      1.0000 0.16150  0.55490  0.10280  Biso   1.000  H
  H39      1.0000 0.33850  0.05490  0.39720  Biso   1.000  H
  H40      1.0000 0.66150  0.05490  0.10280  Biso   1.000  H
  C33      1.0000 0.08910  0.42570  0.69221  Biso   1.000  C
  C34      1.0000 0.91090  0.42570  0.80779  Biso   1.000  C
  C35      1.0000 0.58910  0.92570  0.69221  Biso   1.000  C
  C36      1.0000 0.41090  0.92570  0.80779  Biso   1.000  C
  C37      1.0000 0.91090  0.57430  0.30779  Biso   1.000  C
  C38      1.0000 0.08910  0.57430  0.19221  Biso   1.000  C
  C39      1.0000 0.41090  0.07430  0.30779  Biso   1.000  C
  C40      1.0000 0.58910  0.07430  0.19221  Biso   1.000  C
  H41      1.0000 0.08430  0.47920  0.73950  Biso   1.000  H
  H42      1.0000 0.91570  0.47920  0.76050  Biso   1.000  H
  H43      1.0000 0.58430  0.97920  0.73950  Biso   1.000  H
  H44      1.0000 0.41570  0.97920  0.76050  Biso   1.000  H
  H45      1.0000 0.91570  0.52080  0.26050  Biso   1.000  H
  H46      1.0000 0.08430  0.52080  0.23950  Biso   1.000  H
  H47      1.0000 0.41570  0.02080  0.26050  Biso   1.000  H
  H48      1.0000 0.58430  0.02080  0.23950  Biso   1.000  H
  H49      1.0000 0.10760  0.32260  0.70380  Biso   1.000  H
  H50      1.0000 0.89240  0.32260  0.79620  Biso   1.000  H
  H51      1.0000 0.60760  0.82260  0.70380  Biso   1.000  H
  H52      1.0000 0.39240  0.82260  0.79620  Biso   1.000  H
  H53      1.0000 0.89240  0.67740  0.29620  Biso   1.000  H
  H54      1.0000 0.10760  0.67740  0.20380  Biso   1.000  H
  H55      1.0000 0.39240  0.17740  0.29620  Biso   1.000  H
  H56      1.0000 0.60760  0.17740  0.20380  Biso   1.000  H
  H57      1.0000 0.03110  0.42610  0.66030  Biso   1.000  H
  H58      1.0000 0.96890  0.42610  0.83970  Biso   1.000  H
  H59      1.0000 0.53110  0.92610  0.66030  Biso   1.000  H
  H60      1.0000 0.46890  0.92610  0.83970  Biso   1.000  H
  H61      1.0000 0.96890  0.57390  0.33970  Biso   1.000  H
  H62      1.0000 0.03110  0.57390  0.16030  Biso   1.000  H
  H63      1.0000 0.46890  0.07390  0.33970  Biso   1.000  H
  H64      1.0000 0.53110  0.07390  0.16030  Biso   1.000  H
  O25      1.0000 0.91268  0.80340  0.46054  Biso   1.000  O
  O26      1.0000 0.08732  0.80340  0.03946  Biso   1.000  O
  O27      1.0000 0.41268  0.30340  0.46054  Biso   1.000  O
  O28      1.0000 0.58732  0.30340  0.03946  Biso   1.000  O
  O29      1.0000 0.08732  0.19660  0.53946  Biso   1.000  O
  O30      1.0000 0.91268  0.19660  0.96054  Biso   1.000  O
  O31      1.0000 0.58732  0.69660  0.53946  Biso   1.000  O
  O32      1.0000 0.41268  0.69660  0.96054  Biso   1.000  O
  H65      1.0000 0.90500  0.74800  0.49000  Biso   1.000  H
  H66      1.0000 0.09500  0.74800  0.01000  Biso   1.000  H
  H67      1.0000 0.40500  0.24800  0.49000  Biso   1.000  H
  H68      1.0000 0.59500  0.24800  0.01000  Biso   1.000  H
  H69      1.0000 0.09500  0.25200  0.51000  Biso   1.000  H
  H70      1.0000 0.90500  0.25200  0.99000  Biso   1.000  H
  H71      1.0000 0.59500  0.75200  0.51000  Biso   1.000  H
  H72      1.0000 0.40500  0.75200  0.99000  Biso   1.000  H
  H73      1.0000 0.86300  0.82100  0.43600  Biso   1.000  H
  H74      1.0000 0.13700  0.82100  0.06400  Biso   1.000  H
  H75      1.0000 0.36300  0.32100  0.43600  Biso   1.000  H
  H76      1.0000 0.63700  0.32100  0.06400  Biso   1.000  H
  H77      1.0000 0.13700  0.17900  0.56400  Biso   1.000  H
  H78      1.0000 0.86300  0.17900  0.93600  Biso   1.000  H
  H79      1.0000 0.63700  0.67900  0.56400  Biso   1.000  H
  H80      1.0000 0.36300  0.67900  0.93600  Biso   1.000  H
