data_image0
_cell_length_a       7.8692
_cell_length_b       8.0515
_cell_length_c       10.2521
_cell_angle_alpha    76.605
_cell_angle_beta     80.773
_cell_angle_gamma    87.471

_symmetry_space_group_name_H-M    "P 1"
_symmetry_int_tables_number       1

loop_
  _symmetry_equiv_pos_as_xyz
  'x, y, z'

loop_
  _atom_site_label
  _atom_site_occupancy
  _atom_site_fract_x
  _atom_site_fract_y
  _atom_site_fract_z
  _atom_site_thermal_displace_type
  _atom_site_B_iso_or_equiv
  _atom_site_type_symbol
  Br1      1.0000 0.04813  0.08994  0.63999  Biso   1.000  Br
  Br2      1.0000 0.95187  0.91006  0.36001  Biso   1.000  Br
  Cu1      1.0000 0.00000  0.00000  0.00000  Biso   1.000  Cu
  N1       1.0000 0.88899  0.79022  0.97193  Biso   1.000  N
  N2       1.0000 0.11101  0.20978  0.02807  Biso   1.000  N
  N3       1.0000 0.27160  0.86270  0.82575  Biso   1.000  N
  N4       1.0000 0.72840  0.13730  0.17425  Biso   1.000  N
  N5       1.0000 0.87884  0.77250  0.84823  Biso   1.000  N
  N6       1.0000 0.12116  0.22750  0.15177  Biso   1.000  N
  C1       1.0000 0.83440  0.64280  0.05839  Biso   1.000  C
  C2       1.0000 0.16560  0.35720  0.94161  Biso   1.000  C
  H1       1.0000 0.82820  0.62160  0.15410  Biso   1.000  H
  H2       1.0000 0.17180  0.37840  0.84590  Biso   1.000  H
  O1       1.0000 0.98178  0.15542  0.78176  Biso   1.000  O
  O2       1.0000 0.01822  0.84458  0.21824  Biso   1.000  O
  O3       1.0000 0.21665  0.21043  0.56487  Biso   1.000  O
  O4       1.0000 0.78335  0.78957  0.43513  Biso   1.000  O
  O5       1.0000 0.89680  0.15798  0.54547  Biso   1.000  O
  O6       1.0000 0.10320  0.84202  0.45453  Biso   1.000  O
  N7       1.0000 0.42558  0.79440  0.82503  Biso   1.000  N
  N8       1.0000 0.57442  0.20560  0.17497  Biso   1.000  N
  N9       1.0000 0.49000  0.78370  0.93922  Biso   1.000  N
  N10      1.0000 0.51000  0.21630  0.06078  Biso   1.000  N
  N11      1.0000 0.23089  0.89947  0.94615  Biso   1.000  N
  N12      1.0000 0.76911  0.10053  0.05385  Biso   1.000  N
  N13      1.0000 0.79050  0.53120  0.99359  Biso   1.000  N
  N14      1.0000 0.20950  0.46880  0.00641  Biso   1.000  N
  N15      1.0000 0.82083  0.61790  0.86479  Biso   1.000  N
  N16      1.0000 0.17917  0.38210  0.13521  Biso   1.000  N
  C3       1.0000 0.36430  0.84990  0.01386  Biso   1.000  C
  C4       1.0000 0.63570  0.15010  0.98614  Biso   1.000  C
  H3       1.0000 0.36780  0.86110  0.10360  Biso   1.000  H
  H4       1.0000 0.63220  0.13890  0.89640  Biso   1.000  H
  C5       1.0000 0.51900  0.74230  0.70511  Biso   1.000  C
  C6       1.0000 0.48100  0.25770  0.29489  Biso   1.000  C
  H5       1.0000 0.61430  0.82300  0.66300  Biso   1.000  H
  H6       1.0000 0.38570  0.17700  0.33700  Biso   1.000  H
  H7       1.0000 0.44010  0.74870  0.63800  Biso   1.000  H
  H8       1.0000 0.55990  0.25130  0.36200  Biso   1.000  H
  C7       1.0000 0.78330  0.55230  0.75059  Biso   1.000  C
  C8       1.0000 0.21670  0.44770  0.24941  Biso   1.000  C
  H9       1.0000 0.84860  0.61910  0.66530  Biso   1.000  H
  H10      1.0000 0.15140  0.38090  0.33470  Biso   1.000  H
  H11      1.0000 0.82290  0.43210  0.76180  Biso   1.000  H
  H12      1.0000 0.17710  0.56790  0.23820  Biso   1.000  H
  C9       1.0000 0.59240  0.56140  0.73910  Biso   1.000  C
  C10      1.0000 0.40760  0.43860  0.26090  Biso   1.000  C
  H13      1.0000 0.52750  0.49870  0.82610  Biso   1.000  H
  H14      1.0000 0.47250  0.50130  0.17390  Biso   1.000  H
  H15      1.0000 0.57380  0.50230  0.66800  Biso   1.000  H
  H16      1.0000 0.42620  0.49770  0.33200  Biso   1.000  H
  O7       1.0000 0.54300  0.15440  0.69325  Biso   1.000  O
  O8       1.0000 0.45700  0.84560  0.30675  Biso   1.000  O
  H17      1.0000 0.47400  0.17800  0.65500  Biso   1.000  H
  H18      1.0000 0.52600  0.82200  0.34500  Biso   1.000  H
  H19      1.0000 0.63600  0.15900  0.63400  Biso   1.000  H
  H20      1.0000 0.36400  0.84100  0.36600  Biso   1.000  H
  O9       1.0000 0.77850  0.45960  0.38102  Biso   1.000  O
  O10      1.0000 0.22150  0.54040  0.61898  Biso   1.000  O
  H21      1.0000 0.78100  0.54900  0.41400  Biso   1.000  H
  H22      1.0000 0.21900  0.45100  0.58600  Biso   1.000  H
  H23      1.0000 0.82600  0.38100  0.43200  Biso   1.000  H
  H24      1.0000 0.17400  0.61900  0.56800  Biso   1.000  H
