data_image0
_cell_length_a       14.803
_cell_length_b       11.282
_cell_length_c       39.31
_cell_angle_alpha    90
_cell_angle_beta     90
_cell_angle_gamma    90

_symmetry_space_group_name_H-M    "P 1"
_symmetry_int_tables_number       1

loop_
  _symmetry_equiv_pos_as_xyz
  'x, y, z'

loop_
  _atom_site_label
  _atom_site_occupancy
  _atom_site_fract_x
  _atom_site_fract_y
  _atom_site_fract_z
  _atom_site_thermal_displace_type
  _atom_site_B_iso_or_equiv
  _atom_site_type_symbol
  Cu1      1.0000 0.21692  0.58396  0.12368  Biso   1.000  Cu
  Cu2      1.0000 0.28308  0.41604  0.62368  Biso   1.000  Cu
  Cu3      1.0000 0.71692  0.91604  0.87632  Biso   1.000  Cu
  Cu4      1.0000 0.78308  0.08396  0.37632  Biso   1.000  Cu
  Cu5      1.0000 0.78308  0.41604  0.87632  Biso   1.000  Cu
  Cu6      1.0000 0.71692  0.58396  0.37632  Biso   1.000  Cu
  Cu7      1.0000 0.28308  0.08396  0.12368  Biso   1.000  Cu
  Cu8      1.0000 0.21692  0.91604  0.62368  Biso   1.000  Cu
  Cu9      1.0000 0.30045  0.35028  0.15953  Biso   1.000  Cu
  Cu10     1.0000 0.19955  0.64972  0.65953  Biso   1.000  Cu
  Cu11     1.0000 0.80045  0.14972  0.84047  Biso   1.000  Cu
  Cu12     1.0000 0.69955  0.85028  0.34047  Biso   1.000  Cu
  Cu13     1.0000 0.69955  0.64972  0.84047  Biso   1.000  Cu
  Cu14     1.0000 0.80045  0.35028  0.34047  Biso   1.000  Cu
  Cu15     1.0000 0.19955  0.85028  0.15953  Biso   1.000  Cu
  Cu16     1.0000 0.30045  0.14972  0.65953  Biso   1.000  Cu
  Cu17     1.0000 0.15839  0.29827  0.09383  Biso   1.000  Cu
  Cu18     1.0000 0.34161  0.70173  0.59383  Biso   1.000  Cu
  Cu19     1.0000 0.65839  0.20173  0.90617  Biso   1.000  Cu
  Cu20     1.0000 0.84161  0.79827  0.40617  Biso   1.000  Cu
  Cu21     1.0000 0.84161  0.70173  0.90617  Biso   1.000  Cu
  Cu22     1.0000 0.65839  0.29827  0.40617  Biso   1.000  Cu
  Cu23     1.0000 0.34161  0.79827  0.09383  Biso   1.000  Cu
  Cu24     1.0000 0.15839  0.20173  0.59383  Biso   1.000  Cu
  N1       1.0000 0.30830  0.46460  0.10850  Biso   1.000  N
  N2       1.0000 0.19170  0.53540  0.60850  Biso   1.000  N
  N3       1.0000 0.80830  0.03540  0.89150  Biso   1.000  N
  N4       1.0000 0.69170  0.96460  0.39150  Biso   1.000  N
  N5       1.0000 0.69170  0.53540  0.89150  Biso   1.000  N
  N6       1.0000 0.80830  0.46460  0.39150  Biso   1.000  N
  N7       1.0000 0.19170  0.96460  0.10850  Biso   1.000  N
  N8       1.0000 0.30830  0.03540  0.60850  Biso   1.000  N
  N9       1.0000 0.34240  0.46060  0.08150  Biso   1.000  N
  N10      1.0000 0.15760  0.53940  0.58150  Biso   1.000  N
  N11      1.0000 0.84240  0.03940  0.91850  Biso   1.000  N
  N12      1.0000 0.65760  0.96060  0.41850  Biso   1.000  N
  N13      1.0000 0.65760  0.53940  0.91850  Biso   1.000  N
  N14      1.0000 0.84240  0.46060  0.41850  Biso   1.000  N
  N15      1.0000 0.15760  0.96060  0.08150  Biso   1.000  N
  N16      1.0000 0.34240  0.03940  0.58150  Biso   1.000  N
  N17      1.0000 0.37170  0.45620  0.05380  Biso   1.000  N
  N18      1.0000 0.12830  0.54380  0.55380  Biso   1.000  N
  N19      1.0000 0.87170  0.04380  0.94620  Biso   1.000  N
  N20      1.0000 0.62830  0.95620  0.44620  Biso   1.000  N
  N21      1.0000 0.62830  0.54380  0.94620  Biso   1.000  N
  N22      1.0000 0.87170  0.45620  0.44620  Biso   1.000  N
  N23      1.0000 0.12830  0.95620  0.05380  Biso   1.000  N
  N24      1.0000 0.37170  0.04380  0.55380  Biso   1.000  N
  N25      1.0000 0.23020  0.49910  0.16730  Biso   1.000  N
  N26      1.0000 0.26980  0.50090  0.66730  Biso   1.000  N
  N27      1.0000 0.73020  0.00090  0.83270  Biso   1.000  N
  N28      1.0000 0.76980  0.99910  0.33270  Biso   1.000  N
  N29      1.0000 0.76980  0.50090  0.83270  Biso   1.000  N
  N30      1.0000 0.73020  0.49910  0.33270  Biso   1.000  N
  N31      1.0000 0.26980  0.99910  0.16730  Biso   1.000  N
  N32      1.0000 0.23020  0.00090  0.66730  Biso   1.000  N
  N33      1.0000 0.19280  0.52200  0.19270  Biso   1.000  N
  N34      1.0000 0.30720  0.47800  0.69270  Biso   1.000  N
  N35      1.0000 0.69280  0.97800  0.80730  Biso   1.000  N
  N36      1.0000 0.80720  0.02200  0.30730  Biso   1.000  N
  N37      1.0000 0.80720  0.47800  0.80730  Biso   1.000  N
  N38      1.0000 0.69280  0.52200  0.30730  Biso   1.000  N
  N39      1.0000 0.30720  0.02200  0.19270  Biso   1.000  N
  N40      1.0000 0.19280  0.97800  0.69270  Biso   1.000  N
  N41      1.0000 0.14470  0.54040  0.21480  Biso   1.000  N
  N42      1.0000 0.35530  0.45960  0.71480  Biso   1.000  N
  N43      1.0000 0.64470  0.95960  0.78520  Biso   1.000  N
  N44      1.0000 0.85530  0.04040  0.28520  Biso   1.000  N
  N45      1.0000 0.85530  0.45960  0.78520  Biso   1.000  N
  N46      1.0000 0.64470  0.54040  0.28520  Biso   1.000  N
  N47      1.0000 0.35530  0.04040  0.21480  Biso   1.000  N
  N48      1.0000 0.14470  0.95960  0.71480  Biso   1.000  N
  N49      1.0000 0.36810  0.20590  0.14320  Biso   1.000  N
  N50      1.0000 0.13190  0.79410  0.64320  Biso   1.000  N
  N51      1.0000 0.86810  0.29410  0.85680  Biso   1.000  N
  N52      1.0000 0.63190  0.70590  0.35680  Biso   1.000  N
  N53      1.0000 0.63190  0.79410  0.85680  Biso   1.000  N
  N54      1.0000 0.86810  0.20590  0.35680  Biso   1.000  N
  N55      1.0000 0.13190  0.70590  0.14320  Biso   1.000  N
  N56      1.0000 0.36810  0.29410  0.64320  Biso   1.000  N
  N57      1.0000 0.43970  0.19610  0.14520  Biso   1.000  N
  N58      1.0000 0.06030  0.80390  0.64520  Biso   1.000  N
  N59      1.0000 0.93970  0.30390  0.85480  Biso   1.000  N
  N60      1.0000 0.56030  0.69610  0.35480  Biso   1.000  N
  N61      1.0000 0.56030  0.80390  0.85480  Biso   1.000  N
  N62      1.0000 0.93970  0.19610  0.35480  Biso   1.000  N
  N63      1.0000 0.06030  0.69610  0.14520  Biso   1.000  N
  N64      1.0000 0.43970  0.30390  0.64520  Biso   1.000  N
  N65      1.0000 0.51630  0.18210  0.14380  Biso   1.000  N
  N66      1.0000 0.98370  0.81790  0.64380  Biso   1.000  N
  N67      1.0000 0.01630  0.31790  0.85620  Biso   1.000  N
  N68      1.0000 0.48370  0.68210  0.35620  Biso   1.000  N
  N69      1.0000 0.48370  0.81790  0.85620  Biso   1.000  N
  N70      1.0000 0.01630  0.18210  0.35620  Biso   1.000  N
  N71      1.0000 0.98370  0.68210  0.14380  Biso   1.000  N
  N72      1.0000 0.51630  0.31790  0.64380  Biso   1.000  N
  N73      1.0000 0.25970  0.18810  0.08300  Biso   1.000  N
  N74      1.0000 0.24030  0.81190  0.58300  Biso   1.000  N
  N75      1.0000 0.75970  0.31190  0.91700  Biso   1.000  N
  N76      1.0000 0.74030  0.68810  0.41700  Biso   1.000  N
  N77      1.0000 0.74030  0.81190  0.91700  Biso   1.000  N
  N78      1.0000 0.75970  0.18810  0.41700  Biso   1.000  N
  N79      1.0000 0.24030  0.68810  0.08300  Biso   1.000  N
  N80      1.0000 0.25970  0.31190  0.58300  Biso   1.000  N
  N81      1.0000 0.28490  0.16600  0.05400  Biso   1.000  N
  N82      1.0000 0.21510  0.83400  0.55400  Biso   1.000  N
  N83      1.0000 0.78490  0.33400  0.94600  Biso   1.000  N
  N84      1.0000 0.71510  0.66600  0.44600  Biso   1.000  N
  N85      1.0000 0.71510  0.83400  0.94600  Biso   1.000  N
  N86      1.0000 0.78490  0.16600  0.44600  Biso   1.000  N
  N87      1.0000 0.21510  0.66600  0.05400  Biso   1.000  N
  N88      1.0000 0.28490  0.33400  0.55400  Biso   1.000  N
  N89      1.0000 0.31010  0.14430  0.02740  Biso   1.000  N
  N90      1.0000 0.18990  0.85570  0.52740  Biso   1.000  N
  N91      1.0000 0.81010  0.35570  0.97260  Biso   1.000  N
  N92      1.0000 0.68990  0.64430  0.47260  Biso   1.000  N
  N93      1.0000 0.68990  0.85570  0.97260  Biso   1.000  N
  N94      1.0000 0.81010  0.14430  0.47260  Biso   1.000  N
  N95      1.0000 0.18990  0.64430  0.02740  Biso   1.000  N
  N96      1.0000 0.31010  0.35570  0.52740  Biso   1.000  N
  N97      1.0000 0.18790  0.26830  0.14320  Biso   1.000  N
  N98      1.0000 0.31210  0.73170  0.64320  Biso   1.000  N
  N99      1.0000 0.68790  0.23170  0.85680  Biso   1.000  N
  N100     1.0000 0.81210  0.76830  0.35680  Biso   1.000  N
  N101     1.0000 0.81210  0.73170  0.85680  Biso   1.000  N
  N102     1.0000 0.68790  0.26830  0.35680  Biso   1.000  N
  N103     1.0000 0.31210  0.76830  0.14320  Biso   1.000  N
  N104     1.0000 0.18790  0.23170  0.64320  Biso   1.000  N
  N105     1.0000 0.12540  0.26320  0.16250  Biso   1.000  N
  N106     1.0000 0.37460  0.73680  0.66250  Biso   1.000  N
  N107     1.0000 0.62540  0.23680  0.83750  Biso   1.000  N
  N108     1.0000 0.87460  0.76320  0.33750  Biso   1.000  N
  N109     1.0000 0.87460  0.73680  0.83750  Biso   1.000  N
  N110     1.0000 0.62540  0.26320  0.33750  Biso   1.000  N
  N111     1.0000 0.37460  0.76320  0.16250  Biso   1.000  N
  N112     1.0000 0.12540  0.23680  0.66250  Biso   1.000  N
  N113     1.0000 0.06730  0.25400  0.18180  Biso   1.000  N
  N114     1.0000 0.43270  0.74600  0.68180  Biso   1.000  N
  N115     1.0000 0.56730  0.24600  0.81820  Biso   1.000  N
  N116     1.0000 0.93270  0.75400  0.31820  Biso   1.000  N
  N117     1.0000 0.93270  0.74600  0.81820  Biso   1.000  N
  N118     1.0000 0.56730  0.25400  0.31820  Biso   1.000  N
  N119     1.0000 0.43270  0.75400  0.18180  Biso   1.000  N
  N120     1.0000 0.06730  0.24600  0.68180  Biso   1.000  N
  N121     1.0000 0.10280  0.45570  0.10280  Biso   1.000  N
  N122     1.0000 0.39720  0.54430  0.60280  Biso   1.000  N
  N123     1.0000 0.60280  0.04430  0.89720  Biso   1.000  N
  N124     1.0000 0.89720  0.95570  0.39720  Biso   1.000  N
  N125     1.0000 0.89720  0.54430  0.89720  Biso   1.000  N
  N126     1.0000 0.60280  0.45570  0.39720  Biso   1.000  N
  N127     1.0000 0.39720  0.95570  0.10280  Biso   1.000  N
  N128     1.0000 0.10280  0.04430  0.60280  Biso   1.000  N
  N129     1.0000 0.02890  0.47090  0.09390  Biso   1.000  N
  N130     1.0000 0.47110  0.52910  0.59390  Biso   1.000  N
  N131     1.0000 0.52890  0.02910  0.90610  Biso   1.000  N
  N132     1.0000 0.97110  0.97090  0.40610  Biso   1.000  N
  N133     1.0000 0.97110  0.52910  0.90610  Biso   1.000  N
  N134     1.0000 0.52890  0.47090  0.40610  Biso   1.000  N
  N135     1.0000 0.47110  0.97090  0.09390  Biso   1.000  N
  N136     1.0000 0.02890  0.02910  0.59390  Biso   1.000  N
  N137     1.0000 0.95540  0.48380  0.08610  Biso   1.000  N
  N138     1.0000 0.54460  0.51620  0.58610  Biso   1.000  N
  N139     1.0000 0.45540  0.01620  0.91390  Biso   1.000  N
  N140     1.0000 0.04460  0.98380  0.41390  Biso   1.000  N
  N141     1.0000 0.04460  0.51620  0.91390  Biso   1.000  N
  N142     1.0000 0.45540  0.48380  0.41390  Biso   1.000  N
  N143     1.0000 0.54460  0.98380  0.08610  Biso   1.000  N
  N144     1.0000 0.95540  0.01620  0.58610  Biso   1.000  N
  O1       1.0000 0.28170  0.29520  0.21640  Biso   1.000  O
  O2       1.0000 0.21830  0.70480  0.71640  Biso   1.000  O
  O3       1.0000 0.78170  0.20480  0.78360  Biso   1.000  O
  O4       1.0000 0.71830  0.79520  0.28360  Biso   1.000  O
  O5       1.0000 0.71830  0.70480  0.78360  Biso   1.000  O
  O6       1.0000 0.78170  0.29520  0.28360  Biso   1.000  O
  O7       1.0000 0.21830  0.79520  0.21640  Biso   1.000  O
  O8       1.0000 0.28170  0.20480  0.71640  Biso   1.000  O
  N145     1.0000 0.41240  0.41230  0.18290  Biso   1.000  N
  N146     1.0000 0.08760  0.58770  0.68290  Biso   1.000  N
  N147     1.0000 0.91240  0.08770  0.81710  Biso   1.000  N
  N148     1.0000 0.58760  0.91230  0.31710  Biso   1.000  N
  N149     1.0000 0.58760  0.58770  0.81710  Biso   1.000  N
  N150     1.0000 0.91240  0.41230  0.31710  Biso   1.000  N
  N151     1.0000 0.08760  0.91230  0.18290  Biso   1.000  N
  N152     1.0000 0.41240  0.08770  0.68290  Biso   1.000  N
  C1       1.0000 0.48110  0.45880  0.16520  Biso   1.000  C
  C2       1.0000 0.01890  0.54120  0.66520  Biso   1.000  C
  C3       1.0000 0.98110  0.04120  0.83480  Biso   1.000  C
  C4       1.0000 0.51890  0.95880  0.33480  Biso   1.000  C
  C5       1.0000 0.51890  0.54120  0.83480  Biso   1.000  C
  C6       1.0000 0.98110  0.45880  0.33480  Biso   1.000  C
  C7       1.0000 0.01890  0.95880  0.16520  Biso   1.000  C
  C8       1.0000 0.48110  0.04120  0.66520  Biso   1.000  C
  C9       1.0000 0.56710  0.47920  0.17980  Biso   1.000  C
  C10      1.0000 0.93290  0.52080  0.67980  Biso   1.000  C
  C11      1.0000 0.06710  0.02080  0.82020  Biso   1.000  C
  C12      1.0000 0.43290  0.97920  0.32020  Biso   1.000  C
  C13      1.0000 0.43290  0.52080  0.82020  Biso   1.000  C
  C14      1.0000 0.06710  0.47920  0.32020  Biso   1.000  C
  C15      1.0000 0.93290  0.97920  0.17980  Biso   1.000  C
  C16      1.0000 0.56710  0.02080  0.67980  Biso   1.000  C
  C17      1.0000 0.57880  0.44160  0.21130  Biso   1.000  C
  C18      1.0000 0.92120  0.55840  0.71130  Biso   1.000  C
  C19      1.0000 0.07880  0.05840  0.78870  Biso   1.000  C
  C20      1.0000 0.42120  0.94160  0.28870  Biso   1.000  C
  C21      1.0000 0.42120  0.55840  0.78870  Biso   1.000  C
  C22      1.0000 0.07880  0.44160  0.28870  Biso   1.000  C
  C23      1.0000 0.92120  0.94160  0.21130  Biso   1.000  C
  C24      1.0000 0.57880  0.05840  0.71130  Biso   1.000  C
  C25      1.0000 0.51070  0.39670  0.23130  Biso   1.000  C
  C26      1.0000 0.98930  0.60330  0.73130  Biso   1.000  C
  C27      1.0000 0.01070  0.10330  0.76870  Biso   1.000  C
  C28      1.0000 0.48930  0.89670  0.26870  Biso   1.000  C
  C29      1.0000 0.48930  0.60330  0.76870  Biso   1.000  C
  C30      1.0000 0.01070  0.39670  0.26870  Biso   1.000  C
  C31      1.0000 0.98930  0.89670  0.23130  Biso   1.000  C
  C32      1.0000 0.51070  0.10330  0.73130  Biso   1.000  C
  C33      1.0000 0.42380  0.38480  0.21590  Biso   1.000  C
  C34      1.0000 0.07620  0.61520  0.71590  Biso   1.000  C
  C35      1.0000 0.92380  0.11520  0.78410  Biso   1.000  C
  C36      1.0000 0.57620  0.88480  0.28410  Biso   1.000  C
  C37      1.0000 0.57620  0.61520  0.78410  Biso   1.000  C
  C38      1.0000 0.92380  0.38480  0.28410  Biso   1.000  C
  C39      1.0000 0.07620  0.88480  0.21590  Biso   1.000  C
  C40      1.0000 0.42380  0.11520  0.71590  Biso   1.000  C
  C41      1.0000 0.34300  0.33390  0.23340  Biso   1.000  C
  C42      1.0000 0.15700  0.66610  0.73340  Biso   1.000  C
  C43      1.0000 0.84300  0.16610  0.76660  Biso   1.000  C
  C44      1.0000 0.65700  0.83390  0.26660  Biso   1.000  C
  C45      1.0000 0.65700  0.66610  0.76660  Biso   1.000  C
  C46      1.0000 0.84300  0.33390  0.26660  Biso   1.000  C
  C47      1.0000 0.15700  0.83390  0.23340  Biso   1.000  C
  C48      1.0000 0.34300  0.16610  0.73340  Biso   1.000  C
  C49      1.0000 0.33390  0.33450  0.27200  Biso   1.000  C
  C50      1.0000 0.16610  0.66550  0.77200  Biso   1.000  C
  C51      1.0000 0.83390  0.16550  0.72800  Biso   1.000  C
  C52      1.0000 0.66610  0.83450  0.22800  Biso   1.000  C
  C53      1.0000 0.66610  0.66550  0.72800  Biso   1.000  C
  C54      1.0000 0.83390  0.33450  0.22800  Biso   1.000  C
  C55      1.0000 0.16610  0.83450  0.27200  Biso   1.000  C
  C56      1.0000 0.33390  0.16550  0.77200  Biso   1.000  C
  C57      1.0000 0.37130  0.42170  0.29280  Biso   1.000  C
  C58      1.0000 0.12870  0.57830  0.79280  Biso   1.000  C
  C59      1.0000 0.87130  0.07830  0.70720  Biso   1.000  C
  C60      1.0000 0.62870  0.92170  0.20720  Biso   1.000  C
  C61      1.0000 0.62870  0.57830  0.70720  Biso   1.000  C
  C62      1.0000 0.87130  0.42170  0.20720  Biso   1.000  C
  C63      1.0000 0.12870  0.92170  0.29280  Biso   1.000  C
  C64      1.0000 0.37130  0.07830  0.79280  Biso   1.000  C
  C65      1.0000 0.35420  0.42080  0.32760  Biso   1.000  C
  C66      1.0000 0.14580  0.57920  0.82760  Biso   1.000  C
  C67      1.0000 0.85420  0.07920  0.67240  Biso   1.000  C
  C68      1.0000 0.64580  0.92080  0.17240  Biso   1.000  C
  C69      1.0000 0.64580  0.57920  0.67240  Biso   1.000  C
  C70      1.0000 0.85420  0.42080  0.17240  Biso   1.000  C
  C71      1.0000 0.14580  0.92080  0.32760  Biso   1.000  C
  C72      1.0000 0.35420  0.07920  0.82760  Biso   1.000  C
  C73      1.0000 0.29950  0.33280  0.34170  Biso   1.000  C
  C74      1.0000 0.20050  0.66720  0.84170  Biso   1.000  C
  C75      1.0000 0.79950  0.16720  0.65830  Biso   1.000  C
  C76      1.0000 0.70050  0.83280  0.15830  Biso   1.000  C
  C77      1.0000 0.70050  0.66720  0.65830  Biso   1.000  C
  C78      1.0000 0.79950  0.33280  0.15830  Biso   1.000  C
  C79      1.0000 0.20050  0.83280  0.34170  Biso   1.000  C
  C80      1.0000 0.29950  0.16720  0.84170  Biso   1.000  C
  C81      1.0000 0.26200  0.24570  0.32090  Biso   1.000  C
  C82      1.0000 0.23800  0.75430  0.82090  Biso   1.000  C
  C83      1.0000 0.76200  0.25430  0.67910  Biso   1.000  C
  C84      1.0000 0.73800  0.74570  0.17910  Biso   1.000  C
  C85      1.0000 0.73800  0.75430  0.67910  Biso   1.000  C
  C86      1.0000 0.76200  0.24570  0.17910  Biso   1.000  C
  C87      1.0000 0.23800  0.74570  0.32090  Biso   1.000  C
  C88      1.0000 0.26200  0.25430  0.82090  Biso   1.000  C
  C89      1.0000 0.27920  0.24650  0.28600  Biso   1.000  C
  C90      1.0000 0.22080  0.75350  0.78600  Biso   1.000  C
  C91      1.0000 0.77920  0.25350  0.71400  Biso   1.000  C
  C92      1.0000 0.72080  0.74650  0.21400  Biso   1.000  C
  C93      1.0000 0.72080  0.75350  0.71400  Biso   1.000  C
  C94      1.0000 0.77920  0.24650  0.21400  Biso   1.000  C
  C95      1.0000 0.22080  0.74650  0.28600  Biso   1.000  C
  C96      1.0000 0.27920  0.25350  0.78600  Biso   1.000  C
  O9       1.0000 0.02960  0.18560  0.09810  Biso   1.000  O
  O10      1.0000 0.47040  0.81440  0.59810  Biso   1.000  O
  O11      1.0000 0.52960  0.31440  0.90190  Biso   1.000  O
  O12      1.0000 0.97040  0.68560  0.40190  Biso   1.000  O
  O13      1.0000 0.97040  0.81440  0.90190  Biso   1.000  O
  O14      1.0000 0.52960  0.18560  0.40190  Biso   1.000  O
  O15      1.0000 0.47040  0.68560  0.09810  Biso   1.000  O
  O16      1.0000 0.02960  0.31440  0.59810  Biso   1.000  O
  N153     1.0000 0.10910  0.29570  0.04550  Biso   1.000  N
  N154     1.0000 0.39090  0.70430  0.54550  Biso   1.000  N
  N155     1.0000 0.60910  0.20430  0.95450  Biso   1.000  N
  N156     1.0000 0.89090  0.79570  0.45450  Biso   1.000  N
  N157     1.0000 0.89090  0.70430  0.95450  Biso   1.000  N
  N158     1.0000 0.60910  0.29570  0.45450  Biso   1.000  N
  N159     1.0000 0.39090  0.79570  0.04550  Biso   1.000  N
  N160     1.0000 0.10910  0.20430  0.54550  Biso   1.000  N
  C97      1.0000 0.14580  0.35900  0.02110  Biso   1.000  C
  C98      1.0000 0.35420  0.64100  0.52110  Biso   1.000  C
  C99      1.0000 0.64580  0.14100  0.97890  Biso   1.000  C
  C100     1.0000 0.85420  0.85900  0.47890  Biso   1.000  C
  C101     1.0000 0.85420  0.64100  0.97890  Biso   1.000  C
  C102     1.0000 0.64580  0.35900  0.47890  Biso   1.000  C
  C103     1.0000 0.35420  0.85900  0.02110  Biso   1.000  C
  C104     1.0000 0.14580  0.14100  0.52110  Biso   1.000  C
  C105     1.0000 0.10670  0.37030  0.98980  Biso   1.000  C
  C106     1.0000 0.39330  0.62970  0.48980  Biso   1.000  C
  C107     1.0000 0.60670  0.12970  0.01020  Biso   1.000  C
  C108     1.0000 0.89330  0.87030  0.51020  Biso   1.000  C
  C109     1.0000 0.89330  0.62970  0.01020  Biso   1.000  C
  C110     1.0000 0.60670  0.37030  0.51020  Biso   1.000  C
  C111     1.0000 0.39330  0.87030  0.98980  Biso   1.000  C
  C112     1.0000 0.10670  0.12970  0.48980  Biso   1.000  C
  C113     1.0000 0.02850  0.31190  0.98400  Biso   1.000  C
  C114     1.0000 0.47150  0.68810  0.48400  Biso   1.000  C
  C115     1.0000 0.52850  0.18810  0.01600  Biso   1.000  C
  C116     1.0000 0.97150  0.81190  0.51600  Biso   1.000  C
  C117     1.0000 0.97150  0.68810  0.01600  Biso   1.000  C
  C118     1.0000 0.52850  0.31190  0.51600  Biso   1.000  C
  C119     1.0000 0.47150  0.81190  0.98400  Biso   1.000  C
  C120     1.0000 0.02850  0.18810  0.48400  Biso   1.000  C
  C121     1.0000 0.99040  0.24380  0.00860  Biso   1.000  C
  C122     1.0000 0.50960  0.75620  0.50860  Biso   1.000  C
  C123     1.0000 0.49040  0.25620  0.99140  Biso   1.000  C
  C124     1.0000 0.00960  0.74380  0.49140  Biso   1.000  C
  C125     1.0000 0.00960  0.75620  0.99140  Biso   1.000  C
  C126     1.0000 0.49040  0.24380  0.49140  Biso   1.000  C
  C127     1.0000 0.50960  0.74380  0.00860  Biso   1.000  C
  C128     1.0000 0.99040  0.25620  0.50860  Biso   1.000  C
  C129     1.0000 0.03140  0.23730  0.04030  Biso   1.000  C
  C130     1.0000 0.46860  0.76270  0.54030  Biso   1.000  C
  C131     1.0000 0.53140  0.26270  0.95970  Biso   1.000  C
  C132     1.0000 0.96860  0.73730  0.45970  Biso   1.000  C
  C133     1.0000 0.96860  0.76270  0.95970  Biso   1.000  C
  C134     1.0000 0.53140  0.23730  0.45970  Biso   1.000  C
  C135     1.0000 0.46860  0.73730  0.04030  Biso   1.000  C
  C136     1.0000 0.03140  0.26270  0.54030  Biso   1.000  C
  C137     1.0000 0.99490  0.17170  0.06920  Biso   1.000  C
  C138     1.0000 0.50510  0.82830  0.56920  Biso   1.000  C
  C139     1.0000 0.49490  0.32830  0.93080  Biso   1.000  C
  C140     1.0000 0.00510  0.67170  0.43080  Biso   1.000  C
  C141     1.0000 0.00510  0.82830  0.93080  Biso   1.000  C
  C142     1.0000 0.49490  0.17170  0.43080  Biso   1.000  C
  C143     1.0000 0.50510  0.67170  0.06920  Biso   1.000  C
  C144     1.0000 0.99490  0.32830  0.56920  Biso   1.000  C
  C145     1.0000 0.91300  0.09710  0.06620  Biso   1.000  C
  C146     1.0000 0.58700  0.90290  0.56620  Biso   1.000  C
  C147     1.0000 0.41300  0.40290  0.93380  Biso   1.000  C
  C148     1.0000 0.08700  0.59710  0.43380  Biso   1.000  C
  C149     1.0000 0.08700  0.90290  0.93380  Biso   1.000  C
  C150     1.0000 0.41300  0.09710  0.43380  Biso   1.000  C
  C151     1.0000 0.58700  0.59710  0.06620  Biso   1.000  C
  C152     1.0000 0.91300  0.40290  0.56620  Biso   1.000  C
  C153     1.0000 0.90380  0.01300  0.04050  Biso   1.000  C
  C154     1.0000 0.59620  0.98700  0.54050  Biso   1.000  C
  C155     1.0000 0.40380  0.48700  0.95950  Biso   1.000  C
  C156     1.0000 0.09620  0.51300  0.45950  Biso   1.000  C
  C157     1.0000 0.09620  0.98700  0.95950  Biso   1.000  C
  C158     1.0000 0.40380  0.01300  0.45950  Biso   1.000  C
  C159     1.0000 0.59620  0.51300  0.04050  Biso   1.000  C
  C160     1.0000 0.90380  0.48700  0.54050  Biso   1.000  C
  C161     1.0000 0.82730  0.94090  0.03930  Biso   1.000  C
  C162     1.0000 0.67270  0.05910  0.53930  Biso   1.000  C
  C163     1.0000 0.32730  0.55910  0.96070  Biso   1.000  C
  C164     1.0000 0.17270  0.44090  0.46070  Biso   1.000  C
  C165     1.0000 0.17270  0.05910  0.96070  Biso   1.000  C
  C166     1.0000 0.32730  0.94090  0.46070  Biso   1.000  C
  C167     1.0000 0.67270  0.44090  0.03930  Biso   1.000  C
  C168     1.0000 0.82730  0.55910  0.53930  Biso   1.000  C
  C169     1.0000 0.75990  0.95310  0.06380  Biso   1.000  C
  C170     1.0000 0.74010  0.04690  0.56380  Biso   1.000  C
  C171     1.0000 0.25990  0.54690  0.93620  Biso   1.000  C
  C172     1.0000 0.24010  0.45310  0.43620  Biso   1.000  C
  C173     1.0000 0.24010  0.04690  0.93620  Biso   1.000  C
  C174     1.0000 0.25990  0.95310  0.43620  Biso   1.000  C
  C175     1.0000 0.74010  0.45310  0.06380  Biso   1.000  C
  C176     1.0000 0.75990  0.54690  0.56380  Biso   1.000  C
  C177     1.0000 0.76900  0.03730  0.08960  Biso   1.000  C
  C178     1.0000 0.73100  0.96270  0.58960  Biso   1.000  C
  C179     1.0000 0.26900  0.46270  0.91040  Biso   1.000  C
  C180     1.0000 0.23100  0.53730  0.41040  Biso   1.000  C
  C181     1.0000 0.23100  0.96270  0.91040  Biso   1.000  C
  C182     1.0000 0.26900  0.03730  0.41040  Biso   1.000  C
  C183     1.0000 0.73100  0.53730  0.08960  Biso   1.000  C
  C184     1.0000 0.76900  0.46270  0.58960  Biso   1.000  C
  C185     1.0000 0.84560  0.10930  0.09080  Biso   1.000  C
  C186     1.0000 0.65440  0.89070  0.59080  Biso   1.000  C
  C187     1.0000 0.34560  0.39070  0.90920  Biso   1.000  C
  C188     1.0000 0.15440  0.60930  0.40920  Biso   1.000  C
  C189     1.0000 0.15440  0.89070  0.90920  Biso   1.000  C
  C190     1.0000 0.34560  0.10930  0.40920  Biso   1.000  C
  C191     1.0000 0.65440  0.60930  0.09080  Biso   1.000  C
  C192     1.0000 0.84560  0.39070  0.59080  Biso   1.000  C
  H1       1.0000 0.47190  0.47900  0.14170  Biso   1.000  H
  H2       1.0000 0.02810  0.52100  0.64170  Biso   1.000  H
  H3       1.0000 0.97190  0.02100  0.85830  Biso   1.000  H
  H4       1.0000 0.52810  0.97900  0.35830  Biso   1.000  H
  H5       1.0000 0.52810  0.52100  0.85830  Biso   1.000  H
  H6       1.0000 0.97190  0.47900  0.35830  Biso   1.000  H
  H7       1.0000 0.02810  0.97900  0.14170  Biso   1.000  H
  H8       1.0000 0.47190  0.02100  0.64170  Biso   1.000  H
  H9       1.0000 0.61330  0.52030  0.16740  Biso   1.000  H
  H10      1.0000 0.88670  0.47970  0.66740  Biso   1.000  H
  H11      1.0000 0.11330  0.97970  0.83260  Biso   1.000  H
  H12      1.0000 0.38670  0.02030  0.33260  Biso   1.000  H
  H13      1.0000 0.38670  0.47970  0.83260  Biso   1.000  H
  H14      1.0000 0.11330  0.52030  0.33260  Biso   1.000  H
  H15      1.0000 0.88670  0.02030  0.16740  Biso   1.000  H
  H16      1.0000 0.61330  0.97970  0.66740  Biso   1.000  H
  H17      1.0000 0.63900  0.44290  0.22030  Biso   1.000  H
  H18      1.0000 0.86100  0.55710  0.72030  Biso   1.000  H
  H19      1.0000 0.13900  0.05710  0.77970  Biso   1.000  H
  H20      1.0000 0.36100  0.94290  0.27970  Biso   1.000  H
  H21      1.0000 0.36100  0.55710  0.77970  Biso   1.000  H
  H22      1.0000 0.13900  0.44290  0.27970  Biso   1.000  H
  H23      1.0000 0.86100  0.94290  0.22030  Biso   1.000  H
  H24      1.0000 0.63900  0.05710  0.72030  Biso   1.000  H
  H25      1.0000 0.51980  0.37690  0.25480  Biso   1.000  H
  H26      1.0000 0.98020  0.62310  0.75480  Biso   1.000  H
  H27      1.0000 0.01980  0.12310  0.74520  Biso   1.000  H
  H28      1.0000 0.48020  0.87690  0.24520  Biso   1.000  H
  H29      1.0000 0.48020  0.62310  0.74520  Biso   1.000  H
  H30      1.0000 0.01980  0.37690  0.24520  Biso   1.000  H
  H31      1.0000 0.98020  0.87690  0.25480  Biso   1.000  H
  H32      1.0000 0.51980  0.12310  0.75480  Biso   1.000  H
  H33      1.0000 0.40900  0.48220  0.28310  Biso   1.000  H
  H34      1.0000 0.09100  0.51780  0.78310  Biso   1.000  H
  H35      1.0000 0.90900  0.01780  0.71690  Biso   1.000  H
  H36      1.0000 0.59100  0.98220  0.21690  Biso   1.000  H
  H37      1.0000 0.59100  0.51780  0.71690  Biso   1.000  H
  H38      1.0000 0.90900  0.48220  0.21690  Biso   1.000  H
  H39      1.0000 0.09100  0.98220  0.28310  Biso   1.000  H
  H40      1.0000 0.40900  0.01780  0.78310  Biso   1.000  H
  H41      1.0000 0.38000  0.48080  0.34200  Biso   1.000  H
  H42      1.0000 0.12000  0.51920  0.84200  Biso   1.000  H
  H43      1.0000 0.88000  0.01920  0.65800  Biso   1.000  H
  H44      1.0000 0.62000  0.98080  0.15800  Biso   1.000  H
  H45      1.0000 0.62000  0.51920  0.65800  Biso   1.000  H
  H46      1.0000 0.88000  0.48080  0.15800  Biso   1.000  H
  H47      1.0000 0.12000  0.98080  0.34200  Biso   1.000  H
  H48      1.0000 0.38000  0.01920  0.84200  Biso   1.000  H
  H49      1.0000 0.28760  0.33230  0.36580  Biso   1.000  H
  H50      1.0000 0.21240  0.66770  0.86580  Biso   1.000  H
  H51      1.0000 0.78760  0.16770  0.63420  Biso   1.000  H
  H52      1.0000 0.71240  0.83230  0.13420  Biso   1.000  H
  H53      1.0000 0.71240  0.66770  0.63420  Biso   1.000  H
  H54      1.0000 0.78760  0.33230  0.13420  Biso   1.000  H
  H55      1.0000 0.21240  0.83230  0.36580  Biso   1.000  H
  H56      1.0000 0.28760  0.16770  0.86580  Biso   1.000  H
  H57      1.0000 0.22430  0.18510  0.33060  Biso   1.000  H
  H58      1.0000 0.27570  0.81490  0.83060  Biso   1.000  H
  H59      1.0000 0.72430  0.31490  0.66940  Biso   1.000  H
  H60      1.0000 0.77570  0.68510  0.16940  Biso   1.000  H
  H61      1.0000 0.77570  0.81490  0.66940  Biso   1.000  H
  H62      1.0000 0.72430  0.18510  0.16940  Biso   1.000  H
  H63      1.0000 0.27570  0.68510  0.33060  Biso   1.000  H
  H64      1.0000 0.22430  0.31490  0.83060  Biso   1.000  H
  H65      1.0000 0.25340  0.18650  0.27170  Biso   1.000  H
  H66      1.0000 0.24660  0.81350  0.77170  Biso   1.000  H
  H67      1.0000 0.75340  0.31350  0.72830  Biso   1.000  H
  H68      1.0000 0.74660  0.68650  0.22830  Biso   1.000  H
  H69      1.0000 0.74660  0.81350  0.72830  Biso   1.000  H
  H70      1.0000 0.75340  0.18650  0.22830  Biso   1.000  H
  H71      1.0000 0.24660  0.68650  0.27170  Biso   1.000  H
  H72      1.0000 0.25340  0.31350  0.77170  Biso   1.000  H
  H73      1.0000 0.20210  0.39840  0.02550  Biso   1.000  H
  H74      1.0000 0.29790  0.60160  0.52550  Biso   1.000  H
  H75      1.0000 0.70210  0.10160  0.97450  Biso   1.000  H
  H76      1.0000 0.79790  0.89840  0.47450  Biso   1.000  H
  H77      1.0000 0.79790  0.60160  0.97450  Biso   1.000  H
  H78      1.0000 0.70210  0.39840  0.47450  Biso   1.000  H
  H79      1.0000 0.29790  0.89840  0.02550  Biso   1.000  H
  H80      1.0000 0.20210  0.10160  0.52550  Biso   1.000  H
  H81      1.0000 0.13470  0.41740  0.97230  Biso   1.000  H
  H82      1.0000 0.36530  0.58260  0.47230  Biso   1.000  H
  H83      1.0000 0.63470  0.08260  0.02770  Biso   1.000  H
  H84      1.0000 0.86530  0.91740  0.52770  Biso   1.000  H
  H85      1.0000 0.86530  0.58260  0.02770  Biso   1.000  H
  H86      1.0000 0.63470  0.41740  0.52770  Biso   1.000  H
  H87      1.0000 0.36530  0.91740  0.97230  Biso   1.000  H
  H88      1.0000 0.13470  0.08260  0.47230  Biso   1.000  H
  H89      1.0000 0.99870  0.31940  0.96240  Biso   1.000  H
  H90      1.0000 0.50130  0.68060  0.46240  Biso   1.000  H
  H91      1.0000 0.49870  0.18060  0.03760  Biso   1.000  H
  H92      1.0000 0.00130  0.81940  0.53760  Biso   1.000  H
  H93      1.0000 0.00130  0.68060  0.03760  Biso   1.000  H
  H94      1.0000 0.49870  0.31940  0.53760  Biso   1.000  H
  H95      1.0000 0.50130  0.81940  0.96240  Biso   1.000  H
  H96      1.0000 0.99870  0.18060  0.46240  Biso   1.000  H
  H97      1.0000 0.93550  0.20090  0.00430  Biso   1.000  H
  H98      1.0000 0.56450  0.79910  0.50430  Biso   1.000  H
  H99      1.0000 0.43550  0.29910  0.99570  Biso   1.000  H
  H100     1.0000 0.06450  0.70090  0.49570  Biso   1.000  H
  H101     1.0000 0.06450  0.79910  0.99570  Biso   1.000  H
  H102     1.0000 0.43550  0.20090  0.49570  Biso   1.000  H
  H103     1.0000 0.56450  0.70090  0.00430  Biso   1.000  H
  H104     1.0000 0.93550  0.29910  0.50430  Biso   1.000  H
  H105     1.0000 0.95020  0.00460  0.02360  Biso   1.000  H
  H106     1.0000 0.54980  0.99540  0.52360  Biso   1.000  H
  H107     1.0000 0.45020  0.49540  0.97640  Biso   1.000  H
  H108     1.0000 0.04980  0.50460  0.47640  Biso   1.000  H
  H109     1.0000 0.04980  0.99540  0.97640  Biso   1.000  H
  H110     1.0000 0.45020  0.00460  0.47640  Biso   1.000  H
  H111     1.0000 0.54980  0.50460  0.02360  Biso   1.000  H
  H112     1.0000 0.95020  0.49540  0.52360  Biso   1.000  H
  H113     1.0000 0.82100  0.88300  0.02150  Biso   1.000  H
  H114     1.0000 0.67900  0.11700  0.52150  Biso   1.000  H
  H115     1.0000 0.32100  0.61700  0.97850  Biso   1.000  H
  H116     1.0000 0.17900  0.38300  0.47850  Biso   1.000  H
  H117     1.0000 0.17900  0.11700  0.97850  Biso   1.000  H
  H118     1.0000 0.32100  0.88300  0.47850  Biso   1.000  H
  H119     1.0000 0.67900  0.38300  0.02150  Biso   1.000  H
  H120     1.0000 0.82100  0.61700  0.52150  Biso   1.000  H
  H121     1.0000 0.70720  0.90360  0.06300  Biso   1.000  H
  H122     1.0000 0.79280  0.09640  0.56300  Biso   1.000  H
  H123     1.0000 0.20720  0.59640  0.93700  Biso   1.000  H
  H124     1.0000 0.29280  0.40360  0.43700  Biso   1.000  H
  H125     1.0000 0.29280  0.09640  0.93700  Biso   1.000  H
  H126     1.0000 0.20720  0.90360  0.43700  Biso   1.000  H
  H127     1.0000 0.79280  0.40360  0.06300  Biso   1.000  H
  H128     1.0000 0.70720  0.59640  0.56300  Biso   1.000  H
  H129     1.0000 0.72270  0.04570  0.10650  Biso   1.000  H
  H130     1.0000 0.77730  0.95430  0.60650  Biso   1.000  H
  H131     1.0000 0.22270  0.45430  0.89350  Biso   1.000  H
  H132     1.0000 0.27730  0.54570  0.39350  Biso   1.000  H
  H133     1.0000 0.27730  0.95430  0.89350  Biso   1.000  H
  H134     1.0000 0.22270  0.04570  0.39350  Biso   1.000  H
  H135     1.0000 0.77730  0.54570  0.10650  Biso   1.000  H
  H136     1.0000 0.72270  0.45430  0.60650  Biso   1.000  H
  H137     1.0000 0.85190  0.16730  0.10850  Biso   1.000  H
  H138     1.0000 0.64810  0.83270  0.60850  Biso   1.000  H
  H139     1.0000 0.35190  0.33270  0.89150  Biso   1.000  H
  H140     1.0000 0.14810  0.66730  0.39150  Biso   1.000  H
  H141     1.0000 0.14810  0.83270  0.89150  Biso   1.000  H
  H142     1.0000 0.35190  0.16730  0.39150  Biso   1.000  H
  H143     1.0000 0.64810  0.66730  0.10850  Biso   1.000  H
  H144     1.0000 0.85190  0.33270  0.60850  Biso   1.000  H
