data_image0
_cell_length_a       10.5446
_cell_length_b       6.8317
_cell_length_c       9.2634
_cell_angle_alpha    90
_cell_angle_beta     103.055
_cell_angle_gamma    90

_symmetry_space_group_name_H-M    "P 1"
_symmetry_int_tables_number       1

loop_
  _symmetry_equiv_pos_as_xyz
  'x, y, z'

loop_
  _atom_site_label
  _atom_site_occupancy
  _atom_site_fract_x
  _atom_site_fract_y
  _atom_site_fract_z
  _atom_site_thermal_displace_type
  _atom_site_B_iso_or_equiv
  _atom_site_type_symbol
  Br1      1.0000 0.14521  0.80999  0.30919  Biso   1.000  Br
  Br2      1.0000 0.85479  0.30999  0.19081  Biso   1.000  Br
  Br3      1.0000 0.85479  0.19001  0.69081  Biso   1.000  Br
  Br4      1.0000 0.14521  0.69001  0.80919  Biso   1.000  Br
  Cu1      1.0000 0.00000  0.00000  0.00000  Biso   1.000  Cu
  Cu2      1.0000 0.00000  0.50000  0.50000  Biso   1.000  Cu
  O1       1.0000 0.02550  0.96060  0.21960  Biso   1.000  O
  O2       1.0000 0.97450  0.46060  0.28040  Biso   1.000  O
  O3       1.0000 0.97450  0.03940  0.78040  Biso   1.000  O
  O4       1.0000 0.02550  0.53940  0.71960  Biso   1.000  O
  N1       1.0000 0.26930  0.08790  0.97330  Biso   1.000  N
  N2       1.0000 0.73070  0.58790  0.52670  Biso   1.000  N
  N3       1.0000 0.73070  0.91210  0.02670  Biso   1.000  N
  N4       1.0000 0.26930  0.41210  0.47330  Biso   1.000  N
  O5       1.0000 0.10900  0.79250  0.47310  Biso   1.000  O
  O6       1.0000 0.89100  0.29250  0.02690  Biso   1.000  O
  O7       1.0000 0.89100  0.20750  0.52690  Biso   1.000  O
  O8       1.0000 0.10900  0.70750  0.97310  Biso   1.000  O
  N5       1.0000 0.16680  0.14610  0.03040  Biso   1.000  N
  N6       1.0000 0.83320  0.64610  0.46960  Biso   1.000  N
  N7       1.0000 0.83320  0.85390  0.96960  Biso   1.000  N
  N8       1.0000 0.16680  0.35390  0.53040  Biso   1.000  N
  N9       1.0000 0.36830  0.20010  0.02260  Biso   1.000  N
  N10      1.0000 0.63170  0.70010  0.47740  Biso   1.000  N
  N11      1.0000 0.63170  0.79990  0.97740  Biso   1.000  N
  N12      1.0000 0.36830  0.29990  0.52260  Biso   1.000  N
  O9       1.0000 0.27760  0.93960  0.33360  Biso   1.000  O
  O10      1.0000 0.72240  0.43960  0.16640  Biso   1.000  O
  O11      1.0000 0.72240  0.06040  0.66640  Biso   1.000  O
  O12      1.0000 0.27760  0.56040  0.83360  Biso   1.000  O
  N13      1.0000 0.33060  0.33260  0.11350  Biso   1.000  N
  N14      1.0000 0.66940  0.83260  0.38650  Biso   1.000  N
  N15      1.0000 0.66940  0.66740  0.88650  Biso   1.000  N
  N16      1.0000 0.33060  0.16740  0.61350  Biso   1.000  N
  C1       1.0000 0.41650  0.49010  0.18100  Biso   1.000  C
  C2       1.0000 0.58350  0.99010  0.31900  Biso   1.000  C
  C3       1.0000 0.58350  0.50990  0.81900  Biso   1.000  C
  C4       1.0000 0.41650  0.00990  0.68100  Biso   1.000  C
  H1       1.0000 0.38980  0.61240  0.12750  Biso   1.000  H
  H2       1.0000 0.61020  0.11240  0.37250  Biso   1.000  H
  H3       1.0000 0.61020  0.38760  0.87250  Biso   1.000  H
  H4       1.0000 0.38980  0.88760  0.62750  Biso   1.000  H
  H5       1.0000 0.50620  0.45890  0.17640  Biso   1.000  H
  H6       1.0000 0.49380  0.95890  0.32360  Biso   1.000  H
  H7       1.0000 0.49380  0.54110  0.82360  Biso   1.000  H
  H8       1.0000 0.50620  0.04110  0.67640  Biso   1.000  H
  H9       1.0000 0.41140  0.50520  0.28480  Biso   1.000  H
  H10      1.0000 0.58860  0.00520  0.21520  Biso   1.000  H
  H11      1.0000 0.58860  0.49480  0.71520  Biso   1.000  H
  H12      1.0000 0.41140  0.99480  0.78480  Biso   1.000  H
  C5       1.0000 0.20740  0.29820  0.11570  Biso   1.000  C
  C6       1.0000 0.79260  0.79820  0.38430  Biso   1.000  C
  C7       1.0000 0.79260  0.70180  0.88430  Biso   1.000  C
  C8       1.0000 0.20740  0.20180  0.61570  Biso   1.000  C
  H13      1.0000 0.15690  0.37090  0.16980  Biso   1.000  H
  H14      1.0000 0.84310  0.87090  0.33020  Biso   1.000  H
  H15      1.0000 0.84310  0.62910  0.83020  Biso   1.000  H
  H16      1.0000 0.15690  0.12910  0.66980  Biso   1.000  H
