data_image0
_cell_length_a       13.7831
_cell_length_b       15.7896
_cell_length_c       15.4202
_cell_angle_alpha    90
_cell_angle_beta     91.373
_cell_angle_gamma    90

_symmetry_space_group_name_H-M    "P 1"
_symmetry_int_tables_number       1

loop_
  _symmetry_equiv_pos_as_xyz
  'x, y, z'

loop_
  _atom_site_label
  _atom_site_occupancy
  _atom_site_fract_x
  _atom_site_fract_y
  _atom_site_fract_z
  _atom_site_thermal_displace_type
  _atom_site_B_iso_or_equiv
  _atom_site_type_symbol
  Cu1      1.0000 0.00000  0.00000  0.50000  Biso   1.000  Cu
  Cu2      1.0000 0.00000  0.00000  0.00000  Biso   1.000  Cu
  Cu3      1.0000 0.50000  0.50000  0.50000  Biso   1.000  Cu
  Cu4      1.0000 0.50000  0.50000  0.00000  Biso   1.000  Cu
  Cu5      1.0000 0.00000  0.99030  0.75000  Biso   1.000  Cu
  Cu6      1.0000 0.50000  0.49030  0.75000  Biso   1.000  Cu
  Cu7      1.0000 0.00000  0.00970  0.25000  Biso   1.000  Cu
  Cu8      1.0000 0.50000  0.50970  0.25000  Biso   1.000  Cu
  N1       1.0000 0.72160  0.98880  0.39810  Biso   1.000  N
  N2       1.0000 0.27840  0.98880  0.10190  Biso   1.000  N
  N3       1.0000 0.22160  0.48880  0.39810  Biso   1.000  N
  N4       1.0000 0.77840  0.48880  0.10190  Biso   1.000  N
  N5       1.0000 0.27840  0.01120  0.60190  Biso   1.000  N
  N6       1.0000 0.72160  0.01120  0.89810  Biso   1.000  N
  N7       1.0000 0.77840  0.51120  0.60190  Biso   1.000  N
  N8       1.0000 0.22160  0.51120  0.89810  Biso   1.000  N
  C1       1.0000 0.78600  0.98390  0.46420  Biso   1.000  C
  C2       1.0000 0.21400  0.98390  0.03580  Biso   1.000  C
  C3       1.0000 0.28600  0.48390  0.46420  Biso   1.000  C
  C4       1.0000 0.71400  0.48390  0.03580  Biso   1.000  C
  C5       1.0000 0.21400  0.01610  0.53580  Biso   1.000  C
  C6       1.0000 0.78600  0.01610  0.96420  Biso   1.000  C
  C7       1.0000 0.71400  0.51610  0.53580  Biso   1.000  C
  C8       1.0000 0.28600  0.51610  0.96420  Biso   1.000  C
  H1       1.0000 0.77170  0.97380  0.52320  Biso   1.000  H
  H2       1.0000 0.22830  0.97380  0.97680  Biso   1.000  H
  H3       1.0000 0.27170  0.47380  0.52320  Biso   1.000  H
  H4       1.0000 0.72830  0.47380  0.97680  Biso   1.000  H
  H5       1.0000 0.22830  0.02620  0.47680  Biso   1.000  H
  H6       1.0000 0.77170  0.02620  0.02320  Biso   1.000  H
  H7       1.0000 0.72830  0.52620  0.47680  Biso   1.000  H
  H8       1.0000 0.27170  0.52620  0.02320  Biso   1.000  H
  N9       1.0000 0.94470  0.89350  0.58760  Biso   1.000  N
  N10      1.0000 0.05530  0.89350  0.91240  Biso   1.000  N
  N11      1.0000 0.44470  0.39350  0.58760  Biso   1.000  N
  N12      1.0000 0.55530  0.39350  0.91240  Biso   1.000  N
  N13      1.0000 0.05530  0.10650  0.41240  Biso   1.000  N
  N14      1.0000 0.94470  0.10650  0.08760  Biso   1.000  N
  N15      1.0000 0.55530  0.60650  0.41240  Biso   1.000  N
  N16      1.0000 0.44470  0.60650  0.08760  Biso   1.000  N
  N17      1.0000 0.94130  0.08630  0.58330  Biso   1.000  N
  N18      1.0000 0.05870  0.08630  0.91670  Biso   1.000  N
  N19      1.0000 0.44130  0.58630  0.58330  Biso   1.000  N
  N20      1.0000 0.55870  0.58630  0.91670  Biso   1.000  N
  N21      1.0000 0.05870  0.91370  0.41670  Biso   1.000  N
  N22      1.0000 0.94130  0.91370  0.08330  Biso   1.000  N
  N23      1.0000 0.55870  0.41370  0.41670  Biso   1.000  N
  N24      1.0000 0.44130  0.41370  0.08330  Biso   1.000  N
  N25      1.0000 0.94040  0.08300  0.67370  Biso   1.000  N
  N26      1.0000 0.05960  0.08300  0.82630  Biso   1.000  N
  N27      1.0000 0.44040  0.58300  0.67370  Biso   1.000  N
  N28      1.0000 0.55960  0.58300  0.82630  Biso   1.000  N
  N29      1.0000 0.05960  0.91700  0.32630  Biso   1.000  N
  N30      1.0000 0.94040  0.91700  0.17370  Biso   1.000  N
  N31      1.0000 0.55960  0.41700  0.32630  Biso   1.000  N
  N32      1.0000 0.44040  0.41700  0.17370  Biso   1.000  N
  C9       1.0000 0.90260  0.82320  0.56500  Biso   1.000  C
  C10      1.0000 0.09740  0.82320  0.93500  Biso   1.000  C
  C11      1.0000 0.40260  0.32320  0.56500  Biso   1.000  C
  C12      1.0000 0.59740  0.32320  0.93500  Biso   1.000  C
  C13      1.0000 0.09740  0.17680  0.43500  Biso   1.000  C
  C14      1.0000 0.90260  0.17680  0.06500  Biso   1.000  C
  C15      1.0000 0.59740  0.67680  0.43500  Biso   1.000  C
  C16      1.0000 0.40260  0.67680  0.06500  Biso   1.000  C
  H9       1.0000 0.89650  0.80310  0.50710  Biso   1.000  H
  H10      1.0000 0.10350  0.80310  0.99290  Biso   1.000  H
  H11      1.0000 0.39650  0.30310  0.50710  Biso   1.000  H
  H12      1.0000 0.60350  0.30310  0.99290  Biso   1.000  H
  H13      1.0000 0.10350  0.19690  0.49290  Biso   1.000  H
  H14      1.0000 0.89650  0.19690  0.00710  Biso   1.000  H
  H15      1.0000 0.60350  0.69690  0.49290  Biso   1.000  H
  H16      1.0000 0.39650  0.69690  0.00710  Biso   1.000  H
  N33      1.0000 0.81520  0.70620  0.63200  Biso   1.000  N
  N34      1.0000 0.18480  0.70620  0.86800  Biso   1.000  N
  N35      1.0000 0.31520  0.20620  0.63200  Biso   1.000  N
  N36      1.0000 0.68480  0.20620  0.86800  Biso   1.000  N
  N37      1.0000 0.18480  0.29380  0.36800  Biso   1.000  N
  N38      1.0000 0.81520  0.29380  0.13200  Biso   1.000  N
  N39      1.0000 0.68480  0.79380  0.36800  Biso   1.000  N
  N40      1.0000 0.31520  0.79380  0.13200  Biso   1.000  N
  N41      1.0000 0.86320  0.01000  0.34400  Biso   1.000  N
  N42      1.0000 0.13680  0.01000  0.15600  Biso   1.000  N
  N43      1.0000 0.36320  0.51000  0.34400  Biso   1.000  N
  N44      1.0000 0.63680  0.51000  0.15600  Biso   1.000  N
  N45      1.0000 0.13680  0.99000  0.65600  Biso   1.000  N
  N46      1.0000 0.86320  0.99000  0.84400  Biso   1.000  N
  N47      1.0000 0.63680  0.49000  0.65600  Biso   1.000  N
  N48      1.0000 0.36320  0.49000  0.84400  Biso   1.000  N
  N49      1.0000 0.87550  0.20150  0.63140  Biso   1.000  N
  N50      1.0000 0.12450  0.20150  0.86860  Biso   1.000  N
  N51      1.0000 0.37550  0.70150  0.63140  Biso   1.000  N
  N52      1.0000 0.62450  0.70150  0.86860  Biso   1.000  N
  N53      1.0000 0.12450  0.79850  0.36860  Biso   1.000  N
  N54      1.0000 0.87550  0.79850  0.13140  Biso   1.000  N
  N55      1.0000 0.62450  0.29850  0.36860  Biso   1.000  N
  N56      1.0000 0.37550  0.29850  0.13140  Biso   1.000  N
  N57      1.0000 0.86890  0.78270  0.63450  Biso   1.000  N
  N58      1.0000 0.13110  0.78270  0.86550  Biso   1.000  N
  N59      1.0000 0.36890  0.28270  0.63450  Biso   1.000  N
  N60      1.0000 0.63110  0.28270  0.86550  Biso   1.000  N
  N61      1.0000 0.13110  0.21730  0.36550  Biso   1.000  N
  N62      1.0000 0.86890  0.21730  0.13450  Biso   1.000  N
  N63      1.0000 0.63110  0.71730  0.36550  Biso   1.000  N
  N64      1.0000 0.36890  0.71730  0.13450  Biso   1.000  N
  N65      1.0000 0.82840  0.28020  0.63660  Biso   1.000  N
  N66      1.0000 0.17160  0.28020  0.86340  Biso   1.000  N
  N67      1.0000 0.32840  0.78020  0.63660  Biso   1.000  N
  N68      1.0000 0.67160  0.78020  0.86340  Biso   1.000  N
  N69      1.0000 0.17160  0.71980  0.36340  Biso   1.000  N
  N70      1.0000 0.82840  0.71980  0.13660  Biso   1.000  N
  N71      1.0000 0.67160  0.21980  0.36340  Biso   1.000  N
  N72      1.0000 0.32840  0.21980  0.13660  Biso   1.000  N
  H17      1.0000 0.75770  0.29480  0.64290  Biso   1.000  H
  H18      1.0000 0.24230  0.29480  0.85710  Biso   1.000  H
  H19      1.0000 0.25770  0.79480  0.64290  Biso   1.000  H
  H20      1.0000 0.74230  0.79480  0.85710  Biso   1.000  H
  H21      1.0000 0.24230  0.70520  0.35710  Biso   1.000  H
  H22      1.0000 0.75770  0.70520  0.14290  Biso   1.000  H
  H23      1.0000 0.74230  0.20520  0.35710  Biso   1.000  H
  H24      1.0000 0.25770  0.20520  0.14290  Biso   1.000  H
  H25      1.0000 0.84880  0.31020  0.59440  Biso   1.000  H
  H26      1.0000 0.15120  0.31020  0.90560  Biso   1.000  H
  H27      1.0000 0.34880  0.81020  0.59440  Biso   1.000  H
  H28      1.0000 0.65120  0.81020  0.90560  Biso   1.000  H
  H29      1.0000 0.15120  0.68980  0.40560  Biso   1.000  H
  H30      1.0000 0.84880  0.68980  0.09440  Biso   1.000  H
  H31      1.0000 0.65120  0.18980  0.40560  Biso   1.000  H
  H32      1.0000 0.34880  0.18980  0.09440  Biso   1.000  H
  C17      1.0000 0.90010  0.15260  0.70030  Biso   1.000  C
  C18      1.0000 0.09990  0.15260  0.79970  Biso   1.000  C
  C19      1.0000 0.40010  0.65260  0.70030  Biso   1.000  C
  C20      1.0000 0.59990  0.65260  0.79970  Biso   1.000  C
  C21      1.0000 0.09990  0.84740  0.29970  Biso   1.000  C
  C22      1.0000 0.90010  0.84740  0.20030  Biso   1.000  C
  C23      1.0000 0.59990  0.34740  0.29970  Biso   1.000  C
  C24      1.0000 0.40010  0.34740  0.20030  Biso   1.000  C
  H33      1.0000 0.88950  0.16670  0.75920  Biso   1.000  H
  H34      1.0000 0.11050  0.16670  0.74080  Biso   1.000  H
  H35      1.0000 0.38950  0.66670  0.75920  Biso   1.000  H
  H36      1.0000 0.61050  0.66670  0.74080  Biso   1.000  H
  H37      1.0000 0.11050  0.83330  0.24080  Biso   1.000  H
  H38      1.0000 0.88950  0.83330  0.25920  Biso   1.000  H
  H39      1.0000 0.61050  0.33330  0.24080  Biso   1.000  H
  H40      1.0000 0.38950  0.33330  0.25920  Biso   1.000  H
  C25      1.0000 0.77120  0.00500  0.32610  Biso   1.000  C
  C26      1.0000 0.22880  0.00500  0.17390  Biso   1.000  C
  C27      1.0000 0.27120  0.50500  0.32610  Biso   1.000  C
  C28      1.0000 0.72880  0.50500  0.17390  Biso   1.000  C
  C29      1.0000 0.22880  0.99500  0.67390  Biso   1.000  C
  C30      1.0000 0.77120  0.99500  0.82610  Biso   1.000  C
  C31      1.0000 0.72880  0.49500  0.67390  Biso   1.000  C
  C32      1.0000 0.27120  0.49500  0.82610  Biso   1.000  C
  H41      1.0000 0.74270  0.01180  0.26980  Biso   1.000  H
  H42      1.0000 0.25730  0.01180  0.23020  Biso   1.000  H
  H43      1.0000 0.24270  0.51180  0.26980  Biso   1.000  H
  H44      1.0000 0.75730  0.51180  0.23020  Biso   1.000  H
  H45      1.0000 0.25730  0.98820  0.73020  Biso   1.000  H
  H46      1.0000 0.74270  0.98820  0.76980  Biso   1.000  H
  H47      1.0000 0.75730  0.48820  0.73020  Biso   1.000  H
  H48      1.0000 0.24270  0.48820  0.76980  Biso   1.000  H
  N73      1.0000 0.87210  0.99550  0.43270  Biso   1.000  N
  N74      1.0000 0.12790  0.99550  0.06730  Biso   1.000  N
  N75      1.0000 0.37210  0.49550  0.43270  Biso   1.000  N
  N76      1.0000 0.62790  0.49550  0.06730  Biso   1.000  N
  N77      1.0000 0.12790  0.00450  0.56730  Biso   1.000  N
  N78      1.0000 0.87210  0.00450  0.93270  Biso   1.000  N
  N79      1.0000 0.62790  0.50450  0.56730  Biso   1.000  N
  N80      1.0000 0.37210  0.50450  0.93270  Biso   1.000  N
  N81      1.0000 0.61860  0.97950  0.40260  Biso   1.000  N
  N82      1.0000 0.38140  0.97950  0.09740  Biso   1.000  N
  N83      1.0000 0.11860  0.47950  0.40260  Biso   1.000  N
  N84      1.0000 0.88140  0.47950  0.09740  Biso   1.000  N
  N85      1.0000 0.38140  0.02050  0.59740  Biso   1.000  N
  N86      1.0000 0.61860  0.02050  0.90260  Biso   1.000  N
  N87      1.0000 0.88140  0.52050  0.59740  Biso   1.000  N
  N88      1.0000 0.11860  0.52050  0.90260  Biso   1.000  N
  H49      1.0000 0.59930  0.03190  0.41380  Biso   1.000  H
  H50      1.0000 0.40070  0.03190  0.08620  Biso   1.000  H
  H51      1.0000 0.09930  0.53190  0.41380  Biso   1.000  H
  H52      1.0000 0.90070  0.53190  0.08620  Biso   1.000  H
  H53      1.0000 0.40070  0.96810  0.58620  Biso   1.000  H
  H54      1.0000 0.59930  0.96810  0.91380  Biso   1.000  H
  H55      1.0000 0.90070  0.46810  0.58620  Biso   1.000  H
  H56      1.0000 0.09930  0.46810  0.91380  Biso   1.000  H
  H57      1.0000 0.60860  0.93750  0.42330  Biso   1.000  H
  H58      1.0000 0.39140  0.93750  0.07670  Biso   1.000  H
  H59      1.0000 0.10860  0.43750  0.42330  Biso   1.000  H
  H60      1.0000 0.89140  0.43750  0.07670  Biso   1.000  H
  H61      1.0000 0.39140  0.06250  0.57670  Biso   1.000  H
  H62      1.0000 0.60860  0.06250  0.92330  Biso   1.000  H
  H63      1.0000 0.89140  0.56250  0.57670  Biso   1.000  H
  H64      1.0000 0.10860  0.56250  0.92330  Biso   1.000  H
  C33      1.0000 0.90050  0.15720  0.56080  Biso   1.000  C
  C34      1.0000 0.09950  0.15720  0.93920  Biso   1.000  C
  C35      1.0000 0.40050  0.65720  0.56080  Biso   1.000  C
  C36      1.0000 0.59950  0.65720  0.93920  Biso   1.000  C
  C37      1.0000 0.09950  0.84280  0.43920  Biso   1.000  C
  C38      1.0000 0.90050  0.84280  0.06080  Biso   1.000  C
  C39      1.0000 0.59950  0.34280  0.43920  Biso   1.000  C
  C40      1.0000 0.40050  0.34280  0.06080  Biso   1.000  C
  H65      1.0000 0.88970  0.17530  0.50270  Biso   1.000  H
  H66      1.0000 0.11030  0.17530  0.99730  Biso   1.000  H
  H67      1.0000 0.38970  0.67530  0.50270  Biso   1.000  H
  H68      1.0000 0.61030  0.67530  0.99730  Biso   1.000  H
  H69      1.0000 0.11030  0.82470  0.49730  Biso   1.000  H
  H70      1.0000 0.88970  0.82470  0.00270  Biso   1.000  H
  H71      1.0000 0.61030  0.32470  0.49730  Biso   1.000  H
  H72      1.0000 0.38970  0.32470  0.00270  Biso   1.000  H
  N89      1.0000 0.93690  0.89910  0.67650  Biso   1.000  N
  N90      1.0000 0.06310  0.89910  0.82350  Biso   1.000  N
  N91      1.0000 0.43690  0.39910  0.67650  Biso   1.000  N
  N92      1.0000 0.56310  0.39910  0.82350  Biso   1.000  N
  N93      1.0000 0.06310  0.10090  0.32350  Biso   1.000  N
  N94      1.0000 0.93690  0.10090  0.17650  Biso   1.000  N
  N95      1.0000 0.56310  0.60090  0.32350  Biso   1.000  N
  N96      1.0000 0.43690  0.60090  0.17650  Biso   1.000  N
  C41      1.0000 0.89060  0.83310  0.70270  Biso   1.000  C
  C42      1.0000 0.10940  0.83310  0.79730  Biso   1.000  C
  C43      1.0000 0.39060  0.33310  0.70270  Biso   1.000  C
  C44      1.0000 0.60940  0.33310  0.79730  Biso   1.000  C
  C45      1.0000 0.10940  0.16690  0.29730  Biso   1.000  C
  C46      1.0000 0.89060  0.16690  0.20270  Biso   1.000  C
  C47      1.0000 0.60940  0.66690  0.29730  Biso   1.000  C
  C48      1.0000 0.39060  0.66690  0.20270  Biso   1.000  C
  H73      1.0000 0.87430  0.82180  0.76110  Biso   1.000  H
  H74      1.0000 0.12570  0.82180  0.73890  Biso   1.000  H
  H75      1.0000 0.37430  0.32180  0.76110  Biso   1.000  H
  H76      1.0000 0.62570  0.32180  0.73890  Biso   1.000  H
  H77      1.0000 0.12570  0.17820  0.23890  Biso   1.000  H
  H78      1.0000 0.87430  0.17820  0.26110  Biso   1.000  H
  H79      1.0000 0.62570  0.67820  0.23890  Biso   1.000  H
  H80      1.0000 0.37430  0.67820  0.26110  Biso   1.000  H
  H81      1.0000 0.74800  0.72400  0.62200  Biso   1.000  H
  H82      1.0000 0.25200  0.72400  0.87800  Biso   1.000  H
  H83      1.0000 0.24800  0.22400  0.62200  Biso   1.000  H
  H84      1.0000 0.75200  0.22400  0.87800  Biso   1.000  H
  H85      1.0000 0.25200  0.27600  0.37800  Biso   1.000  H
  H86      1.0000 0.74800  0.27600  0.12200  Biso   1.000  H
  H87      1.0000 0.75200  0.77600  0.37800  Biso   1.000  H
  H88      1.0000 0.24800  0.77600  0.12200  Biso   1.000  H
  H89      1.0000 0.81000  0.68400  0.68300  Biso   1.000  H
  H90      1.0000 0.19000  0.68400  0.81700  Biso   1.000  H
  H91      1.0000 0.31000  0.18400  0.68300  Biso   1.000  H
  H92      1.0000 0.69000  0.18400  0.81700  Biso   1.000  H
  H93      1.0000 0.19000  0.31600  0.31700  Biso   1.000  H
  H94      1.0000 0.81000  0.31600  0.18300  Biso   1.000  H
  H95      1.0000 0.69000  0.81600  0.31700  Biso   1.000  H
  H96      1.0000 0.31000  0.81600  0.18300  Biso   1.000  H
  Br1      1.0000 0.91453  0.64813  0.36198  Biso   1.000  Br
  Br2      1.0000 0.08547  0.64813  0.13802  Biso   1.000  Br
  Br3      1.0000 0.41453  0.14813  0.36198  Biso   1.000  Br
  Br4      1.0000 0.58547  0.14813  0.13802  Biso   1.000  Br
  Br5      1.0000 0.08547  0.35187  0.63802  Biso   1.000  Br
  Br6      1.0000 0.91453  0.35187  0.86198  Biso   1.000  Br
  Br7      1.0000 0.58547  0.85187  0.63802  Biso   1.000  Br
  Br8      1.0000 0.41453  0.85187  0.86198  Biso   1.000  Br
  O1       1.0000 0.89350  0.75130  0.37420  Biso   1.000  O
  O2       1.0000 0.10650  0.75130  0.12580  Biso   1.000  O
  O3       1.0000 0.39350  0.25130  0.37420  Biso   1.000  O
  O4       1.0000 0.60650  0.25130  0.12580  Biso   1.000  O
  O5       1.0000 0.10650  0.24870  0.62580  Biso   1.000  O
  O6       1.0000 0.89350  0.24870  0.87420  Biso   1.000  O
  O7       1.0000 0.60650  0.74870  0.62580  Biso   1.000  O
  O8       1.0000 0.39350  0.74870  0.87420  Biso   1.000  O
  O9       1.0000 0.97900  0.62250  0.44860  Biso   1.000  O
  O10      1.0000 0.02100  0.62250  0.05140  Biso   1.000  O
  O11      1.0000 0.47900  0.12250  0.44860  Biso   1.000  O
  O12      1.0000 0.52100  0.12250  0.05140  Biso   1.000  O
  O13      1.0000 0.02100  0.37750  0.55140  Biso   1.000  O
  O14      1.0000 0.97900  0.37750  0.94860  Biso   1.000  O
  O15      1.0000 0.52100  0.87750  0.55140  Biso   1.000  O
  O16      1.0000 0.47900  0.87750  0.94860  Biso   1.000  O
  O17      1.0000 0.81020  0.60230  0.37100  Biso   1.000  O
  O18      1.0000 0.18980  0.60230  0.12900  Biso   1.000  O
  O19      1.0000 0.31020  0.10230  0.37100  Biso   1.000  O
  O20      1.0000 0.68980  0.10230  0.12900  Biso   1.000  O
  O21      1.0000 0.18980  0.39770  0.62900  Biso   1.000  O
  O22      1.0000 0.81020  0.39770  0.87100  Biso   1.000  O
  O23      1.0000 0.68980  0.89770  0.62900  Biso   1.000  O
  O24      1.0000 0.31020  0.89770  0.87100  Biso   1.000  O
  Br9      1.0000 0.11153  0.64189  0.61242  Biso   1.000  Br
  Br10     1.0000 0.88847  0.64189  0.88758  Biso   1.000  Br
  Br11     1.0000 0.61153  0.14189  0.61242  Biso   1.000  Br
  Br12     1.0000 0.38847  0.14189  0.88758  Biso   1.000  Br
  Br13     1.0000 0.88847  0.35811  0.38758  Biso   1.000  Br
  Br14     1.0000 0.11153  0.35811  0.11242  Biso   1.000  Br
  Br15     1.0000 0.38847  0.85811  0.38758  Biso   1.000  Br
  Br16     1.0000 0.61153  0.85811  0.11242  Biso   1.000  Br
  O25      1.0000 0.10750  0.74590  0.61580  Biso   1.000  O
  O26      1.0000 0.89250  0.74590  0.88420  Biso   1.000  O
  O27      1.0000 0.60750  0.24590  0.61580  Biso   1.000  O
  O28      1.0000 0.39250  0.24590  0.88420  Biso   1.000  O
  O29      1.0000 0.89250  0.25410  0.38420  Biso   1.000  O
  O30      1.0000 0.10750  0.25410  0.11580  Biso   1.000  O
  O31      1.0000 0.39250  0.75410  0.38420  Biso   1.000  O
  O32      1.0000 0.60750  0.75410  0.11580  Biso   1.000  O
  O33      1.0000 0.18620  0.62230  0.53290  Biso   1.000  O
  O34      1.0000 0.81380  0.62230  0.96710  Biso   1.000  O
  O35      1.0000 0.68620  0.12230  0.53290  Biso   1.000  O
  O36      1.0000 0.31380  0.12230  0.96710  Biso   1.000  O
  O37      1.0000 0.81380  0.37770  0.46710  Biso   1.000  O
  O38      1.0000 0.18620  0.37770  0.03290  Biso   1.000  O
  O39      1.0000 0.31380  0.87770  0.46710  Biso   1.000  O
  O40      1.0000 0.68620  0.87770  0.03290  Biso   1.000  O
  O41      1.0000 0.17200  0.61650  0.70100  Biso   1.000  O
  O42      1.0000 0.82800  0.61650  0.79900  Biso   1.000  O
  O43      1.0000 0.67200  0.11650  0.70100  Biso   1.000  O
  O44      1.0000 0.32800  0.11650  0.79900  Biso   1.000  O
  O45      1.0000 0.82800  0.38350  0.29900  Biso   1.000  O
  O46      1.0000 0.17200  0.38350  0.20100  Biso   1.000  O
  O47      1.0000 0.32800  0.88350  0.29900  Biso   1.000  O
  O48      1.0000 0.67200  0.88350  0.20100  Biso   1.000  O
  O49      1.0000 0.50000  0.01020  0.25000  Biso   1.000  O
  O50      1.0000 0.00000  0.51020  0.25000  Biso   1.000  O
  O51      1.0000 0.50000  0.98980  0.75000  Biso   1.000  O
  O52      1.0000 0.00000  0.48980  0.75000  Biso   1.000  O
  H97      1.0000 0.50090  0.06470  0.20790  Biso   1.000  H
  H98      1.0000 0.49910  0.06470  0.29210  Biso   1.000  H
  H99      1.0000 0.00090  0.56470  0.20790  Biso   1.000  H
  H100     1.0000 0.99910  0.56470  0.29210  Biso   1.000  H
  H101     1.0000 0.49910  0.93530  0.79210  Biso   1.000  H
  H102     1.0000 0.50090  0.93530  0.70790  Biso   1.000  H
  H103     1.0000 0.99910  0.43530  0.79210  Biso   1.000  H
  H104     1.0000 0.00090  0.43530  0.70790  Biso   1.000  H
