data_image0
_cell_length_a       10.672
_cell_length_b       10.7194
_cell_length_c       11.9351
_cell_angle_alpha    70.341
_cell_angle_beta     77.928
_cell_angle_gamma    60.8544

_symmetry_space_group_name_H-M    "P 1"
_symmetry_int_tables_number       1

loop_
  _symmetry_equiv_pos_as_xyz
  'x, y, z'

loop_
  _atom_site_label
  _atom_site_occupancy
  _atom_site_fract_x
  _atom_site_fract_y
  _atom_site_fract_z
  _atom_site_thermal_displace_type
  _atom_site_B_iso_or_equiv
  _atom_site_type_symbol
  C1       1.0000 0.82180  0.02280  0.71690  Biso   1.000  C
  C2       1.0000 0.17820  0.97720  0.28310  Biso   1.000  C
  C3       1.0000 0.82710  0.01180  0.83490  Biso   1.000  C
  C4       1.0000 0.17290  0.98820  0.16510  Biso   1.000  C
  C5       1.0000 0.71630  0.03480  0.64190  Biso   1.000  C
  C6       1.0000 0.28370  0.96520  0.35810  Biso   1.000  C
  C7       1.0000 0.73530  0.99810  0.94470  Biso   1.000  C
  C8       1.0000 0.26470  0.00190  0.05530  Biso   1.000  C
  C9       1.0000 0.05630  0.68660  0.54270  Biso   1.000  C
  C10      1.0000 0.94370  0.31340  0.45730  Biso   1.000  C
  H1       1.0000 0.98940  0.72920  0.48520  Biso   1.000  H
  H2       1.0000 0.01060  0.27080  0.51480  Biso   1.000  H
  C11      1.0000 0.11370  0.53620  0.59470  Biso   1.000  C
  C12      1.0000 0.88630  0.46380  0.40530  Biso   1.000  C
  H3       1.0000 0.08600  0.47900  0.57150  Biso   1.000  H
  H4       1.0000 0.91400  0.52100  0.42850  Biso   1.000  H
  C13      1.0000 0.21140  0.46980  0.68040  Biso   1.000  C
  C14      1.0000 0.78860  0.53020  0.31960  Biso   1.000  C
  C15      1.0000 0.24880  0.56040  0.70900  Biso   1.000  C
  C16      1.0000 0.75120  0.43960  0.29100  Biso   1.000  C
  H5       1.0000 0.31450  0.52060  0.76690  Biso   1.000  H
  H6       1.0000 0.68550  0.47940  0.23310  Biso   1.000  H
  C17      1.0000 0.18960  0.71000  0.65220  Biso   1.000  C
  C18      1.0000 0.81040  0.29000  0.34780  Biso   1.000  C
  H7       1.0000 0.21890  0.76880  0.67120  Biso   1.000  H
  H8       1.0000 0.78110  0.23120  0.32880  Biso   1.000  H
  C19      1.0000 0.27610  0.30640  0.74300  Biso   1.000  C
  C20      1.0000 0.72390  0.69360  0.25700  Biso   1.000  C
  C21      1.0000 0.92340  0.31810  0.87130  Biso   1.000  C
  C22      1.0000 0.07660  0.68190  0.12870  Biso   1.000  C
  H9       1.0000 0.00520  0.27850  0.82310  Biso   1.000  H
  H10      1.0000 0.99480  0.72150  0.17690  Biso   1.000  H
  C23      1.0000 0.84270  0.46950  0.84530  Biso   1.000  C
  C24      1.0000 0.15730  0.53050  0.15470  Biso   1.000  C
  H11      1.0000 0.86860  0.53080  0.77940  Biso   1.000  H
  H12      1.0000 0.13140  0.46920  0.22060  Biso   1.000  H
  C25      1.0000 0.72170  0.53090  0.91830  Biso   1.000  C
  C26      1.0000 0.27830  0.46910  0.08170  Biso   1.000  C
  C27      1.0000 0.68740  0.43310  0.01360  Biso   1.000  C
  C28      1.0000 0.31260  0.56690  0.98640  Biso   1.000  C
  H13      1.0000 0.60660  0.46950  0.06350  Biso   1.000  H
  H14      1.0000 0.39340  0.53050  0.93650  Biso   1.000  H
  C29      1.0000 0.77190  0.28430  0.03410  Biso   1.000  C
  C30      1.0000 0.22810  0.71570  0.96590  Biso   1.000  C
  H15      1.0000 0.74820  0.22070  0.09940  Biso   1.000  H
  H16      1.0000 0.25180  0.77930  0.90060  Biso   1.000  H
  C31      1.0000 0.62940  0.69460  0.89170  Biso   1.000  C
  C32      1.0000 0.37060  0.30540  0.10830  Biso   1.000  C
  Cu1      1.0000 0.00000  0.00000  0.00000  Biso   1.000  Cu
  Cu2      1.0000 0.00000  0.00000  0.50000  Biso   1.000  Cu
  Tb1      1.0000 0.45062  0.00173  0.83754  Biso   1.000  Tb
  Tb2      1.0000 0.54938  0.99827  0.16246  Biso   1.000  Tb
  N1       1.0000 0.94520  0.02390  0.66230  Biso   1.000  N
  N2       1.0000 0.05480  0.97610  0.33770  Biso   1.000  N
  N3       1.0000 0.02390  0.01850  0.73870  Biso   1.000  N
  N4       1.0000 0.97610  0.98150  0.26130  Biso   1.000  N
  N5       1.0000 0.95240  0.01030  0.84470  Biso   1.000  N
  N6       1.0000 0.04760  0.98970  0.15530  Biso   1.000  N
  N7       1.0000 0.09280  0.77340  0.57170  Biso   1.000  N
  N8       1.0000 0.90720  0.22660  0.42830  Biso   1.000  N
  N9       1.0000 0.88850  0.22530  0.96360  Biso   1.000  N
  N10      1.0000 0.11150  0.77470  0.03640  Biso   1.000  N
  O1       1.0000 0.76540  0.00820  0.54410  Biso   1.000  O
  O2       1.0000 0.23460  0.99180  0.45590  Biso   1.000  O
  O3       1.0000 0.58640  0.07690  0.68080  Biso   1.000  O
  O4       1.0000 0.41360  0.92310  0.31920  Biso   1.000  O
  O5       1.0000 0.61820  0.99590  0.94370  Biso   1.000  O
  O6       1.0000 0.38180  0.00410  0.05630  Biso   1.000  O
  O7       1.0000 0.77680  0.98710  0.04120  Biso   1.000  O
  O8       1.0000 0.22320  0.01290  0.95880  Biso   1.000  O
  O9       1.0000 0.26040  0.21890  0.70510  Biso   1.000  O
  O10      1.0000 0.73960  0.78110  0.29490  Biso   1.000  O
  O11      1.0000 0.35010  0.25970  0.83080  Biso   1.000  O
  O12      1.0000 0.64990  0.74030  0.16920  Biso   1.000  O
  O13      1.0000 0.51370  0.74480  0.95250  Biso   1.000  O
  O14      1.0000 0.48630  0.25520  0.04750  Biso   1.000  O
  O15      1.0000 0.66750  0.78050  0.80750  Biso   1.000  O
  O16      1.0000 0.33250  0.21950  0.19250  Biso   1.000  O
  O17      1.0000 0.36710  0.91690  0.72010  Biso   1.000  O
  O18      1.0000 0.63290  0.08310  0.27990  Biso   1.000  O
  H17      1.0000 0.28300  0.95300  0.70600  Biso   1.000  H
  H18      1.0000 0.71700  0.04700  0.29400  Biso   1.000  H
  H19      1.0000 0.42500  0.89800  0.67100  Biso   1.000  H
  H20      1.0000 0.57500  0.10200  0.32900  Biso   1.000  H
  O19      1.0000 0.40910  0.65210  0.19750  Biso   1.000  O
  O20      1.0000 0.59090  0.34790  0.80250  Biso   1.000  O
  H21      1.0000 0.42230  0.64900  0.26420  Biso   1.000  H
  H22      1.0000 0.57770  0.35100  0.73580  Biso   1.000  H
  H23      1.0000 0.48150  0.65400  0.15790  Biso   1.000  H
  H24      1.0000 0.51850  0.34600  0.84210  Biso   1.000  H
  O21      1.0000 0.47790  0.34790  0.33100  Biso   1.000  O
  O22      1.0000 0.52210  0.65210  0.66900  Biso   1.000  O
  H25      1.0000 0.48500  0.27480  0.38750  Biso   1.000  H
  H26      1.0000 0.51500  0.72520  0.61250  Biso   1.000  H
  H27      1.0000 0.47700  0.40500  0.36350  Biso   1.000  H
  H28      1.0000 0.52300  0.59500  0.63650  Biso   1.000  H
  O23      1.0000 0.27610  0.25910  0.45400  Biso   1.000  O
  O24      1.0000 0.72390  0.74090  0.54600  Biso   1.000  O
  H29      1.0000 0.36000  0.19400  0.46300  Biso   1.000  H
  H30      1.0000 0.64000  0.80600  0.53700  Biso   1.000  H
  H31      1.0000 0.22930  0.21900  0.50100  Biso   1.000  H
  H32      1.0000 0.77070  0.78100  0.49900  Biso   1.000  H
