data_image0
_cell_length_a       10.639
_cell_length_b       10.6982
_cell_length_c       11.9375
_cell_angle_alpha    70.078
_cell_angle_beta     77.61
_cell_angle_gamma    60.7997

_symmetry_space_group_name_H-M    "P 1"
_symmetry_int_tables_number       1

loop_
  _symmetry_equiv_pos_as_xyz
  'x, y, z'

loop_
  _atom_site_label
  _atom_site_occupancy
  _atom_site_fract_x
  _atom_site_fract_y
  _atom_site_fract_z
  _atom_site_thermal_displace_type
  _atom_site_B_iso_or_equiv
  _atom_site_type_symbol
  C1       1.0000 0.82250  0.02200  0.71810  Biso   1.000  C
  C2       1.0000 0.17750  0.97800  0.28190  Biso   1.000  C
  C3       1.0000 0.82830  0.01130  0.83570  Biso   1.000  C
  C4       1.0000 0.17170  0.98870  0.16430  Biso   1.000  C
  C5       1.0000 0.71560  0.03520  0.64290  Biso   1.000  C
  C6       1.0000 0.28440  0.96480  0.35710  Biso   1.000  C
  C7       1.0000 0.73510  0.99720  0.94610  Biso   1.000  C
  C8       1.0000 0.26490  0.00280  0.05390  Biso   1.000  C
  C9       1.0000 0.05710  0.68460  0.54360  Biso   1.000  C
  C10      1.0000 0.94290  0.31540  0.45640  Biso   1.000  C
  H1       1.0000 0.99040  0.72700  0.48600  Biso   1.000  H
  H2       1.0000 0.00960  0.27300  0.51400  Biso   1.000  H
  C11      1.0000 0.11390  0.53340  0.59530  Biso   1.000  C
  C12      1.0000 0.88610  0.46660  0.40470  Biso   1.000  C
  H3       1.0000 0.08780  0.47530  0.57170  Biso   1.000  H
  H4       1.0000 0.91220  0.52470  0.42830  Biso   1.000  H
  C13      1.0000 0.21010  0.46940  0.68270  Biso   1.000  C
  C14      1.0000 0.78990  0.53060  0.31730  Biso   1.000  C
  C15      1.0000 0.24770  0.55980  0.71100  Biso   1.000  C
  C16      1.0000 0.75230  0.44020  0.28900  Biso   1.000  C
  H5       1.0000 0.31320  0.52010  0.76900  Biso   1.000  H
  H6       1.0000 0.68680  0.47990  0.23100  Biso   1.000  H
  C17      1.0000 0.18820  0.70980  0.65300  Biso   1.000  C
  C18      1.0000 0.81180  0.29020  0.34700  Biso   1.000  C
  H7       1.0000 0.21660  0.76930  0.67220  Biso   1.000  H
  H8       1.0000 0.78340  0.23070  0.32780  Biso   1.000  H
  C19      1.0000 0.27920  0.30310  0.74420  Biso   1.000  C
  C20      1.0000 0.72080  0.69690  0.25580  Biso   1.000  C
  C21      1.0000 0.92210  0.31850  0.87070  Biso   1.000  C
  C22      1.0000 0.07790  0.68150  0.12930  Biso   1.000  C
  H9       1.0000 0.00290  0.27870  0.82130  Biso   1.000  H
  H10      1.0000 0.99710  0.72130  0.17870  Biso   1.000  H
  C23      1.0000 0.84170  0.47190  0.84480  Biso   1.000  C
  C24      1.0000 0.15830  0.52810  0.15520  Biso   1.000  C
  H11      1.0000 0.86820  0.53390  0.77930  Biso   1.000  H
  H12      1.0000 0.13180  0.46610  0.22070  Biso   1.000  H
  C25      1.0000 0.72060  0.53180  0.91860  Biso   1.000  C
  C26      1.0000 0.27940  0.46820  0.08140  Biso   1.000  C
  C27      1.0000 0.68670  0.43410  0.01390  Biso   1.000  C
  C28      1.0000 0.31330  0.56590  0.98610  Biso   1.000  C
  H13      1.0000 0.60580  0.47030  0.06440  Biso   1.000  H
  H14      1.0000 0.39420  0.52970  0.93560  Biso   1.000  H
  C29      1.0000 0.77100  0.28560  0.03420  Biso   1.000  C
  C30      1.0000 0.22900  0.71440  0.96580  Biso   1.000  C
  H15      1.0000 0.74660  0.22210  0.09980  Biso   1.000  H
  H16      1.0000 0.25340  0.77790  0.90020  Biso   1.000  H
  C31      1.0000 0.62920  0.69680  0.89290  Biso   1.000  C
  C32      1.0000 0.37080  0.30320  0.10710  Biso   1.000  C
  Cu1      1.0000 0.00000  0.00000  0.00000  Biso   1.000  Cu
  Cu2      1.0000 0.00000  0.00000  0.50000  Biso   1.000  Cu
  Ho1      1.0000 0.45124  0.00192  0.83917  Biso   1.000  Ho
  Ho2      1.0000 0.54876  0.99808  0.16083  Biso   1.000  Ho
  N1       1.0000 0.94610  0.02350  0.66300  Biso   1.000  N
  N2       1.0000 0.05390  0.97650  0.33700  Biso   1.000  N
  N3       1.0000 0.02450  0.01890  0.73810  Biso   1.000  N
  N4       1.0000 0.97550  0.98110  0.26190  Biso   1.000  N
  N5       1.0000 0.95270  0.01030  0.84400  Biso   1.000  N
  N6       1.0000 0.04730  0.98970  0.15600  Biso   1.000  N
  N7       1.0000 0.09210  0.77350  0.57110  Biso   1.000  N
  N8       1.0000 0.90790  0.22650  0.42890  Biso   1.000  N
  N9       1.0000 0.88790  0.22530  0.96440  Biso   1.000  N
  N10      1.0000 0.11210  0.77470  0.03560  Biso   1.000  N
  O1       1.0000 0.76490  0.00790  0.54550  Biso   1.000  O
  O2       1.0000 0.23510  0.99210  0.45450  Biso   1.000  O
  O3       1.0000 0.58630  0.07700  0.68270  Biso   1.000  O
  O4       1.0000 0.41370  0.92300  0.31730  Biso   1.000  O
  O5       1.0000 0.61790  0.99520  0.94340  Biso   1.000  O
  O6       1.0000 0.38210  0.00480  0.05660  Biso   1.000  O
  O7       1.0000 0.77660  0.98540  0.04180  Biso   1.000  O
  O8       1.0000 0.22340  0.01460  0.95820  Biso   1.000  O
  O9       1.0000 0.26180  0.21680  0.70740  Biso   1.000  O
  O10      1.0000 0.73820  0.78320  0.29260  Biso   1.000  O
  O11      1.0000 0.35060  0.25880  0.83190  Biso   1.000  O
  O12      1.0000 0.64940  0.74120  0.16810  Biso   1.000  O
  O13      1.0000 0.51300  0.74660  0.95390  Biso   1.000  O
  O14      1.0000 0.48700  0.25340  0.04610  Biso   1.000  O
  O15      1.0000 0.66690  0.78240  0.80840  Biso   1.000  O
  O16      1.0000 0.33310  0.21760  0.19160  Biso   1.000  O
  O17      1.0000 0.36880  0.91740  0.72400  Biso   1.000  O
  O18      1.0000 0.63120  0.08260  0.27600  Biso   1.000  O
  H17      1.0000 0.29100  0.96100  0.69800  Biso   1.000  H
  H18      1.0000 0.70900  0.03900  0.30200  Biso   1.000  H
  H19      1.0000 0.42500  0.88600  0.67700  Biso   1.000  H
  H20      1.0000 0.57500  0.11400  0.32300  Biso   1.000  H
  O19      1.0000 0.40770  0.64990  0.20060  Biso   1.000  O
  O20      1.0000 0.59230  0.35010  0.79940  Biso   1.000  O
  H21      1.0000 0.43200  0.64700  0.26310  Biso   1.000  H
  H22      1.0000 0.56800  0.35300  0.73690  Biso   1.000  H
  H23      1.0000 0.46230  0.67600  0.14950  Biso   1.000  H
  H24      1.0000 0.53770  0.32400  0.85050  Biso   1.000  H
  O21      1.0000 0.48060  0.34380  0.32940  Biso   1.000  O
  O22      1.0000 0.51940  0.65620  0.67060  Biso   1.000  O
  H25      1.0000 0.49600  0.26790  0.38530  Biso   1.000  H
  H26      1.0000 0.50400  0.73210  0.61470  Biso   1.000  H
  H27      1.0000 0.46100  0.40730  0.36280  Biso   1.000  H
  H28      1.0000 0.53900  0.59270  0.63720  Biso   1.000  H
  O23      1.0000 0.27670  0.25480  0.45760  Biso   1.000  O
  O24      1.0000 0.72330  0.74520  0.54240  Biso   1.000  O
  H29      1.0000 0.35990  0.18700  0.46400  Biso   1.000  H
  H30      1.0000 0.64010  0.81300  0.53600  Biso   1.000  H
  H31      1.0000 0.22720  0.21130  0.49100  Biso   1.000  H
  H32      1.0000 0.77280  0.78870  0.50900  Biso   1.000  H
