data_image0
_cell_length_a       10.725
_cell_length_b       10.747
_cell_length_c       11.917
_cell_angle_alpha    70.146
_cell_angle_beta     77.912
_cell_angle_gamma    60.967

_symmetry_space_group_name_H-M    "P 1"
_symmetry_int_tables_number       1

loop_
  _symmetry_equiv_pos_as_xyz
  'x, y, z'

loop_
  _atom_site_label
  _atom_site_occupancy
  _atom_site_fract_x
  _atom_site_fract_y
  _atom_site_fract_z
  _atom_site_thermal_displace_type
  _atom_site_B_iso_or_equiv
  _atom_site_type_symbol
  C1       1.0000 0.82250  0.02260  0.71630  Biso   1.000  C
  C2       1.0000 0.17750  0.97740  0.28370  Biso   1.000  C
  C3       1.0000 0.82630  0.01320  0.83470  Biso   1.000  C
  C4       1.0000 0.17370  0.98680  0.16530  Biso   1.000  C
  C5       1.0000 0.71730  0.03480  0.64140  Biso   1.000  C
  C6       1.0000 0.28270  0.96520  0.35860  Biso   1.000  C
  C7       1.0000 0.73560  0.99780  0.94540  Biso   1.000  C
  C8       1.0000 0.26440  0.00220  0.05460  Biso   1.000  C
  C9       1.0000 0.05730  0.68740  0.54220  Biso   1.000  C
  C10      1.0000 0.94270  0.31260  0.45780  Biso   1.000  C
  H1       1.0000 0.99060  0.73070  0.48470  Biso   1.000  H
  H2       1.0000 0.00940  0.26930  0.51530  Biso   1.000  H
  C11      1.0000 0.11540  0.53450  0.59270  Biso   1.000  C
  C12      1.0000 0.88460  0.46550  0.40730  Biso   1.000  C
  H3       1.0000 0.09060  0.47730  0.56690  Biso   1.000  H
  H4       1.0000 0.90940  0.52270  0.43310  Biso   1.000  H
  C13      1.0000 0.20850  0.47040  0.68010  Biso   1.000  C
  C14      1.0000 0.79150  0.52960  0.31990  Biso   1.000  C
  C15      1.0000 0.24570  0.55930  0.71140  Biso   1.000  C
  C16      1.0000 0.75430  0.44070  0.28860  Biso   1.000  C
  H5       1.0000 0.31090  0.51850  0.76980  Biso   1.000  H
  H6       1.0000 0.68910  0.48150  0.23020  Biso   1.000  H
  C17      1.0000 0.18550  0.71020  0.65560  Biso   1.000  C
  C18      1.0000 0.81450  0.28980  0.34440  Biso   1.000  C
  H7       1.0000 0.21160  0.76910  0.67770  Biso   1.000  H
  H8       1.0000 0.78840  0.23090  0.32230  Biso   1.000  H
  C19      1.0000 0.27740  0.30620  0.74090  Biso   1.000  C
  C20      1.0000 0.72260  0.69380  0.25910  Biso   1.000  C
  C21      1.0000 0.92370  0.31720  0.87050  Biso   1.000  C
  C22      1.0000 0.07630  0.68280  0.12950  Biso   1.000  C
  H9       1.0000 0.00330  0.27760  0.82090  Biso   1.000  H
  H10      1.0000 0.99670  0.72240  0.17910  Biso   1.000  H
  C23      1.0000 0.84360  0.46940  0.84550  Biso   1.000  C
  C24      1.0000 0.15640  0.53060  0.15450  Biso   1.000  C
  H11      1.0000 0.87020  0.53160  0.78090  Biso   1.000  H
  H12      1.0000 0.12980  0.46840  0.21910  Biso   1.000  H
  C25      1.0000 0.72270  0.52850  0.91820  Biso   1.000  C
  C26      1.0000 0.27730  0.47150  0.08180  Biso   1.000  C
  C27      1.0000 0.68820  0.43240  0.01280  Biso   1.000  C
  C28      1.0000 0.31180  0.56760  0.98720  Biso   1.000  C
  H13      1.0000 0.60760  0.46880  0.06240  Biso   1.000  H
  H14      1.0000 0.39240  0.53120  0.93760  Biso   1.000  H
  C29      1.0000 0.77210  0.28390  0.03410  Biso   1.000  C
  C30      1.0000 0.22790  0.71610  0.96590  Biso   1.000  C
  H15      1.0000 0.74740  0.22050  0.09900  Biso   1.000  H
  H16      1.0000 0.25260  0.77950  0.90100  Biso   1.000  H
  C31      1.0000 0.63020  0.69450  0.89140  Biso   1.000  C
  C32      1.0000 0.36980  0.30550  0.10860  Biso   1.000  C
  Gd1      1.0000 0.45088  0.00119  0.83653  Biso   1.000  Gd
  Gd2      1.0000 0.54912  0.99881  0.16347  Biso   1.000  Gd
  N1       1.0000 0.94420  0.02430  0.66190  Biso   1.000  N
  N2       1.0000 0.05580  0.97570  0.33810  Biso   1.000  N
  N3       1.0000 0.02380  0.01880  0.73790  Biso   1.000  N
  N4       1.0000 0.97620  0.98120  0.26210  Biso   1.000  N
  N5       1.0000 0.95050  0.00910  0.84440  Biso   1.000  N
  N6       1.0000 0.04950  0.99090  0.15560  Biso   1.000  N
  N7       1.0000 0.09190  0.77400  0.57180  Biso   1.000  N
  N8       1.0000 0.90810  0.22600  0.42820  Biso   1.000  N
  N9       1.0000 0.88860  0.22510  0.96540  Biso   1.000  N
  N10      1.0000 0.11140  0.77490  0.03460  Biso   1.000  N
  O1       1.0000 0.66730  0.77960  0.80740  Biso   1.000  O
  O2       1.0000 0.33270  0.22040  0.19260  Biso   1.000  O
  O3       1.0000 0.51510  0.74230  0.95220  Biso   1.000  O
  O4       1.0000 0.48490  0.25770  0.04780  Biso   1.000  O
  O5       1.0000 0.34990  0.25950  0.83120  Biso   1.000  O
  O6       1.0000 0.65010  0.74050  0.16880  Biso   1.000  O
  O7       1.0000 0.26200  0.21920  0.70360  Biso   1.000  O
  O8       1.0000 0.73800  0.78080  0.29640  Biso   1.000  O
  O9       1.0000 0.58850  0.07610  0.68050  Biso   1.000  O
  O10      1.0000 0.41150  0.92390  0.31950  Biso   1.000  O
  O11      1.0000 0.76790  0.00760  0.54270  Biso   1.000  O
  O12      1.0000 0.23210  0.99240  0.45730  Biso   1.000  O
  O13      1.0000 0.61850  0.99550  0.94290  Biso   1.000  O
  O14      1.0000 0.38150  0.00450  0.05710  Biso   1.000  O
  O15      1.0000 0.77670  0.98720  0.04170  Biso   1.000  O
  O16      1.0000 0.22330  0.01280  0.95830  Biso   1.000  O
  O17      1.0000 0.36640  0.91510  0.71890  Biso   1.000  O
  O18      1.0000 0.63360  0.08490  0.28110  Biso   1.000  O
  H17      1.0000 0.42600  0.91400  0.75300  Biso   1.000  H
  H18      1.0000 0.57400  0.08600  0.24700  Biso   1.000  H
  H19      1.0000 0.40900  0.89300  0.65800  Biso   1.000  H
  H20      1.0000 0.59100  0.10700  0.34200  Biso   1.000  H
  Cu1      1.0000 0.00000  0.00000  0.00000  Biso   1.000  Cu
  Cu2      1.0000 0.00000  0.00000  0.50000  Biso   1.000  Cu
  O19      1.0000 0.52200  0.64960  0.66710  Biso   1.000  O
  O20      1.0000 0.47800  0.35040  0.33290  Biso   1.000  O
  H21      1.0000 0.52000  0.72200  0.61000  Biso   1.000  H
  H22      1.0000 0.48000  0.27800  0.39000  Biso   1.000  H
  H23      1.0000 0.50000  0.61000  0.64000  Biso   1.000  H
  H24      1.0000 0.50000  0.39000  0.36000  Biso   1.000  H
  O21      1.0000 0.41040  0.65040  0.19890  Biso   1.000  O
  O22      1.0000 0.58960  0.34960  0.80110  Biso   1.000  O
  H25      1.0000 0.37000  0.73900  0.19500  Biso   1.000  H
  H26      1.0000 0.63000  0.26100  0.80500  Biso   1.000  H
  H27      1.0000 0.45000  0.61400  0.26200  Biso   1.000  H
  H28      1.0000 0.55000  0.38600  0.73800  Biso   1.000  H
  O23      1.0000 0.26800  0.26470  0.45250  Biso   1.000  O
  O24      1.0000 0.73200  0.73530  0.54750  Biso   1.000  O
  H29      1.0000 0.36200  0.19700  0.46000  Biso   1.000  H
  H30      1.0000 0.63800  0.80300  0.54000  Biso   1.000  H
  H31      1.0000 0.22400  0.23000  0.52300  Biso   1.000  H
  H32      1.0000 0.77600  0.77000  0.47700  Biso   1.000  H
