data_image0
_cell_length_a       7.744
_cell_length_b       9.46
_cell_length_c       11.773
_cell_angle_alpha    87.109
_cell_angle_beta     83.772
_cell_angle_gamma    68.461

_symmetry_space_group_name_H-M    "P 1"
_symmetry_int_tables_number       1

loop_
  _symmetry_equiv_pos_as_xyz
  'x, y, z'

loop_
  _atom_site_label
  _atom_site_occupancy
  _atom_site_fract_x
  _atom_site_fract_y
  _atom_site_fract_z
  _atom_site_thermal_displace_type
  _atom_site_B_iso_or_equiv
  _atom_site_type_symbol
  Cu1      1.0000 0.00000  0.00000  0.50000  Biso   1.000  Cu
  Br1      1.0000 0.71466  0.59467  0.62042  Biso   1.000  Br
  Br2      1.0000 0.28534  0.40533  0.37958  Biso   1.000  Br
  F1       1.0000 0.05590  0.30040  0.80801  Biso   1.000  F
  F2       1.0000 0.94410  0.69960  0.19199  Biso   1.000  F
  F3       1.0000 0.21580  0.99600  0.13243  Biso   1.000  F
  F4       1.0000 0.78420  0.00400  0.86757  Biso   1.000  F
  N1       1.0000 0.15410  0.71350  0.77880  Biso   1.000  N
  N2       1.0000 0.84590  0.28650  0.22120  Biso   1.000  N
  N3       1.0000 0.24350  0.80750  0.80010  Biso   1.000  N
  N4       1.0000 0.75650  0.19250  0.19990  Biso   1.000  N
  N5       1.0000 0.09390  0.88140  0.64230  Biso   1.000  N
  N6       1.0000 0.90610  0.11860  0.35770  Biso   1.000  N
  N7       1.0000 0.48660  0.25790  0.65840  Biso   1.000  N
  N8       1.0000 0.51340  0.74210  0.34160  Biso   1.000  N
  N9       1.0000 0.46070  0.12370  0.67110  Biso   1.000  N
  N10      1.0000 0.53930  0.87630  0.32890  Biso   1.000  N
  N11      1.0000 0.74130  0.09110  0.58120  Biso   1.000  N
  N12      1.0000 0.25870  0.90890  0.41880  Biso   1.000  N
  O1       1.0000 0.49920  0.45130  0.84390  Biso   1.000  O
  O2       1.0000 0.50080  0.54870  0.15610  Biso   1.000  O
  H1       1.0000 0.52610  0.50730  0.79550  Biso   1.000  H
  H2       1.0000 0.47390  0.49270  0.20450  Biso   1.000  H
  O3       1.0000 0.06640  0.22050  0.55800  Biso   1.000  O
  O4       1.0000 0.93360  0.77950  0.44200  Biso   1.000  O
  H3       1.0000 0.98200  0.30380  0.58030  Biso   1.000  H
  H4       1.0000 0.01800  0.69620  0.41970  Biso   1.000  H
  H5       1.0000 0.15240  0.24920  0.52680  Biso   1.000  H
  H6       1.0000 0.84760  0.75080  0.47320  Biso   1.000  H
  C1       1.0000 0.20250  0.90650  0.71530  Biso   1.000  C
  C2       1.0000 0.79750  0.09350  0.28470  Biso   1.000  C
  H7       1.0000 0.24460  0.98710  0.70640  Biso   1.000  H
  H8       1.0000 0.75540  0.01290  0.29360  Biso   1.000  H
  C3       1.0000 0.06570  0.75940  0.68610  Biso   1.000  C
  C4       1.0000 0.93430  0.24060  0.31390  Biso   1.000  C
  H9       1.0000 0.99410  0.71270  0.65620  Biso   1.000  H
  H10      1.0000 0.00590  0.28730  0.34380  Biso   1.000  H
  C5       1.0000 0.61760  0.02760  0.62360  Biso   1.000  C
  C6       1.0000 0.38240  0.97240  0.37640  Biso   1.000  C
  H11      1.0000 0.64190  0.92410  0.61940  Biso   1.000  H
  H12      1.0000 0.35810  0.07590  0.38060  Biso   1.000  H
  C7       1.0000 0.65280  0.23610  0.60460  Biso   1.000  C
  C8       1.0000 0.34720  0.76390  0.39540  Biso   1.000  C
  H13      1.0000 0.70050  0.31220  0.58590  Biso   1.000  H
  H14      1.0000 0.29950  0.68780  0.41410  Biso   1.000  H
  C9       1.0000 0.16180  0.58230  0.85280  Biso   1.000  C
  C10      1.0000 0.83820  0.41770  0.14720  Biso   1.000  C
  H15      1.0000 0.04850  0.56200  0.84940  Biso   1.000  H
  H16      1.0000 0.95150  0.43800  0.15060  Biso   1.000  H
  H17      1.0000 0.16540  0.60790  0.93100  Biso   1.000  H
  H18      1.0000 0.83460  0.39210  0.06900  Biso   1.000  H
  C11      1.0000 0.33140  0.43580  0.82090  Biso   1.000  C
  C12      1.0000 0.66860  0.56420  0.17910  Biso   1.000  C
  C13      1.0000 0.34070  0.40190  0.69430  Biso   1.000  C
  C14      1.0000 0.65930  0.59810  0.30570  Biso   1.000  C
  H19      1.0000 0.22110  0.40020  0.67850  Biso   1.000  H
  H20      1.0000 0.77890  0.59980  0.32150  Biso   1.000  H
  H21      1.0000 0.36190  0.48360  0.64910  Biso   1.000  H
  H22      1.0000 0.63810  0.51640  0.35090  Biso   1.000  H
  C15      1.0000 0.30350  0.31350  0.90310  Biso   1.000  C
  C16      1.0000 0.69650  0.68650  0.09690  Biso   1.000  C
  C17      1.0000 0.16850  0.25260  0.89390  Biso   1.000  C
  C18      1.0000 0.83150  0.74740  0.10610  Biso   1.000  C
  C19      1.0000 0.13720  0.14450  0.96790  Biso   1.000  C
  C20      1.0000 0.86280  0.85550  0.03210  Biso   1.000  C
  H23      1.0000 0.04860  0.10290  0.95710  Biso   1.000  H
  H24      1.0000 0.95140  0.89710  0.04290  Biso   1.000  H
  C21      1.0000 0.24460  0.10160  0.05870  Biso   1.000  C
  C22      1.0000 0.75540  0.89840  0.94130  Biso   1.000  C
  C23      1.0000 0.37530  0.16080  0.07520  Biso   1.000  C
  C24      1.0000 0.62470  0.83920  0.92480  Biso   1.000  C
  H25      1.0000 0.44400  0.13100  0.13810  Biso   1.000  H
  H26      1.0000 0.55600  0.86900  0.86190  Biso   1.000  H
  C25      1.0000 0.40500  0.26620  0.99700  Biso   1.000  C
  C26      1.0000 0.59500  0.73380  0.00300  Biso   1.000  C
  H27      1.0000 0.49520  0.30610  0.00780  Biso   1.000  H
  H28      1.0000 0.50480  0.69390  0.99220  Biso   1.000  H
