data_image0
_cell_length_a       8.8608
_cell_length_b       14.2611
_cell_length_c       16.1876
_cell_angle_alpha    87.356
_cell_angle_beta     86.825
_cell_angle_gamma    75.109

_symmetry_space_group_name_H-M    "P 1"
_symmetry_int_tables_number       1

loop_
  _symmetry_equiv_pos_as_xyz
  'x, y, z'

loop_
  _atom_site_label
  _atom_site_occupancy
  _atom_site_fract_x
  _atom_site_fract_y
  _atom_site_fract_z
  _atom_site_thermal_displace_type
  _atom_site_B_iso_or_equiv
  _atom_site_type_symbol
  Cu1      1.0000 0.77891  0.63555  0.17315  Biso   1.000  Cu
  Cu2      1.0000 0.22109  0.36445  0.82685  Biso   1.000  Cu
  S1       1.0000 0.35945  0.18217  0.10725  Biso   1.000  S
  S2       1.0000 0.64055  0.81783  0.89275  Biso   1.000  S
  O1       1.0000 0.92720  0.49804  0.20005  Biso   1.000  O
  O2       1.0000 0.07280  0.50196  0.79995  Biso   1.000  O
  N1       1.0000 0.95810  0.69840  0.18654  Biso   1.000  N
  N2       1.0000 0.04190  0.30160  0.81346  Biso   1.000  N
  C1       1.0000 0.94580  0.45340  0.27040  Biso   1.000  C
  C2       1.0000 0.05420  0.54660  0.72960  Biso   1.000  C
  O3       1.0000 0.61620  0.90630  0.37562  Biso   1.000  O
  O4       1.0000 0.38380  0.09370  0.62438  Biso   1.000  O
  H1       1.0000 0.66330  0.92010  0.42190  Biso   1.000  H
  H2       1.0000 0.33670  0.07990  0.57810  Biso   1.000  H
  H3       1.0000 0.53710  0.88460  0.38880  Biso   1.000  H
  H4       1.0000 0.46290  0.11540  0.61120  Biso   1.000  H
  Cu3      1.0000 0.50000  0.00000  0.50000  Biso   1.000  Cu
  O5       1.0000 0.86800  0.47760  0.33410  Biso   1.000  O
  O6       1.0000 0.13200  0.52240  0.66590  Biso   1.000  O
  N3       1.0000 0.23610  0.63930  0.39900  Biso   1.000  N
  N4       1.0000 0.76390  0.36070  0.60100  Biso   1.000  N
  H5       1.0000 0.14880  0.62350  0.39850  Biso   1.000  H
  H6       1.0000 0.85120  0.37650  0.60150  Biso   1.000  H
  C3       1.0000 0.08250  0.36200  0.27130  Biso   1.000  C
  C4       1.0000 0.91750  0.63800  0.72870  Biso   1.000  C
  O7       1.0000 0.48570  0.10130  0.13100  Biso   1.000  O
  O8       1.0000 0.51430  0.89870  0.86900  Biso   1.000  O
  N5       1.0000 0.59330  0.57850  0.15703  Biso   1.000  N
  N6       1.0000 0.40670  0.42150  0.84297  Biso   1.000  N
  C5       1.0000 0.15120  0.32090  0.19820  Biso   1.000  C
  C6       1.0000 0.84880  0.67910  0.80180  Biso   1.000  C
  H7       1.0000 0.11470  0.34830  0.14750  Biso   1.000  H
  H8       1.0000 0.88530  0.65170  0.85250  Biso   1.000  H
  O9       1.0000 0.41370  0.25470  0.05920  Biso   1.000  O
  O10      1.0000 0.58630  0.74530  0.94080  Biso   1.000  O
  N7       1.0000 0.32670  0.66620  0.94590  Biso   1.000  N
  N8       1.0000 0.67330  0.33380  0.05410  Biso   1.000  N
  H9       1.0000 0.41330  0.68040  0.95380  Biso   1.000  H
  H10      1.0000 0.58670  0.31960  0.04620  Biso   1.000  H
  C7       1.0000 0.27510  0.23850  0.20100  Biso   1.000  C
  C8       1.0000 0.72490  0.76150  0.79900  Biso   1.000  C
  O11      1.0000 0.23810  0.15450  0.06750  Biso   1.000  O
  O12      1.0000 0.76190  0.84550  0.93250  Biso   1.000  O
  N9       1.0000 0.91170  0.00570  0.74015  Biso   1.000  N
  N10      1.0000 0.08830  0.99430  0.25985  Biso   1.000  N
  H11      1.0000 0.81410  0.00780  0.73790  Biso   1.000  H
  H12      1.0000 0.18590  0.99220  0.26210  Biso   1.000  H
  C9       1.0000 0.33030  0.19800  0.27590  Biso   1.000  C
  C10      1.0000 0.66970  0.80200  0.72410  Biso   1.000  C
  H13      1.0000 0.41390  0.14300  0.27720  Biso   1.000  H
  H14      1.0000 0.58610  0.85700  0.72280  Biso   1.000  H
  O13      1.0000 0.41380  0.10741  0.42366  Biso   1.000  O
  O14      1.0000 0.58620  0.89259  0.57634  Biso   1.000  O
  N11      1.0000 0.68830  0.05660  0.51386  Biso   1.000  N
  N12      1.0000 0.31170  0.94340  0.48614  Biso   1.000  N
  C11      1.0000 0.26130  0.23910  0.34990  Biso   1.000  C
  C12      1.0000 0.73870  0.76090  0.65010  Biso   1.000  C
  O15      1.0000 0.27620  0.23170  0.49691  Biso   1.000  O
  O16      1.0000 0.72380  0.76830  0.50309  Biso   1.000  O
  C13      1.0000 0.32150  0.19040  0.43120  Biso   1.000  C
  C14      1.0000 0.67850  0.80960  0.56880  Biso   1.000  C
  O17      1.0000 0.84600  0.61260  0.04601  Biso   1.000  O
  O18      1.0000 0.15400  0.38740  0.95399  Biso   1.000  O
  H15      1.0000 0.86910  0.63780  0.00000  Biso   1.000  H
  H16      1.0000 0.13090  0.36220  0.00000  Biso   1.000  H
  H17      1.0000 0.84660  0.55400  0.03790  Biso   1.000  H
  H18      1.0000 0.15340  0.44600  0.96210  Biso   1.000  H
  C15      1.0000 0.13670  0.32100  0.34680  Biso   1.000  C
  C16      1.0000 0.86330  0.67900  0.65320  Biso   1.000  C
  H19      1.0000 0.08930  0.34860  0.39560  Biso   1.000  H
  H20      1.0000 0.91070  0.65140  0.60440  Biso   1.000  H
  O19      1.0000 0.62720  0.78020  0.13390  Biso   1.000  O
  O20      1.0000 0.37280  0.21980  0.86610  Biso   1.000  O
  H21      1.0000 0.62160  0.80240  0.08420  Biso   1.000  H
  H22      1.0000 0.37840  0.19760  0.91580  Biso   1.000  H
  H23      1.0000 0.58300  0.82670  0.16510  Biso   1.000  H
  H24      1.0000 0.41700  0.17330  0.83490  Biso   1.000  H
  C17      1.0000 0.04670  0.67740  0.25270  Biso   1.000  C
  C18      1.0000 0.95330  0.32260  0.74730  Biso   1.000  C
  H25      1.0000 0.02090  0.63640  0.29440  Biso   1.000  H
  H26      1.0000 0.97910  0.36360  0.70560  Biso   1.000  H
  O21      1.0000 0.70760  0.66630  0.29780  Biso   1.000  O
  O22      1.0000 0.29240  0.33370  0.70220  Biso   1.000  O
  H27      1.0000 0.73110  0.62150  0.33490  Biso   1.000  H
  H28      1.0000 0.26890  0.37850  0.66510  Biso   1.000  H
  H29      1.0000 0.64280  0.71430  0.31970  Biso   1.000  H
  H30      1.0000 0.35720  0.28570  0.68030  Biso   1.000  H
  C19      1.0000 0.17510  0.71410  0.26160  Biso   1.000  C
  C20      1.0000 0.82490  0.28590  0.73840  Biso   1.000  C
  O23      1.0000 0.40200  0.71480  0.33130  Biso   1.000  O
  O24      1.0000 0.59800  0.28520  0.66870  Biso   1.000  O
  C21      1.0000 0.27950  0.68910  0.33420  Biso   1.000  C
  C22      1.0000 0.72050  0.31090  0.66580  Biso   1.000  C
  O25      1.0000 0.15960  0.58080  0.99400  Biso   1.000  O
  O26      1.0000 0.84040  0.41920  0.00600  Biso   1.000  O
  C23      1.0000 0.33230  0.61080  0.47070  Biso   1.000  C
  C24      1.0000 0.66770  0.38920  0.52930  Biso   1.000  C
  H31      1.0000 0.26490  0.60780  0.51950  Biso   1.000  H
  H32      1.0000 0.73510  0.39220  0.48050  Biso   1.000  H
  H33      1.0000 0.38740  0.66010  0.47890  Biso   1.000  H
  H34      1.0000 0.61260  0.33990  0.52110  Biso   1.000  H
  O27      1.0000 0.11950  0.04560  0.67815  Biso   1.000  O
  O28      1.0000 0.88050  0.95440  0.32185  Biso   1.000  O
  C25      1.0000 0.44960  0.51410  0.46180  Biso   1.000  C
  C26      1.0000 0.55040  0.48590  0.53820  Biso   1.000  C
  H35      1.0000 0.51710  0.51680  0.41300  Biso   1.000  H
  H36      1.0000 0.48290  0.48320  0.58700  Biso   1.000  H
  H37      1.0000 0.39480  0.46460  0.45410  Biso   1.000  H
  H38      1.0000 0.60520  0.53540  0.54590  Biso   1.000  H
  C27      1.0000 0.21250  0.77510  0.19900  Biso   1.000  C
  C28      1.0000 0.78750  0.22490  0.80100  Biso   1.000  C
  H39      1.0000 0.29870  0.80040  0.20270  Biso   1.000  H
  H40      1.0000 0.70130  0.19960  0.79730  Biso   1.000  H
  C29      1.0000 0.12010  0.79800  0.13090  Biso   1.000  C
  C30      1.0000 0.87990  0.20200  0.86910  Biso   1.000  C
  H41      1.0000 0.14300  0.83910  0.08850  Biso   1.000  H
  H42      1.0000 0.85700  0.16090  0.91150  Biso   1.000  H
  C31      1.0000 0.99450  0.75910  0.12720  Biso   1.000  C
  C32      1.0000 0.00550  0.24090  0.87280  Biso   1.000  C
  H43      1.0000 0.93190  0.77540  0.08180  Biso   1.000  H
  H44      1.0000 0.06810  0.22460  0.91820  Biso   1.000  H
  C33      1.0000 0.50770  0.60670  0.09050  Biso   1.000  C
  C34      1.0000 0.49230  0.39330  0.90950  Biso   1.000  C
  H45      1.0000 0.53790  0.64970  0.05210  Biso   1.000  H
  H46      1.0000 0.46210  0.35030  0.94790  Biso   1.000  H
  C35      1.0000 0.37620  0.57520  0.07580  Biso   1.000  C
  C36      1.0000 0.62380  0.42480  0.92420  Biso   1.000  C
  C37      1.0000 0.27880  0.60850  0.00130  Biso   1.000  C
  C38      1.0000 0.72120  0.39150  0.99870  Biso   1.000  C
  C39      1.0000 0.24370  0.70760  0.87240  Biso   1.000  C
  C40      1.0000 0.75630  0.29240  0.12760  Biso   1.000  C
  H47      1.0000 0.17190  0.66950  0.86020  Biso   1.000  H
  H48      1.0000 0.82810  0.33050  0.13980  Biso   1.000  H
  H49      1.0000 0.31830  0.70400  0.82570  Biso   1.000  H
  H50      1.0000 0.68170  0.29600  0.17430  Biso   1.000  H
  C41      1.0000 0.15420  0.81120  0.88250  Biso   1.000  C
  C42      1.0000 0.84580  0.18880  0.11750  Biso   1.000  C
  H51      1.0000 0.22300  0.84730  0.90270  Biso   1.000  H
  H52      1.0000 0.77700  0.15270  0.09730  Biso   1.000  H
  H53      1.0000 0.06970  0.81370  0.92380  Biso   1.000  H
  H54      1.0000 0.93030  0.18630  0.07620  Biso   1.000  H
  C43      1.0000 0.08640  0.85940  0.80190  Biso   1.000  C
  C44      1.0000 0.91360  0.14060  0.19810  Biso   1.000  C
  H55      1.0000 0.17090  0.85850  0.76090  Biso   1.000  H
  H56      1.0000 0.82910  0.14150  0.23910  Biso   1.000  H
  H57      1.0000 0.01910  0.82290  0.78110  Biso   1.000  H
  H58      1.0000 0.98090  0.17710  0.21890  Biso   1.000  H
  C45      1.0000 0.99400  0.96300  0.81410  Biso   1.000  C
  C46      1.0000 0.00600  0.03700  0.18590  Biso   1.000  C
  H59      1.0000 0.91870  0.96480  0.86020  Biso   1.000  H
  H60      1.0000 0.08130  0.03520  0.13980  Biso   1.000  H
  H61      1.0000 0.06430  0.00150  0.82790  Biso   1.000  H
  H62      1.0000 0.93570  0.99850  0.17210  Biso   1.000  H
  C47      1.0000 0.98260  0.04130  0.67620  Biso   1.000  C
  C48      1.0000 0.01740  0.95870  0.32380  Biso   1.000  C
  C49      1.0000 0.89290  0.07190  0.59970  Biso   1.000  C
  C50      1.0000 0.10710  0.92810  0.40030  Biso   1.000  C
  C51      1.0000 0.76540  0.03700  0.58420  Biso   1.000  C
  C52      1.0000 0.23460  0.96300  0.41580  Biso   1.000  C
  H63      1.0000 0.73130  0.99800  0.62480  Biso   1.000  H
  H64      1.0000 0.26870  0.00200  0.37520  Biso   1.000  H
  C53      1.0000 0.73780  0.11370  0.45590  Biso   1.000  C
  C54      1.0000 0.26220  0.88630  0.54410  Biso   1.000  C
  H65      1.0000 0.68530  0.12840  0.40680  Biso   1.000  H
  H66      1.0000 0.31470  0.87160  0.59320  Biso   1.000  H
  C55      1.0000 0.86420  0.15150  0.46650  Biso   1.000  C
  C56      1.0000 0.13580  0.84850  0.53350  Biso   1.000  C
  H67      1.0000 0.89550  0.19100  0.42530  Biso   1.000  H
  H68      1.0000 0.10450  0.80900  0.57470  Biso   1.000  H
  C57      1.0000 0.94340  0.13000  0.53900  Biso   1.000  C
  C58      1.0000 0.05660  0.87000  0.46100  Biso   1.000  C
  H69      1.0000 0.02930  0.15420  0.54690  Biso   1.000  H
  H70      1.0000 0.97070  0.84580  0.45310  Biso   1.000  H
  C59      1.0000 0.33070  0.51190  0.13390  Biso   1.000  C
  C60      1.0000 0.66930  0.48810  0.86610  Biso   1.000  C
  H71      1.0000 0.24230  0.48990  0.12670  Biso   1.000  H
  H72      1.0000 0.75770  0.51010  0.87330  Biso   1.000  H
  C61      1.0000 0.41870  0.48230  0.20210  Biso   1.000  C
  C62      1.0000 0.58130  0.51770  0.79790  Biso   1.000  C
  H73      1.0000 0.39040  0.43970  0.24160  Biso   1.000  H
  H74      1.0000 0.60960  0.56030  0.75840  Biso   1.000  H
  C63      1.0000 0.54900  0.51600  0.21200  Biso   1.000  C
  C64      1.0000 0.45100  0.48400  0.78800  Biso   1.000  C
  H75      1.0000 0.60810  0.49480  0.25820  Biso   1.000  H
  H76      1.0000 0.39190  0.50520  0.74180  Biso   1.000  H
  O29      1.0000 0.44080  0.93820  0.23260  Biso   1.000  O
  O30      1.0000 0.55920  0.06180  0.76740  Biso   1.000  O
  H77      1.0000 0.48680  0.95310  0.27890  Biso   1.000  H
  H78      1.0000 0.51320  0.04690  0.72110  Biso   1.000  H
  H79      1.0000 0.45840  0.98650  0.20470  Biso   1.000  H
  H80      1.0000 0.54160  0.01350  0.79530  Biso   1.000  H
  O31      1.0000 0.94710  0.59930  0.45180  Biso   1.000  O
  O32      1.0000 0.05290  0.40070  0.54820  Biso   1.000  O
  O33      1.0000 0.30920  0.95400  0.01630  Biso   1.000  O
  O34      1.0000 0.69080  0.04600  0.98370  Biso   1.000  O
