data_image0
_cell_length_a       10.523
_cell_length_b       10.849
_cell_length_c       22.963
_cell_angle_alpha    90
_cell_angle_beta     86.316
_cell_angle_gamma    90

_symmetry_space_group_name_H-M    "P 1"
_symmetry_int_tables_number       1

loop_
  _symmetry_equiv_pos_as_xyz
  'x, y, z'

loop_
  _atom_site_label
  _atom_site_occupancy
  _atom_site_fract_x
  _atom_site_fract_y
  _atom_site_fract_z
  _atom_site_thermal_displace_type
  _atom_site_B_iso_or_equiv
  _atom_site_type_symbol
  Cu1      1.0000 0.18497  0.78192  0.11157  Biso   1.000  Cu
  Cu2      1.0000 0.81503  0.28192  0.38843  Biso   1.000  Cu
  Cu3      1.0000 0.81503  0.21808  0.88843  Biso   1.000  Cu
  Cu4      1.0000 0.18497  0.71808  0.61157  Biso   1.000  Cu
  O1       1.0000 0.18820  0.96170  0.09892  Biso   1.000  O
  O2       1.0000 0.81180  0.46170  0.40108  Biso   1.000  O
  O3       1.0000 0.81180  0.03830  0.90108  Biso   1.000  O
  O4       1.0000 0.18820  0.53830  0.59892  Biso   1.000  O
  N1       1.0000 0.12700  0.81120  0.19443  Biso   1.000  N
  N2       1.0000 0.87300  0.31120  0.30557  Biso   1.000  N
  N3       1.0000 0.87300  0.18880  0.80557  Biso   1.000  N
  N4       1.0000 0.12700  0.68880  0.69443  Biso   1.000  N
  C1       1.0000 0.27460  0.01270  0.13230  Biso   1.000  C
  C2       1.0000 0.72540  0.51270  0.36770  Biso   1.000  C
  C3       1.0000 0.72540  0.98730  0.86770  Biso   1.000  C
  C4       1.0000 0.27460  0.48730  0.63230  Biso   1.000  C
  O5       1.0000 0.98950  0.76040  0.06843  Biso   1.000  O
  O6       1.0000 0.01050  0.26040  0.43157  Biso   1.000  O
  O7       1.0000 0.01050  0.23960  0.93157  Biso   1.000  O
  O8       1.0000 0.98950  0.73960  0.56843  Biso   1.000  O
  H1       1.0000 0.94450  0.69700  0.06010  Biso   1.000  H
  H2       1.0000 0.05550  0.19700  0.43990  Biso   1.000  H
  H3       1.0000 0.05550  0.30300  0.93990  Biso   1.000  H
  H4       1.0000 0.94450  0.80300  0.56010  Biso   1.000  H
  H5       1.0000 0.97880  0.79320  0.10140  Biso   1.000  H
  H6       1.0000 0.02120  0.29320  0.39860  Biso   1.000  H
  H7       1.0000 0.02120  0.20680  0.89860  Biso   1.000  H
  H8       1.0000 0.97880  0.70680  0.60140  Biso   1.000  H
  O9       1.0000 0.35500  0.95390  0.16352  Biso   1.000  O
  O10      1.0000 0.64500  0.45390  0.33648  Biso   1.000  O
  O11      1.0000 0.64500  0.04610  0.83648  Biso   1.000  O
  O12      1.0000 0.35500  0.54610  0.66352  Biso   1.000  O
  N5       1.0000 0.29300  0.60950  0.33550  Biso   1.000  N
  N6       1.0000 0.70700  0.10950  0.16450  Biso   1.000  N
  N7       1.0000 0.70700  0.39050  0.66450  Biso   1.000  N
  N8       1.0000 0.29300  0.89050  0.83550  Biso   1.000  N
  H9       1.0000 0.34280  0.63510  0.30690  Biso   1.000  H
  H10      1.0000 0.65720  0.13510  0.19310  Biso   1.000  H
  H11      1.0000 0.65720  0.36490  0.69310  Biso   1.000  H
  H12      1.0000 0.34280  0.86490  0.80690  Biso   1.000  H
  C5       1.0000 0.27800  0.15240  0.13260  Biso   1.000  C
  C6       1.0000 0.72200  0.65240  0.36740  Biso   1.000  C
  C7       1.0000 0.72200  0.84760  0.86740  Biso   1.000  C
  C8       1.0000 0.27800  0.34760  0.63260  Biso   1.000  C
  O13      1.0000 0.42390  0.51150  0.23436  Biso   1.000  O
  O14      1.0000 0.57610  0.01150  0.26564  Biso   1.000  O
  O15      1.0000 0.57610  0.48850  0.76564  Biso   1.000  O
  O16      1.0000 0.42390  0.98850  0.73436  Biso   1.000  O
  N9       1.0000 0.26680  0.74670  0.53457  Biso   1.000  N
  N10      1.0000 0.73320  0.24670  0.96543  Biso   1.000  N
  N11      1.0000 0.73320  0.25330  0.46543  Biso   1.000  N
  N12      1.0000 0.26680  0.75330  0.03457  Biso   1.000  N
  C9       1.0000 0.36050  0.21330  0.17240  Biso   1.000  C
  C10      1.0000 0.63950  0.71330  0.32760  Biso   1.000  C
  C11      1.0000 0.63950  0.78670  0.82760  Biso   1.000  C
  C12      1.0000 0.36050  0.28670  0.67240  Biso   1.000  C
  H13      1.0000 0.40860  0.16680  0.19700  Biso   1.000  H
  H14      1.0000 0.59140  0.66680  0.30300  Biso   1.000  H
  H15      1.0000 0.59140  0.83320  0.80300  Biso   1.000  H
  H16      1.0000 0.40860  0.33320  0.69700  Biso   1.000  H
  O17      1.0000 0.54410  0.34310  0.24299  Biso   1.000  O
  O18      1.0000 0.45590  0.84310  0.25701  Biso   1.000  O
  O19      1.0000 0.45590  0.65690  0.75701  Biso   1.000  O
  O20      1.0000 0.54410  0.15690  0.74299  Biso   1.000  O
  N13      1.0000 0.32070  0.04850  0.38640  Biso   1.000  N
  N14      1.0000 0.67930  0.54850  0.11360  Biso   1.000  N
  N15      1.0000 0.67930  0.95150  0.61360  Biso   1.000  N
  N16      1.0000 0.32070  0.45150  0.88640  Biso   1.000  N
  H17      1.0000 0.39720  0.02110  0.38080  Biso   1.000  H
  H18      1.0000 0.60280  0.52110  0.11920  Biso   1.000  H
  H19      1.0000 0.60280  0.97890  0.61920  Biso   1.000  H
  H20      1.0000 0.39720  0.47890  0.88080  Biso   1.000  H
  C13      1.0000 0.36670  0.34200  0.17340  Biso   1.000  C
  C14      1.0000 0.63330  0.84200  0.32660  Biso   1.000  C
  C15      1.0000 0.63330  0.65800  0.82660  Biso   1.000  C
  C16      1.0000 0.36670  0.15800  0.67340  Biso   1.000  C
  O21      1.0000 0.19910  0.60720  0.12949  Biso   1.000  O
  O22      1.0000 0.80090  0.10720  0.37051  Biso   1.000  O
  O23      1.0000 0.80090  0.39280  0.87051  Biso   1.000  O
  O24      1.0000 0.19910  0.89280  0.62949  Biso   1.000  O
  C17      1.0000 0.44830  0.40710  0.21890  Biso   1.000  C
  C18      1.0000 0.55170  0.90710  0.28110  Biso   1.000  C
  C19      1.0000 0.55170  0.59290  0.78110  Biso   1.000  C
  C20      1.0000 0.44830  0.09290  0.71890  Biso   1.000  C
  O25      1.0000 0.40850  0.58850  0.11446  Biso   1.000  O
  O26      1.0000 0.59150  0.08850  0.38554  Biso   1.000  O
  O27      1.0000 0.59150  0.41150  0.88554  Biso   1.000  O
  O28      1.0000 0.40850  0.91150  0.61446  Biso   1.000  O
  C21      1.0000 0.29040  0.40820  0.13280  Biso   1.000  C
  C22      1.0000 0.70960  0.90820  0.36720  Biso   1.000  C
  C23      1.0000 0.70960  0.59180  0.86720  Biso   1.000  C
  C24      1.0000 0.29040  0.09180  0.63280  Biso   1.000  C
  O29      1.0000 0.11970  0.64860  0.38544  Biso   1.000  O
  O30      1.0000 0.88030  0.14860  0.11456  Biso   1.000  O
  O31      1.0000 0.88030  0.35140  0.61456  Biso   1.000  O
  O32      1.0000 0.11970  0.85140  0.88544  Biso   1.000  O
  C25      1.0000 0.30350  0.54700  0.12580  Biso   1.000  C
  C26      1.0000 0.69650  0.04700  0.37420  Biso   1.000  C
  C27      1.0000 0.69650  0.45300  0.87420  Biso   1.000  C
  C28      1.0000 0.30350  0.95300  0.62580  Biso   1.000  C
  O33      1.0000 0.13750  0.03340  0.43142  Biso   1.000  O
  O34      1.0000 0.86250  0.53340  0.06858  Biso   1.000  O
  O35      1.0000 0.86250  0.96660  0.56858  Biso   1.000  O
  O36      1.0000 0.13750  0.46660  0.93142  Biso   1.000  O
  C29      1.0000 0.20800  0.34710  0.09450  Biso   1.000  C
  C30      1.0000 0.79200  0.84710  0.40550  Biso   1.000  C
  C31      1.0000 0.79200  0.65290  0.90550  Biso   1.000  C
  C32      1.0000 0.20800  0.15290  0.59450  Biso   1.000  C
  H21      1.0000 0.16000  0.39360  0.06990  Biso   1.000  H
  H22      1.0000 0.84000  0.89360  0.43010  Biso   1.000  H
  H23      1.0000 0.84000  0.60640  0.93010  Biso   1.000  H
  H24      1.0000 0.16000  0.10640  0.56990  Biso   1.000  H
  C33      1.0000 0.19920  0.21930  0.09390  Biso   1.000  C
  C34      1.0000 0.80080  0.71930  0.40610  Biso   1.000  C
  C35      1.0000 0.80080  0.78070  0.90610  Biso   1.000  C
  C36      1.0000 0.19920  0.28070  0.59390  Biso   1.000  C
  H25      1.0000 0.14510  0.17860  0.06980  Biso   1.000  H
  H26      1.0000 0.85490  0.67860  0.43020  Biso   1.000  H
  H27      1.0000 0.85490  0.82140  0.93020  Biso   1.000  H
  H28      1.0000 0.14510  0.32140  0.56980  Biso   1.000  H
  C37      1.0000 0.16890  0.73790  0.23830  Biso   1.000  C
  C38      1.0000 0.83110  0.23790  0.26170  Biso   1.000  C
  C39      1.0000 0.83110  0.26210  0.76170  Biso   1.000  C
  C40      1.0000 0.16890  0.76210  0.73830  Biso   1.000  C
  H29      1.0000 0.22270  0.67270  0.22740  Biso   1.000  H
  H30      1.0000 0.77730  0.17270  0.27260  Biso   1.000  H
  H31      1.0000 0.77730  0.32730  0.77260  Biso   1.000  H
  H32      1.0000 0.22270  0.82730  0.72740  Biso   1.000  H
  C41      1.0000 0.13820  0.75330  0.29550  Biso   1.000  C
  C42      1.0000 0.86180  0.25330  0.20450  Biso   1.000  C
  C43      1.0000 0.86180  0.24670  0.70450  Biso   1.000  C
  C44      1.0000 0.13820  0.74670  0.79550  Biso   1.000  C
  C45      1.0000 0.18300  0.66680  0.34330  Biso   1.000  C
  C46      1.0000 0.81700  0.16680  0.15670  Biso   1.000  C
  C47      1.0000 0.81700  0.33320  0.65670  Biso   1.000  C
  C48      1.0000 0.18300  0.83320  0.84330  Biso   1.000  C
  C49      1.0000 0.34150  0.50630  0.37000  Biso   1.000  C
  C50      1.0000 0.65850  0.00630  0.13000  Biso   1.000  C
  C51      1.0000 0.65850  0.49370  0.63000  Biso   1.000  C
  C52      1.0000 0.34150  0.99370  0.87000  Biso   1.000  C
  H33      1.0000 0.32060  0.51980  0.41130  Biso   1.000  H
  H34      1.0000 0.67940  0.01980  0.08870  Biso   1.000  H
  H35      1.0000 0.67940  0.48020  0.58870  Biso   1.000  H
  H36      1.0000 0.32060  0.98020  0.91130  Biso   1.000  H
  H37      1.0000 0.43340  0.50050  0.36380  Biso   1.000  H
  H38      1.0000 0.56660  0.00050  0.13620  Biso   1.000  H
  H39      1.0000 0.56660  0.49950  0.63620  Biso   1.000  H
  H40      1.0000 0.43340  0.99950  0.86380  Biso   1.000  H
  C53      1.0000 0.27820  0.38590  0.34990  Biso   1.000  C
  C54      1.0000 0.72180  0.88590  0.15010  Biso   1.000  C
  C55      1.0000 0.72180  0.61410  0.65010  Biso   1.000  C
  C56      1.0000 0.27820  0.11410  0.84990  Biso   1.000  C
  H41      1.0000 0.18690  0.39080  0.35840  Biso   1.000  H
  H42      1.0000 0.81310  0.89080  0.14160  Biso   1.000  H
  H43      1.0000 0.81310  0.60920  0.64160  Biso   1.000  H
  H44      1.0000 0.18690  0.10920  0.85840  Biso   1.000  H
  H45      1.0000 0.29400  0.37670  0.30800  Biso   1.000  H
  H46      1.0000 0.70600  0.87670  0.19200  Biso   1.000  H
  H47      1.0000 0.70600  0.62330  0.69200  Biso   1.000  H
  H48      1.0000 0.29400  0.12330  0.80800  Biso   1.000  H
  C57      1.0000 0.33060  0.27370  0.38070  Biso   1.000  C
  C58      1.0000 0.66940  0.77370  0.11930  Biso   1.000  C
  C59      1.0000 0.66940  0.72630  0.61930  Biso   1.000  C
  C60      1.0000 0.33060  0.22630  0.88070  Biso   1.000  C
  H49      1.0000 0.30250  0.27500  0.42170  Biso   1.000  H
  H50      1.0000 0.69750  0.77500  0.07830  Biso   1.000  H
  H51      1.0000 0.69750  0.72500  0.57830  Biso   1.000  H
  H52      1.0000 0.30250  0.22500  0.92170  Biso   1.000  H
  H53      1.0000 0.42290  0.27500  0.37740  Biso   1.000  H
  H54      1.0000 0.57710  0.77500  0.12260  Biso   1.000  H
  H55      1.0000 0.57710  0.72500  0.62260  Biso   1.000  H
  H56      1.0000 0.42290  0.22500  0.87740  Biso   1.000  H
  C61      1.0000 0.05900  0.85070  0.30810  Biso   1.000  C
  C62      1.0000 0.94100  0.35070  0.19190  Biso   1.000  C
  C63      1.0000 0.94100  0.14930  0.69190  Biso   1.000  C
  C64      1.0000 0.05900  0.64930  0.80810  Biso   1.000  C
  H57      1.0000 0.03230  0.86720  0.34680  Biso   1.000  H
  H58      1.0000 0.96770  0.36720  0.15320  Biso   1.000  H
  H59      1.0000 0.96770  0.13280  0.65320  Biso   1.000  H
  H60      1.0000 0.03230  0.63280  0.84680  Biso   1.000  H
  C65      1.0000 0.01650  0.92770  0.26270  Biso   1.000  C
  C66      1.0000 0.98350  0.42770  0.23730  Biso   1.000  C
  C67      1.0000 0.98350  0.07230  0.73730  Biso   1.000  C
  C68      1.0000 0.01650  0.57230  0.76270  Biso   1.000  C
  H61      1.0000 0.96320  0.99410  0.27210  Biso   1.000  H
  H62      1.0000 0.03680  0.49410  0.22790  Biso   1.000  H
  H63      1.0000 0.03680  0.00590  0.72790  Biso   1.000  H
  H64      1.0000 0.96320  0.50590  0.77210  Biso   1.000  H
  C69      1.0000 0.05240  0.90550  0.20730  Biso   1.000  C
  C70      1.0000 0.94760  0.40550  0.29270  Biso   1.000  C
  C71      1.0000 0.94760  0.09450  0.79270  Biso   1.000  C
  C72      1.0000 0.05240  0.59450  0.70730  Biso   1.000  C
  H65      1.0000 0.02490  0.95610  0.17800  Biso   1.000  H
  H66      1.0000 0.97510  0.45610  0.32200  Biso   1.000  H
  H67      1.0000 0.97510  0.04390  0.82200  Biso   1.000  H
  H68      1.0000 0.02490  0.54390  0.67800  Biso   1.000  H
  C73      1.0000 0.23010  0.84130  0.50060  Biso   1.000  C
  C74      1.0000 0.76990  0.34130  0.99940  Biso   1.000  C
  C75      1.0000 0.76990  0.15870  0.49940  Biso   1.000  C
  C76      1.0000 0.23010  0.65870  0.00060  Biso   1.000  C
  H69      1.0000 0.14990  0.87510  0.50910  Biso   1.000  H
  H70      1.0000 0.85010  0.37510  0.99090  Biso   1.000  H
  H71      1.0000 0.85010  0.12490  0.49090  Biso   1.000  H
  H72      1.0000 0.14990  0.62490  0.00910  Biso   1.000  H
  C77      1.0000 0.29900  0.88790  0.45720  Biso   1.000  C
  C78      1.0000 0.70100  0.38790  0.04280  Biso   1.000  C
  C79      1.0000 0.70100  0.11210  0.54280  Biso   1.000  C
  C80      1.0000 0.29900  0.61210  0.95720  Biso   1.000  C
  C81      1.0000 0.24440  0.99570  0.42470  Biso   1.000  C
  C82      1.0000 0.75560  0.49570  0.07530  Biso   1.000  C
  C83      1.0000 0.75560  0.00430  0.57530  Biso   1.000  C
  C84      1.0000 0.24440  0.50430  0.92470  Biso   1.000  C
  C85      1.0000 0.28070  0.15530  0.35130  Biso   1.000  C
  C86      1.0000 0.71930  0.65530  0.14870  Biso   1.000  C
  C87      1.0000 0.71930  0.84470  0.64870  Biso   1.000  C
  C88      1.0000 0.28070  0.34470  0.85130  Biso   1.000  C
  H73      1.0000 0.31660  0.14870  0.31150  Biso   1.000  H
  H74      1.0000 0.68340  0.64870  0.18850  Biso   1.000  H
  H75      1.0000 0.68340  0.85130  0.68850  Biso   1.000  H
  H76      1.0000 0.31660  0.35130  0.81150  Biso   1.000  H
  H77      1.0000 0.18870  0.15780  0.35080  Biso   1.000  H
  H78      1.0000 0.81130  0.65780  0.14920  Biso   1.000  H
  H79      1.0000 0.81130  0.84220  0.64920  Biso   1.000  H
  H80      1.0000 0.18870  0.34220  0.85080  Biso   1.000  H
  C89      1.0000 0.41350  0.82970  0.44690  Biso   1.000  C
  C90      1.0000 0.58650  0.32970  0.05310  Biso   1.000  C
  C91      1.0000 0.58650  0.17030  0.55310  Biso   1.000  C
  C92      1.0000 0.41350  0.67030  0.94690  Biso   1.000  C
  H81      1.0000 0.46870  0.85740  0.41650  Biso   1.000  H
  H82      1.0000 0.53130  0.35740  0.08350  Biso   1.000  H
  H83      1.0000 0.53130  0.14260  0.58350  Biso   1.000  H
  H84      1.0000 0.46870  0.64260  0.91650  Biso   1.000  H
  C93      1.0000 0.45090  0.72930  0.48070  Biso   1.000  C
  C94      1.0000 0.54910  0.22930  0.01930  Biso   1.000  C
  C95      1.0000 0.54910  0.27070  0.51930  Biso   1.000  C
  C96      1.0000 0.45090  0.77070  0.98070  Biso   1.000  C
  H85      1.0000 0.52860  0.69070  0.47180  Biso   1.000  H
  H86      1.0000 0.47140  0.19070  0.02820  Biso   1.000  H
  H87      1.0000 0.47140  0.30930  0.52820  Biso   1.000  H
  H88      1.0000 0.52860  0.80930  0.97180  Biso   1.000  H
  C97      1.0000 0.37680  0.69100  0.52390  Biso   1.000  C
  C98      1.0000 0.62320  0.19100  0.97610  Biso   1.000  C
  C99      1.0000 0.62320  0.30900  0.47610  Biso   1.000  C
  C100     1.0000 0.37680  0.80900  0.02390  Biso   1.000  C
  H89      1.0000 0.40060  0.62550  0.54690  Biso   1.000  H
  H90      1.0000 0.59940  0.12550  0.95310  Biso   1.000  H
  H91      1.0000 0.59940  0.37450  0.45310  Biso   1.000  H
  H92      1.0000 0.40060  0.87450  0.04690  Biso   1.000  H
  O37      1.0000 0.86650  0.97150  0.02411  Biso   1.000  O
  O38      1.0000 0.13350  0.47150  0.47589  Biso   1.000  O
  O39      1.0000 0.13350  0.02850  0.97589  Biso   1.000  O
  O40      1.0000 0.86650  0.52850  0.52411  Biso   1.000  O
  H93      1.0000 0.85460  0.05640  0.02570  Biso   1.000  H
  H94      1.0000 0.14540  0.55640  0.47430  Biso   1.000  H
  H95      1.0000 0.14540  0.94360  0.97430  Biso   1.000  H
  H96      1.0000 0.85460  0.44360  0.52570  Biso   1.000  H
  H97      1.0000 0.91010  0.92210  0.04610  Biso   1.000  H
  H98      1.0000 0.08990  0.42210  0.45390  Biso   1.000  H
  H99      1.0000 0.08990  0.07790  0.95390  Biso   1.000  H
  H100     1.0000 0.91010  0.57790  0.54610  Biso   1.000  H
