data_image0
_cell_length_a       18.438
_cell_length_b       18.438
_cell_length_c       18.792
_cell_angle_alpha    90
_cell_angle_beta     90
_cell_angle_gamma    120

_symmetry_space_group_name_H-M    "P 1"
_symmetry_int_tables_number       1

loop_
  _symmetry_equiv_pos_as_xyz
  'x, y, z'

loop_
  _atom_site_label
  _atom_site_occupancy
  _atom_site_fract_x
  _atom_site_fract_y
  _atom_site_fract_z
  _atom_site_thermal_displace_type
  _atom_site_B_iso_or_equiv
  _atom_site_type_symbol
  Cu1      1.0000 0.54316  0.35806  0.32706  Biso   1.000  Cu
  Cu2      1.0000 0.18510  0.54316  0.82706  Biso   1.000  Cu
  Cu3      1.0000 0.64194  0.18510  0.32706  Biso   1.000  Cu
  Cu4      1.0000 0.45684  0.64194  0.82706  Biso   1.000  Cu
  Cu5      1.0000 0.81490  0.45684  0.32706  Biso   1.000  Cu
  Cu6      1.0000 0.35806  0.81490  0.82706  Biso   1.000  Cu
  Cu7      1.0000 0.45684  0.64194  0.67294  Biso   1.000  Cu
  Cu8      1.0000 0.81490  0.45684  0.17294  Biso   1.000  Cu
  Cu9      1.0000 0.35806  0.81490  0.67294  Biso   1.000  Cu
  Cu10     1.0000 0.54316  0.35806  0.17294  Biso   1.000  Cu
  Cu11     1.0000 0.18510  0.54316  0.67294  Biso   1.000  Cu
  Cu12     1.0000 0.64194  0.18510  0.17294  Biso   1.000  Cu
  Cu13     1.0000 0.60308  0.54123  0.25000  Biso   1.000  Cu
  Cu14     1.0000 0.06185  0.60308  0.75000  Biso   1.000  Cu
  Cu15     1.0000 0.45877  0.06185  0.25000  Biso   1.000  Cu
  Cu16     1.0000 0.39692  0.45877  0.75000  Biso   1.000  Cu
  Cu17     1.0000 0.93815  0.39692  0.25000  Biso   1.000  Cu
  Cu18     1.0000 0.54123  0.93815  0.75000  Biso   1.000  Cu
  Cl1      1.0000 0.66670  0.33330  0.37706  Biso   1.000  Cl
  Cl2      1.0000 0.33340  0.66670  0.87706  Biso   1.000  Cl
  Cl3      1.0000 0.33330  0.66670  0.62294  Biso   1.000  Cl
  Cl4      1.0000 0.66660  0.33330  0.12294  Biso   1.000  Cl
  O1       1.0000 0.60590  0.43610  0.25000  Biso   1.000  O
  O2       1.0000 0.16980  0.60590  0.75000  Biso   1.000  O
  O3       1.0000 0.56390  0.16980  0.25000  Biso   1.000  O
  O4       1.0000 0.39410  0.56390  0.75000  Biso   1.000  O
  O5       1.0000 0.83020  0.39410  0.25000  Biso   1.000  O
  O6       1.0000 0.43610  0.83020  0.75000  Biso   1.000  O
  H1       1.0000 0.65640  0.45200  0.25000  Biso   1.000  H
  H2       1.0000 0.20440  0.65640  0.75000  Biso   1.000  H
  H3       1.0000 0.54800  0.20440  0.25000  Biso   1.000  H
  H4       1.0000 0.34360  0.54800  0.75000  Biso   1.000  H
  H5       1.0000 0.79560  0.34360  0.25000  Biso   1.000  H
  H6       1.0000 0.45200  0.79560  0.75000  Biso   1.000  H
  O7       1.0000 0.46710  0.49660  0.25000  Biso   1.000  O
  O8       1.0000 0.97050  0.46710  0.75000  Biso   1.000  O
  O9       1.0000 0.50340  0.97050  0.25000  Biso   1.000  O
  O10      1.0000 0.53290  0.50340  0.75000  Biso   1.000  O
  O11      1.0000 0.02950  0.53290  0.25000  Biso   1.000  O
  O12      1.0000 0.49660  0.02950  0.75000  Biso   1.000  O
  O13      1.0000 0.04370  0.39540  0.25000  Biso   1.000  O
  O14      1.0000 0.64830  0.04370  0.75000  Biso   1.000  O
  O15      1.0000 0.60460  0.64830  0.25000  Biso   1.000  O
  O16      1.0000 0.95630  0.60460  0.75000  Biso   1.000  O
  O17      1.0000 0.35170  0.95630  0.25000  Biso   1.000  O
  O18      1.0000 0.39540  0.35170  0.75000  Biso   1.000  O
  N1       1.0000 0.57904  0.46099  0.38915  Biso   1.000  N
  N2       1.0000 0.11805  0.57904  0.88915  Biso   1.000  N
  N3       1.0000 0.53901  0.11805  0.38915  Biso   1.000  N
  N4       1.0000 0.42096  0.53901  0.88915  Biso   1.000  N
  N5       1.0000 0.88195  0.42096  0.38915  Biso   1.000  N
  N6       1.0000 0.46099  0.88195  0.88915  Biso   1.000  N
  N7       1.0000 0.42096  0.53901  0.61085  Biso   1.000  N
  N8       1.0000 0.88195  0.42096  0.11085  Biso   1.000  N
  N9       1.0000 0.46099  0.88195  0.61085  Biso   1.000  N
  N10      1.0000 0.57904  0.46099  0.11085  Biso   1.000  N
  N11      1.0000 0.11805  0.57904  0.61085  Biso   1.000  N
  N12      1.0000 0.53901  0.11805  0.11085  Biso   1.000  N
  N13      1.0000 0.61310  0.53812  0.35735  Biso   1.000  N
  N14      1.0000 0.07498  0.61310  0.85735  Biso   1.000  N
  N15      1.0000 0.46188  0.07498  0.35735  Biso   1.000  N
  N16      1.0000 0.38690  0.46188  0.85735  Biso   1.000  N
  N17      1.0000 0.92502  0.38690  0.35735  Biso   1.000  N
  N18      1.0000 0.53812  0.92502  0.85735  Biso   1.000  N
  N19      1.0000 0.38690  0.46188  0.64265  Biso   1.000  N
  N20      1.0000 0.92502  0.38690  0.14265  Biso   1.000  N
  N21      1.0000 0.53812  0.92502  0.64265  Biso   1.000  N
  N22      1.0000 0.61310  0.53812  0.14265  Biso   1.000  N
  N23      1.0000 0.07498  0.61310  0.64265  Biso   1.000  N
  N24      1.0000 0.46188  0.07498  0.14265  Biso   1.000  N
  N25      1.0000 0.62170  0.55640  0.47178  Biso   1.000  N
  N26      1.0000 0.06530  0.62170  0.97178  Biso   1.000  N
  N27      1.0000 0.44360  0.06530  0.47178  Biso   1.000  N
  N28      1.0000 0.37830  0.44360  0.97178  Biso   1.000  N
  N29      1.0000 0.93470  0.37830  0.47178  Biso   1.000  N
  N30      1.0000 0.55640  0.93470  0.97178  Biso   1.000  N
  N31      1.0000 0.37830  0.44360  0.52822  Biso   1.000  N
  N32      1.0000 0.93470  0.37830  0.02822  Biso   1.000  N
  N33      1.0000 0.55640  0.93470  0.52822  Biso   1.000  N
  N34      1.0000 0.62170  0.55640  0.02822  Biso   1.000  N
  N35      1.0000 0.06530  0.62170  0.52822  Biso   1.000  N
  N36      1.0000 0.44360  0.06530  0.02822  Biso   1.000  N
  N37      1.0000 0.81980  0.54000  0.39600  Biso   1.000  N
  N38      1.0000 0.27980  0.81980  0.89600  Biso   1.000  N
  N39      1.0000 0.46000  0.27980  0.39600  Biso   1.000  N
  N40      1.0000 0.18020  0.46000  0.89600  Biso   1.000  N
  N41      1.0000 0.72020  0.18020  0.39600  Biso   1.000  N
  N42      1.0000 0.54000  0.72020  0.89600  Biso   1.000  N
  N43      1.0000 0.18020  0.46000  0.60400  Biso   1.000  N
  N44      1.0000 0.72020  0.18020  0.10400  Biso   1.000  N
  N45      1.0000 0.54000  0.72020  0.60400  Biso   1.000  N
  N46      1.0000 0.81980  0.54000  0.10400  Biso   1.000  N
  N47      1.0000 0.27980  0.81980  0.60400  Biso   1.000  N
  N48      1.0000 0.46000  0.27980  0.10400  Biso   1.000  N
  N49      1.0000 0.80790  0.60170  0.49091  Biso   1.000  N
  N50      1.0000 0.20620  0.80790  0.99091  Biso   1.000  N
  N51      1.0000 0.39830  0.20620  0.49091  Biso   1.000  N
  N52      1.0000 0.19210  0.39830  0.99091  Biso   1.000  N
  N53      1.0000 0.79380  0.19210  0.49091  Biso   1.000  N
  N54      1.0000 0.60170  0.79380  0.99091  Biso   1.000  N
  N55      1.0000 0.19210  0.39830  0.50909  Biso   1.000  N
  N56      1.0000 0.79380  0.19210  0.00909  Biso   1.000  N
  N57      1.0000 0.60170  0.79380  0.50909  Biso   1.000  N
  N58      1.0000 0.80790  0.60170  0.00909  Biso   1.000  N
  N59      1.0000 0.20620  0.80790  0.50909  Biso   1.000  N
  N60      1.0000 0.39830  0.20620  0.00909  Biso   1.000  N
  C1       1.0000 0.58480  0.47390  0.45790  Biso   1.000  C
  C2       1.0000 0.11090  0.58480  0.95790  Biso   1.000  C
  C3       1.0000 0.52610  0.11090  0.45790  Biso   1.000  C
  C4       1.0000 0.41520  0.52610  0.95790  Biso   1.000  C
  C5       1.0000 0.88910  0.41520  0.45790  Biso   1.000  C
  C6       1.0000 0.47390  0.88910  0.95790  Biso   1.000  C
  C7       1.0000 0.41520  0.52610  0.54210  Biso   1.000  C
  C8       1.0000 0.88910  0.41520  0.04210  Biso   1.000  C
  C9       1.0000 0.47390  0.88910  0.54210  Biso   1.000  C
  C10      1.0000 0.58480  0.47390  0.04210  Biso   1.000  C
  C11      1.0000 0.11090  0.58480  0.54210  Biso   1.000  C
  C12      1.0000 0.52610  0.11090  0.04210  Biso   1.000  C
  H7       1.0000 0.56600  0.43210  0.49220  Biso   1.000  H
  H8       1.0000 0.13390  0.56600  0.99220  Biso   1.000  H
  H9       1.0000 0.56790  0.13390  0.49220  Biso   1.000  H
  H10      1.0000 0.43400  0.56790  0.99220  Biso   1.000  H
  H11      1.0000 0.86610  0.43400  0.49220  Biso   1.000  H
  H12      1.0000 0.43210  0.86610  0.99220  Biso   1.000  H
  H13      1.0000 0.43400  0.56790  0.50780  Biso   1.000  H
  H14      1.0000 0.86610  0.43400  0.00780  Biso   1.000  H
  H15      1.0000 0.43210  0.86610  0.50780  Biso   1.000  H
  H16      1.0000 0.56600  0.43210  0.00780  Biso   1.000  H
  H17      1.0000 0.13390  0.56600  0.50780  Biso   1.000  H
  H18      1.0000 0.56790  0.13390  0.00780  Biso   1.000  H
  C13      1.0000 0.63830  0.59370  0.40760  Biso   1.000  C
  C14      1.0000 0.04460  0.63830  0.90760  Biso   1.000  C
  C15      1.0000 0.40630  0.04460  0.40760  Biso   1.000  C
  C16      1.0000 0.36170  0.40630  0.90760  Biso   1.000  C
  C17      1.0000 0.95540  0.36170  0.40760  Biso   1.000  C
  C18      1.0000 0.59370  0.95540  0.90760  Biso   1.000  C
  C19      1.0000 0.36170  0.40630  0.59240  Biso   1.000  C
  C20      1.0000 0.95540  0.36170  0.09240  Biso   1.000  C
  C21      1.0000 0.59370  0.95540  0.59240  Biso   1.000  C
  C22      1.0000 0.63830  0.59370  0.09240  Biso   1.000  C
  C23      1.0000 0.04460  0.63830  0.59240  Biso   1.000  C
  C24      1.0000 0.40630  0.04460  0.09240  Biso   1.000  C
  H19      1.0000 0.66430  0.65120  0.40030  Biso   1.000  H
  H20      1.0000 0.01310  0.66430  0.90030  Biso   1.000  H
  H21      1.0000 0.34880  0.01310  0.40030  Biso   1.000  H
  H22      1.0000 0.33570  0.34880  0.90030  Biso   1.000  H
  H23      1.0000 0.98690  0.33570  0.40030  Biso   1.000  H
  H24      1.0000 0.65120  0.98690  0.90030  Biso   1.000  H
  H25      1.0000 0.33570  0.34880  0.59970  Biso   1.000  H
  H26      1.0000 0.98690  0.33570  0.09970  Biso   1.000  H
  H27      1.0000 0.65120  0.98690  0.59970  Biso   1.000  H
  H28      1.0000 0.66430  0.65120  0.09970  Biso   1.000  H
  H29      1.0000 0.01310  0.66430  0.59970  Biso   1.000  H
  H30      1.0000 0.34880  0.01310  0.09970  Biso   1.000  H
  C25      1.0000 0.63660  0.59580  0.54290  Biso   1.000  C
  C26      1.0000 0.04080  0.63660  0.04290  Biso   1.000  C
  C27      1.0000 0.40420  0.04080  0.54290  Biso   1.000  C
  C28      1.0000 0.36340  0.40420  0.04290  Biso   1.000  C
  C29      1.0000 0.95920  0.36340  0.54290  Biso   1.000  C
  C30      1.0000 0.59580  0.95920  0.04290  Biso   1.000  C
  C31      1.0000 0.36340  0.40420  0.45710  Biso   1.000  C
  C32      1.0000 0.95920  0.36340  0.95710  Biso   1.000  C
  C33      1.0000 0.59580  0.95920  0.45710  Biso   1.000  C
  C34      1.0000 0.63660  0.59580  0.95710  Biso   1.000  C
  C35      1.0000 0.04080  0.63660  0.45710  Biso   1.000  C
  C36      1.0000 0.40420  0.04080  0.95710  Biso   1.000  C
  H31      1.0000 0.61410  0.55220  0.57880  Biso   1.000  H
  H32      1.0000 0.06190  0.61410  0.07880  Biso   1.000  H
  H33      1.0000 0.44780  0.06190  0.57880  Biso   1.000  H
  H34      1.0000 0.38590  0.44780  0.07880  Biso   1.000  H
  H35      1.0000 0.93810  0.38590  0.57880  Biso   1.000  H
  H36      1.0000 0.55220  0.93810  0.07880  Biso   1.000  H
  H37      1.0000 0.38590  0.44780  0.42120  Biso   1.000  H
  H38      1.0000 0.93810  0.38590  0.92120  Biso   1.000  H
  H39      1.0000 0.55220  0.93810  0.42120  Biso   1.000  H
  H40      1.0000 0.61410  0.55220  0.92120  Biso   1.000  H
  H41      1.0000 0.06190  0.61410  0.42120  Biso   1.000  H
  H42      1.0000 0.44780  0.06190  0.92120  Biso   1.000  H
  H43      1.0000 0.60660  0.62640  0.54620  Biso   1.000  H
  H44      1.0000 0.98020  0.60660  0.04620  Biso   1.000  H
  H45      1.0000 0.37360  0.98020  0.54620  Biso   1.000  H
  H46      1.0000 0.39340  0.37360  0.04620  Biso   1.000  H
  H47      1.0000 0.01980  0.39340  0.54620  Biso   1.000  H
  H48      1.0000 0.62640  0.01980  0.04620  Biso   1.000  H
  H49      1.0000 0.39340  0.37360  0.45380  Biso   1.000  H
  H50      1.0000 0.01980  0.39340  0.95380  Biso   1.000  H
  H51      1.0000 0.62640  0.01980  0.45380  Biso   1.000  H
  H52      1.0000 0.60660  0.62640  0.95380  Biso   1.000  H
  H53      1.0000 0.98020  0.60660  0.45380  Biso   1.000  H
  H54      1.0000 0.37360  0.98020  0.95380  Biso   1.000  H
  C37      1.0000 0.72830  0.65500  0.55850  Biso   1.000  C
  C38      1.0000 0.07330  0.72830  0.05850  Biso   1.000  C
  C39      1.0000 0.34500  0.07330  0.55850  Biso   1.000  C
  C40      1.0000 0.27170  0.34500  0.05850  Biso   1.000  C
  C41      1.0000 0.92670  0.27170  0.55850  Biso   1.000  C
  C42      1.0000 0.65500  0.92670  0.05850  Biso   1.000  C
  C43      1.0000 0.27170  0.34500  0.44150  Biso   1.000  C
  C44      1.0000 0.92670  0.27170  0.94150  Biso   1.000  C
  C45      1.0000 0.65500  0.92670  0.44150  Biso   1.000  C
  C46      1.0000 0.72830  0.65500  0.94150  Biso   1.000  C
  C47      1.0000 0.07330  0.72830  0.44150  Biso   1.000  C
  C48      1.0000 0.34500  0.07330  0.94150  Biso   1.000  C
  H55      1.0000 0.73250  0.68280  0.60350  Biso   1.000  H
  H56      1.0000 0.04970  0.73250  0.10350  Biso   1.000  H
  H57      1.0000 0.31720  0.04970  0.60350  Biso   1.000  H
  H58      1.0000 0.26750  0.31720  0.10350  Biso   1.000  H
  H59      1.0000 0.95030  0.26750  0.60350  Biso   1.000  H
  H60      1.0000 0.68280  0.95030  0.10350  Biso   1.000  H
  H61      1.0000 0.26750  0.31720  0.39650  Biso   1.000  H
  H62      1.0000 0.95030  0.26750  0.89650  Biso   1.000  H
  H63      1.0000 0.68280  0.95030  0.39650  Biso   1.000  H
  H64      1.0000 0.73250  0.68280  0.89650  Biso   1.000  H
  H65      1.0000 0.04970  0.73250  0.39650  Biso   1.000  H
  H66      1.0000 0.31720  0.04970  0.89650  Biso   1.000  H
  H67      1.0000 0.75070  0.69780  0.52190  Biso   1.000  H
  H68      1.0000 0.05290  0.75070  0.02190  Biso   1.000  H
  H69      1.0000 0.30220  0.05290  0.52190  Biso   1.000  H
  H70      1.0000 0.24930  0.30220  0.02190  Biso   1.000  H
  H71      1.0000 0.94710  0.24930  0.52190  Biso   1.000  H
  H72      1.0000 0.69780  0.94710  0.02190  Biso   1.000  H
  H73      1.0000 0.24930  0.30220  0.47810  Biso   1.000  H
  H74      1.0000 0.94710  0.24930  0.97810  Biso   1.000  H
  H75      1.0000 0.69780  0.94710  0.47810  Biso   1.000  H
  H76      1.0000 0.75070  0.69780  0.97810  Biso   1.000  H
  H77      1.0000 0.05290  0.75070  0.47810  Biso   1.000  H
  H78      1.0000 0.30220  0.05290  0.97810  Biso   1.000  H
  C49      1.0000 0.78270  0.61460  0.56250  Biso   1.000  C
  C50      1.0000 0.16810  0.78270  0.06250  Biso   1.000  C
  C51      1.0000 0.38540  0.16810  0.56250  Biso   1.000  C
  C52      1.0000 0.21730  0.38540  0.06250  Biso   1.000  C
  C53      1.0000 0.83190  0.21730  0.56250  Biso   1.000  C
  C54      1.0000 0.61460  0.83190  0.06250  Biso   1.000  C
  C55      1.0000 0.21730  0.38540  0.43750  Biso   1.000  C
  C56      1.0000 0.83190  0.21730  0.93750  Biso   1.000  C
  C57      1.0000 0.61460  0.83190  0.43750  Biso   1.000  C
  C58      1.0000 0.78270  0.61460  0.93750  Biso   1.000  C
  C59      1.0000 0.16810  0.78270  0.43750  Biso   1.000  C
  C60      1.0000 0.38540  0.16810  0.93750  Biso   1.000  C
  H79      1.0000 0.83240  0.64990  0.59040  Biso   1.000  H
  H80      1.0000 0.18250  0.83240  0.09040  Biso   1.000  H
  H81      1.0000 0.35010  0.18250  0.59040  Biso   1.000  H
  H82      1.0000 0.16760  0.35010  0.09040  Biso   1.000  H
  H83      1.0000 0.81750  0.16760  0.59040  Biso   1.000  H
  H84      1.0000 0.64990  0.81750  0.09040  Biso   1.000  H
  H85      1.0000 0.16760  0.35010  0.40960  Biso   1.000  H
  H86      1.0000 0.81750  0.16760  0.90960  Biso   1.000  H
  H87      1.0000 0.64990  0.81750  0.40960  Biso   1.000  H
  H88      1.0000 0.83240  0.64990  0.90960  Biso   1.000  H
  H89      1.0000 0.18250  0.83240  0.40960  Biso   1.000  H
  H90      1.0000 0.35010  0.18250  0.90960  Biso   1.000  H
  H91      1.0000 0.75190  0.56100  0.58660  Biso   1.000  H
  H92      1.0000 0.19090  0.75190  0.08660  Biso   1.000  H
  H93      1.0000 0.43900  0.19090  0.58660  Biso   1.000  H
  H94      1.0000 0.24810  0.43900  0.08660  Biso   1.000  H
  H95      1.0000 0.80910  0.24810  0.58660  Biso   1.000  H
  H96      1.0000 0.56100  0.80910  0.08660  Biso   1.000  H
  H97      1.0000 0.24810  0.43900  0.41340  Biso   1.000  H
  H98      1.0000 0.80910  0.24810  0.91340  Biso   1.000  H
  H99      1.0000 0.56100  0.80910  0.41340  Biso   1.000  H
  H100     1.0000 0.75190  0.56100  0.91340  Biso   1.000  H
  H101     1.0000 0.19090  0.75190  0.41340  Biso   1.000  H
  H102     1.0000 0.43900  0.19090  0.91340  Biso   1.000  H
  C61      1.0000 0.78720  0.52880  0.46010  Biso   1.000  C
  C62      1.0000 0.25840  0.78720  0.96010  Biso   1.000  C
  C63      1.0000 0.47120  0.25840  0.46010  Biso   1.000  C
  C64      1.0000 0.21280  0.47120  0.96010  Biso   1.000  C
  C65      1.0000 0.74160  0.21280  0.46010  Biso   1.000  C
  C66      1.0000 0.52880  0.74160  0.96010  Biso   1.000  C
  C67      1.0000 0.21280  0.47120  0.53990  Biso   1.000  C
  C68      1.0000 0.74160  0.21280  0.03990  Biso   1.000  C
  C69      1.0000 0.52880  0.74160  0.53990  Biso   1.000  C
  C70      1.0000 0.78720  0.52880  0.03990  Biso   1.000  C
  C71      1.0000 0.25840  0.78720  0.53990  Biso   1.000  C
  C72      1.0000 0.47120  0.25840  0.03990  Biso   1.000  C
  H103     1.0000 0.75410  0.47680  0.48120  Biso   1.000  H
  H104     1.0000 0.27730  0.75410  0.98120  Biso   1.000  H
  H105     1.0000 0.52320  0.27730  0.48120  Biso   1.000  H
  H106     1.0000 0.24590  0.52320  0.98120  Biso   1.000  H
  H107     1.0000 0.72270  0.24590  0.48120  Biso   1.000  H
  H108     1.0000 0.47680  0.72270  0.98120  Biso   1.000  H
  H109     1.0000 0.24590  0.52320  0.51880  Biso   1.000  H
  H110     1.0000 0.72270  0.24590  0.01880  Biso   1.000  H
  H111     1.0000 0.47680  0.72270  0.51880  Biso   1.000  H
  H112     1.0000 0.75410  0.47680  0.01880  Biso   1.000  H
  H113     1.0000 0.27730  0.75410  0.51880  Biso   1.000  H
  H114     1.0000 0.52320  0.27730  0.01880  Biso   1.000  H
  C73      1.0000 0.85510  0.66280  0.44400  Biso   1.000  C
  C74      1.0000 0.19230  0.85510  0.94400  Biso   1.000  C
  C75      1.0000 0.33720  0.19230  0.44400  Biso   1.000  C
  C76      1.0000 0.14490  0.33720  0.94400  Biso   1.000  C
  C77      1.0000 0.80770  0.14490  0.44400  Biso   1.000  C
  C78      1.0000 0.66280  0.80770  0.94400  Biso   1.000  C
  C79      1.0000 0.14490  0.33720  0.55600  Biso   1.000  C
  C80      1.0000 0.80770  0.14490  0.05600  Biso   1.000  C
  C81      1.0000 0.66280  0.80770  0.55600  Biso   1.000  C
  C82      1.0000 0.85510  0.66280  0.05600  Biso   1.000  C
  C83      1.0000 0.19230  0.85510  0.55600  Biso   1.000  C
  C84      1.0000 0.33720  0.19230  0.05600  Biso   1.000  C
  H115     1.0000 0.87800  0.72010  0.45090  Biso   1.000  H
  H116     1.0000 0.15790  0.87800  0.95090  Biso   1.000  H
  H117     1.0000 0.27990  0.15790  0.45090  Biso   1.000  H
  H118     1.0000 0.12200  0.27990  0.95090  Biso   1.000  H
  H119     1.0000 0.84210  0.12200  0.45090  Biso   1.000  H
  H120     1.0000 0.72010  0.84210  0.95090  Biso   1.000  H
  H121     1.0000 0.12200  0.27990  0.54910  Biso   1.000  H
  H122     1.0000 0.84210  0.12200  0.04910  Biso   1.000  H
  H123     1.0000 0.72010  0.84210  0.54910  Biso   1.000  H
  H124     1.0000 0.87800  0.72010  0.04910  Biso   1.000  H
  H125     1.0000 0.15790  0.87800  0.54910  Biso   1.000  H
  H126     1.0000 0.27990  0.15790  0.04910  Biso   1.000  H
  C85      1.0000 0.86270  0.62500  0.38510  Biso   1.000  C
  C86      1.0000 0.23770  0.86270  0.88510  Biso   1.000  C
  C87      1.0000 0.37500  0.23770  0.38510  Biso   1.000  C
  C88      1.0000 0.13730  0.37500  0.88510  Biso   1.000  C
  C89      1.0000 0.76230  0.13730  0.38510  Biso   1.000  C
  C90      1.0000 0.62500  0.76230  0.88510  Biso   1.000  C
  C91      1.0000 0.13730  0.37500  0.61490  Biso   1.000  C
  C92      1.0000 0.76230  0.13730  0.11490  Biso   1.000  C
  C93      1.0000 0.62500  0.76230  0.61490  Biso   1.000  C
  C94      1.0000 0.86270  0.62500  0.11490  Biso   1.000  C
  C95      1.0000 0.23770  0.86270  0.61490  Biso   1.000  C
  C96      1.0000 0.37500  0.23770  0.11490  Biso   1.000  C
  H127     1.0000 0.89200  0.65200  0.34410  Biso   1.000  H
  H128     1.0000 0.24000  0.89200  0.84410  Biso   1.000  H
  H129     1.0000 0.34800  0.24000  0.34410  Biso   1.000  H
  H130     1.0000 0.10800  0.34800  0.84410  Biso   1.000  H
  H131     1.0000 0.76000  0.10800  0.34410  Biso   1.000  H
  H132     1.0000 0.65200  0.76000  0.84410  Biso   1.000  H
  H133     1.0000 0.10800  0.34800  0.65590  Biso   1.000  H
  H134     1.0000 0.76000  0.10800  0.15590  Biso   1.000  H
  H135     1.0000 0.65200  0.76000  0.65590  Biso   1.000  H
  H136     1.0000 0.89200  0.65200  0.15590  Biso   1.000  H
  H137     1.0000 0.24000  0.89200  0.65590  Biso   1.000  H
  H138     1.0000 0.34800  0.24000  0.15590  Biso   1.000  H
  C97      1.0000 0.41140  0.42220  0.25000  Biso   1.000  C
  C98      1.0000 0.98920  0.41140  0.75000  Biso   1.000  C
  C99      1.0000 0.57780  0.98920  0.25000  Biso   1.000  C
  C100     1.0000 0.58860  0.57780  0.75000  Biso   1.000  C
  C101     1.0000 0.01080  0.58860  0.25000  Biso   1.000  C
  C102     1.0000 0.42220  0.01080  0.75000  Biso   1.000  C
  C103     1.0000 0.32030  0.40480  0.25000  Biso   1.000  C
  C104     1.0000 0.91550  0.32030  0.75000  Biso   1.000  C
  C105     1.0000 0.59520  0.91550  0.25000  Biso   1.000  C
  C106     1.0000 0.67970  0.59520  0.75000  Biso   1.000  C
  C107     1.0000 0.08450  0.67970  0.25000  Biso   1.000  C
  C108     1.0000 0.40480  0.08450  0.75000  Biso   1.000  C
  C109     1.0000 0.30090  0.46770  0.25000  Biso   1.000  C
  C110     1.0000 0.83320  0.30090  0.75000  Biso   1.000  C
  C111     1.0000 0.53230  0.83320  0.25000  Biso   1.000  C
  C112     1.0000 0.69910  0.53230  0.75000  Biso   1.000  C
  C113     1.0000 0.16680  0.69910  0.25000  Biso   1.000  C
  C114     1.0000 0.46770  0.16680  0.75000  Biso   1.000  C
  H139     1.0000 0.34360  0.52330  0.25000  Biso   1.000  H
  H140     1.0000 0.82030  0.34360  0.75000  Biso   1.000  H
  H141     1.0000 0.47670  0.82030  0.25000  Biso   1.000  H
  H142     1.0000 0.65640  0.47670  0.75000  Biso   1.000  H
  H143     1.0000 0.17970  0.65640  0.25000  Biso   1.000  H
  H144     1.0000 0.52330  0.17970  0.75000  Biso   1.000  H
  C115     1.0000 0.25570  0.32170  0.25000  Biso   1.000  C
  C116     1.0000 0.93400  0.25570  0.75000  Biso   1.000  C
  C117     1.0000 0.67830  0.93400  0.25000  Biso   1.000  C
  C118     1.0000 0.74430  0.67830  0.75000  Biso   1.000  C
  C119     1.0000 0.06600  0.74430  0.25000  Biso   1.000  C
  C120     1.0000 0.32170  0.06600  0.75000  Biso   1.000  C
  H145     1.0000 0.26840  0.27880  0.25000  Biso   1.000  H
  H146     1.0000 0.98960  0.26840  0.75000  Biso   1.000  H
  H147     1.0000 0.72120  0.98960  0.25000  Biso   1.000  H
  H148     1.0000 0.73160  0.72120  0.75000  Biso   1.000  H
  H149     1.0000 0.01040  0.73160  0.25000  Biso   1.000  H
  H150     1.0000 0.27880  0.01040  0.75000  Biso   1.000  H
  C121     1.0000 0.21750  0.44840  0.25000  Biso   1.000  C
  C122     1.0000 0.76910  0.21750  0.75000  Biso   1.000  C
  C123     1.0000 0.55160  0.76910  0.25000  Biso   1.000  C
  C124     1.0000 0.78250  0.55160  0.75000  Biso   1.000  C
  C125     1.0000 0.23090  0.78250  0.25000  Biso   1.000  C
  C126     1.0000 0.44840  0.23090  0.75000  Biso   1.000  C
  H151     1.0000 0.20510  0.49140  0.25000  Biso   1.000  H
  H152     1.0000 0.71370  0.20510  0.75000  Biso   1.000  H
  H153     1.0000 0.50860  0.71370  0.25000  Biso   1.000  H
  H154     1.0000 0.79490  0.50860  0.75000  Biso   1.000  H
  H155     1.0000 0.28630  0.79490  0.25000  Biso   1.000  H
  H156     1.0000 0.49140  0.28630  0.75000  Biso   1.000  H
  C127     1.0000 0.17240  0.30210  0.25000  Biso   1.000  C
  C128     1.0000 0.87030  0.17240  0.75000  Biso   1.000  C
  C129     1.0000 0.69790  0.87030  0.25000  Biso   1.000  C
  C130     1.0000 0.82760  0.69790  0.75000  Biso   1.000  C
  C131     1.0000 0.12970  0.82760  0.25000  Biso   1.000  C
  C132     1.0000 0.30210  0.12970  0.75000  Biso   1.000  C
  H157     1.0000 0.12960  0.24650  0.25000  Biso   1.000  H
  H158     1.0000 0.88310  0.12960  0.75000  Biso   1.000  H
  H159     1.0000 0.75350  0.88310  0.25000  Biso   1.000  H
  H160     1.0000 0.87040  0.75350  0.75000  Biso   1.000  H
  H161     1.0000 0.11690  0.87040  0.25000  Biso   1.000  H
  H162     1.0000 0.24650  0.11690  0.75000  Biso   1.000  H
  C133     1.0000 0.15350  0.36640  0.25000  Biso   1.000  C
  C134     1.0000 0.78710  0.15350  0.75000  Biso   1.000  C
  C135     1.0000 0.63360  0.78710  0.25000  Biso   1.000  C
  C136     1.0000 0.84650  0.63360  0.75000  Biso   1.000  C
  C137     1.0000 0.21290  0.84650  0.25000  Biso   1.000  C
  C138     1.0000 0.36640  0.21290  0.75000  Biso   1.000  C
  H163     1.0000 0.45680  0.25000  0.25000  Biso   1.000  H
  H164     1.0000 0.20680  0.45680  0.75000  Biso   1.000  H
  H165     1.0000 0.75000  0.20680  0.25000  Biso   1.000  H
  H166     1.0000 0.54320  0.75000  0.75000  Biso   1.000  H
  H167     1.0000 0.79320  0.54320  0.25000  Biso   1.000  H
  H168     1.0000 0.25000  0.79320  0.75000  Biso   1.000  H
  O19      1.0000 0.41840  0.36090  0.25000  Biso   1.000  O
  O20      1.0000 0.05750  0.41840  0.75000  Biso   1.000  O
  O21      1.0000 0.63910  0.05750  0.25000  Biso   1.000  O
  O22      1.0000 0.58160  0.63910  0.75000  Biso   1.000  O
  O23      1.0000 0.94250  0.58160  0.25000  Biso   1.000  O
  O24      1.0000 0.36090  0.94250  0.75000  Biso   1.000  O
  O25      1.0000 0.01630  0.27960  0.19800  Biso   1.000  O
  O26      1.0000 0.73670  0.01630  0.69800  Biso   1.000  O
  O27      1.0000 0.72040  0.73670  0.19800  Biso   1.000  O
  O28      1.0000 0.98370  0.72040  0.69800  Biso   1.000  O
  O29      1.0000 0.26330  0.98370  0.19800  Biso   1.000  O
  O30      1.0000 0.27960  0.26330  0.69800  Biso   1.000  O
  O31      1.0000 0.98370  0.72040  0.80200  Biso   1.000  O
  O32      1.0000 0.26330  0.98370  0.30200  Biso   1.000  O
  O33      1.0000 0.27960  0.26330  0.80200  Biso   1.000  O
  O34      1.0000 0.01630  0.27960  0.30200  Biso   1.000  O
  O35      1.0000 0.73670  0.01630  0.80200  Biso   1.000  O
  O36      1.0000 0.72040  0.73670  0.30200  Biso   1.000  O
  C139     1.0000 0.06430  0.34590  0.23260  Biso   1.000  C
  C140     1.0000 0.71840  0.06430  0.73260  Biso   1.000  C
  C141     1.0000 0.65410  0.71840  0.23260  Biso   1.000  C
  C142     1.0000 0.93570  0.65410  0.73260  Biso   1.000  C
  C143     1.0000 0.28160  0.93570  0.23260  Biso   1.000  C
  C144     1.0000 0.34590  0.28160  0.73260  Biso   1.000  C
  C145     1.0000 0.93570  0.65410  0.76740  Biso   1.000  C
  C146     1.0000 0.28160  0.93570  0.26740  Biso   1.000  C
  C147     1.0000 0.34590  0.28160  0.76740  Biso   1.000  C
  C148     1.0000 0.06430  0.34590  0.26740  Biso   1.000  C
  C149     1.0000 0.71840  0.06430  0.76740  Biso   1.000  C
  C150     1.0000 0.65410  0.71840  0.26740  Biso   1.000  C
  O37      1.0000 0.51000  0.27550  0.25000  Biso   1.000  O
  O38      1.0000 0.23450  0.51000  0.75000  Biso   1.000  O
  O39      1.0000 0.72450  0.23450  0.25000  Biso   1.000  O
  O40      1.0000 0.49000  0.72450  0.75000  Biso   1.000  O
  O41      1.0000 0.76550  0.49000  0.25000  Biso   1.000  O
  O42      1.0000 0.27550  0.76550  0.75000  Biso   1.000  O
  O43      1.0000 0.32180  0.59760  0.09120  Biso   1.000  O
  O44      1.0000 0.72420  0.32180  0.59120  Biso   1.000  O
  O45      1.0000 0.40240  0.72420  0.09120  Biso   1.000  O
  O46      1.0000 0.67820  0.40240  0.59120  Biso   1.000  O
  O47      1.0000 0.27580  0.67820  0.09120  Biso   1.000  O
  O48      1.0000 0.59760  0.27580  0.59120  Biso   1.000  O
  O49      1.0000 0.67820  0.40240  0.90880  Biso   1.000  O
  O50      1.0000 0.27580  0.67820  0.40880  Biso   1.000  O
  O51      1.0000 0.59760  0.27580  0.90880  Biso   1.000  O
  O52      1.0000 0.32180  0.59760  0.40880  Biso   1.000  O
  O53      1.0000 0.72420  0.32180  0.90880  Biso   1.000  O
  O54      1.0000 0.40240  0.72420  0.40880  Biso   1.000  O
  N61      1.0000 0.33330  0.66670  0.09410  Biso   1.000  N
  N62      1.0000 0.66660  0.33330  0.59410  Biso   1.000  N
  N63      1.0000 0.66670  0.33330  0.90590  Biso   1.000  N
  N64      1.0000 0.33340  0.66670  0.40590  Biso   1.000  N
  O55      1.0000 0.42420  0.37140  0.21680  Biso   1.000  O
  O56      1.0000 0.05280  0.42420  0.71680  Biso   1.000  O
  O57      1.0000 0.62860  0.05280  0.21680  Biso   1.000  O
  O58      1.0000 0.57580  0.62860  0.71680  Biso   1.000  O
  O59      1.0000 0.94720  0.57580  0.21680  Biso   1.000  O
  O60      1.0000 0.37140  0.94720  0.71680  Biso   1.000  O
  O61      1.0000 0.57580  0.62860  0.78320  Biso   1.000  O
  O62      1.0000 0.94720  0.57580  0.28320  Biso   1.000  O
  O63      1.0000 0.37140  0.94720  0.78320  Biso   1.000  O
  O64      1.0000 0.42420  0.37140  0.28320  Biso   1.000  O
  O65      1.0000 0.05280  0.42420  0.78320  Biso   1.000  O
  O66      1.0000 0.62860  0.05280  0.28320  Biso   1.000  O
