data_image0
_cell_length_a       9.6497
_cell_length_b       10.0059
_cell_length_c       10.94
_cell_angle_alpha    102.357
_cell_angle_beta     97.046
_cell_angle_gamma    110.698

_symmetry_space_group_name_H-M    "P 1"
_symmetry_int_tables_number       1

loop_
  _symmetry_equiv_pos_as_xyz
  'x, y, z'

loop_
  _atom_site_label
  _atom_site_occupancy
  _atom_site_fract_x
  _atom_site_fract_y
  _atom_site_fract_z
  _atom_site_thermal_displace_type
  _atom_site_B_iso_or_equiv
  _atom_site_type_symbol
  Cu1      1.0000 0.50000  0.00000  0.00000  Biso   1.000  Cu
  C1       1.0000 0.71590  0.31340  0.05350  Biso   1.000  C
  C2       1.0000 0.28410  0.68660  0.94650  Biso   1.000  C
  C3       1.0000 0.86240  0.41280  0.02720  Biso   1.000  C
  C4       1.0000 0.13760  0.58720  0.97280  Biso   1.000  C
  C5       1.0000 0.00220  0.42440  0.09130  Biso   1.000  C
  C6       1.0000 0.99780  0.57560  0.90870  Biso   1.000  C
  C7       1.0000 0.13740  0.50580  0.06340  Biso   1.000  C
  C8       1.0000 0.86260  0.49420  0.93660  Biso   1.000  C
  C9       1.0000 0.59200  0.95570  0.26670  Biso   1.000  C
  C10      1.0000 0.40800  0.04430  0.73330  Biso   1.000  C
  H1       1.0000 0.51800  0.94650  0.31870  Biso   1.000  H
  H2       1.0000 0.48200  0.05350  0.68130  Biso   1.000  H
  H3       1.0000 0.69150  0.99200  0.32090  Biso   1.000  H
  H4       1.0000 0.30850  0.00800  0.67910  Biso   1.000  H
  H5       1.0000 0.57100  0.86030  0.20930  Biso   1.000  H
  H6       1.0000 0.42900  0.13970  0.79070  Biso   1.000  H
  C11      1.0000 0.21900  0.11230  0.99440  Biso   1.000  C
  C12      1.0000 0.78100  0.88770  0.00560  Biso   1.000  C
  H7       1.0000 0.15300  0.01370  0.99230  Biso   1.000  H
  H8       1.0000 0.84700  0.98630  0.00770  Biso   1.000  H
  H9       1.0000 0.20940  0.12360  0.90920  Biso   1.000  H
  H10      1.0000 0.79060  0.87640  0.09080  Biso   1.000  H
  H11      1.0000 0.19170  0.18370  0.04850  Biso   1.000  H
  H12      1.0000 0.80830  0.81630  0.95150  Biso   1.000  H
  I1       1.0000 0.00241  0.31260  0.23502  Biso   1.000  I
  I2       1.0000 0.99759  0.68740  0.76498  Biso   1.000  I
  I3       1.0000 0.35061  0.52661  0.15794  Biso   1.000  I
  I4       1.0000 0.64939  0.47339  0.84206  Biso   1.000  I
  O1       1.0000 0.67170  0.17990  0.99080  Biso   1.000  O
  O2       1.0000 0.32830  0.82010  0.00920  Biso   1.000  O
  O3       1.0000 0.65070  0.36980  0.12620  Biso   1.000  O
  O4       1.0000 0.34930  0.63020  0.87380  Biso   1.000  O
  O5       1.0000 0.58720  0.05420  0.19670  Biso   1.000  O
  O6       1.0000 0.41280  0.94580  0.80330  Biso   1.000  O
  H13      1.0000 0.54580  0.10790  0.22790  Biso   1.000  H
  H14      1.0000 0.45420  0.89210  0.77210  Biso   1.000  H
  O7       1.0000 0.36950  0.13530  0.04290  Biso   1.000  O
  O8       1.0000 0.63050  0.86470  0.95710  Biso   1.000  O
  H15      1.0000 0.42060  0.20490  0.01810  Biso   1.000  H
  H16      1.0000 0.57940  0.79510  0.98190  Biso   1.000  H
  C13      1.0000 0.15040  0.30870  0.64790  Biso   1.000  C
  C14      1.0000 0.84960  0.69130  0.35210  Biso   1.000  C
  C15      1.0000 0.07780  0.14690  0.57660  Biso   1.000  C
  C16      1.0000 0.92220  0.85310  0.42340  Biso   1.000  C
  C17      1.0000 0.13310  0.09330  0.47170  Biso   1.000  C
  C18      1.0000 0.86690  0.90670  0.52830  Biso   1.000  C
  C19      1.0000 0.05430  0.94500  0.39760  Biso   1.000  C
  C20      1.0000 0.94570  0.05500  0.60240  Biso   1.000  C
  I5       1.0000 0.33956  0.22954  0.44106  Biso   1.000  I
  I6       1.0000 0.66044  0.77046  0.55894  Biso   1.000  I
  I7       1.0000 0.13347  0.86007  0.23881  Biso   1.000  I
  I8       1.0000 0.86653  0.13993  0.76119  Biso   1.000  I
  O9       1.0000 0.12650  0.40260  0.60130  Biso   1.000  O
  O10      1.0000 0.87350  0.59740  0.39870  Biso   1.000  O
  H17      1.0000 0.07150  0.44640  0.62150  Biso   1.000  H
  H18      1.0000 0.92850  0.55360  0.37850  Biso   1.000  H
  O11      1.0000 0.24480  0.34130  0.75740  Biso   1.000  O
  O12      1.0000 0.75520  0.65870  0.24260  Biso   1.000  O
  C21      1.0000 0.74190  0.30470  0.49820  Biso   1.000  C
  C22      1.0000 0.25810  0.69530  0.50180  Biso   1.000  C
  H19      1.0000 0.83930  0.30610  0.48640  Biso   1.000  H
  H20      1.0000 0.16070  0.69390  0.51360  Biso   1.000  H
  H21      1.0000 0.68640  0.21530  0.51940  Biso   1.000  H
  H22      1.0000 0.31360  0.78470  0.48060  Biso   1.000  H
  H23      1.0000 0.75540  0.38950  0.56650  Biso   1.000  H
  H24      1.0000 0.24460  0.61050  0.43350  Biso   1.000  H
  O13      1.0000 0.65980  0.30950  0.38310  Biso   1.000  O
  O14      1.0000 0.34020  0.69050  0.61690  Biso   1.000  O
  H25      1.0000 0.71320  0.37880  0.35920  Biso   1.000  H
  H26      1.0000 0.28680  0.62120  0.64080  Biso   1.000  H
