data_image0
_cell_length_a       8.7543
_cell_length_b       9.9307
_cell_length_c       7.314
_cell_angle_alpha    108.537
_cell_angle_beta     106.347
_cell_angle_gamma    85.225

_symmetry_space_group_name_H-M    "P 1"
_symmetry_int_tables_number       1

loop_
  _symmetry_equiv_pos_as_xyz
  'x, y, z'

loop_
  _atom_site_label
  _atom_site_occupancy
  _atom_site_fract_x
  _atom_site_fract_y
  _atom_site_fract_z
  _atom_site_thermal_displace_type
  _atom_site_B_iso_or_equiv
  _atom_site_type_symbol
  Cu1      1.0000 0.46401  0.93926  0.22752  Biso   1.000  Cu
  Cu2      1.0000 0.53599  0.06074  0.77248  Biso   1.000  Cu
  Cl1      1.0000 0.69038  0.02505  0.48073  Biso   1.000  Cl
  Cl2      1.0000 0.30962  0.97495  0.51927  Biso   1.000  Cl
  Cl3      1.0000 0.42549  0.15109  0.16617  Biso   1.000  Cl
  Cl4      1.0000 0.57451  0.84891  0.83383  Biso   1.000  Cl
  N1       1.0000 0.53170  0.73980  0.23190  Biso   1.000  N
  N2       1.0000 0.46830  0.26020  0.76810  Biso   1.000  N
  C1       1.0000 0.68380  0.70400  0.24670  Biso   1.000  C
  C2       1.0000 0.31620  0.29600  0.75330  Biso   1.000  C
  H1       1.0000 0.75200  0.77300  0.23900  Biso   1.000  H
  H2       1.0000 0.24800  0.22700  0.76100  Biso   1.000  H
  C3       1.0000 0.74530  0.57670  0.27730  Biso   1.000  C
  C4       1.0000 0.25470  0.42330  0.72270  Biso   1.000  C
  H3       1.0000 0.85000  0.55800  0.27600  Biso   1.000  H
  H4       1.0000 0.15000  0.44200  0.72400  Biso   1.000  H
  C5       1.0000 0.64530  0.48370  0.29210  Biso   1.000  C
  C6       1.0000 0.35470  0.51630  0.70790  Biso   1.000  C
  H5       1.0000 0.67400  0.40300  0.31200  Biso   1.000  H
  H6       1.0000 0.32600  0.59700  0.68800  Biso   1.000  H
  C7       1.0000 0.48770  0.51880  0.27490  Biso   1.000  C
  C8       1.0000 0.51230  0.48120  0.72510  Biso   1.000  C
  H7       1.0000 0.41700  0.47000  0.28100  Biso   1.000  H
  H8       1.0000 0.58300  0.53000  0.71900  Biso   1.000  H
  C9       1.0000 0.43400  0.64750  0.24480  Biso   1.000  C
  C10      1.0000 0.56600  0.35250  0.75520  Biso   1.000  C
  C11      1.0000 0.25840  0.67680  0.21240  Biso   1.000  C
  C12      1.0000 0.74160  0.32320  0.78760  Biso   1.000  C
  O1       1.0000 0.17980  0.61870  0.27890  Biso   1.000  O
  O2       1.0000 0.82020  0.38130  0.72110  Biso   1.000  O
  C13      1.0000 0.17560  0.75380  0.06530  Biso   1.000  C
  C14      1.0000 0.82440  0.24620  0.93470  Biso   1.000  C
  C15      1.0000 0.02330  0.70960  0.95130  Biso   1.000  C
  C16      1.0000 0.97670  0.29040  0.04870  Biso   1.000  C
  H9       1.0000 0.98100  0.65000  0.98300  Biso   1.000  H
  H10      1.0000 0.01900  0.35000  0.01700  Biso   1.000  H
  C17      1.0000 0.94880  0.76270  0.79580  Biso   1.000  C
  C18      1.0000 0.05120  0.23730  0.20420  Biso   1.000  C
  H11      1.0000 0.85700  0.72100  0.69600  Biso   1.000  H
  H12      1.0000 0.14300  0.27900  0.30400  Biso   1.000  H
  C19      1.0000 0.03010  0.85910  0.75950  Biso   1.000  C
  C20      1.0000 0.96990  0.14090  0.24050  Biso   1.000  C
  H13      1.0000 0.98100  0.89700  0.66300  Biso   1.000  H
  H14      1.0000 0.01900  0.10300  0.33700  Biso   1.000  H
  C21      1.0000 0.18060  0.90350  0.88370  Biso   1.000  C
  C22      1.0000 0.81940  0.09650  0.11630  Biso   1.000  C
  H15      1.0000 0.23700  0.97500  0.87200  Biso   1.000  H
  H16      1.0000 0.76300  0.02500  0.12800  Biso   1.000  H
  N3       1.0000 0.25330  0.85290  0.03470  Biso   1.000  N
  N4       1.0000 0.74670  0.14710  0.96530  Biso   1.000  N
