data_image0
_cell_length_a       13.177
_cell_length_b       5.111
_cell_length_c       12.972
_cell_angle_alpha    90
_cell_angle_beta     116.63
_cell_angle_gamma    90

_symmetry_space_group_name_H-M    "P 1"
_symmetry_int_tables_number       1

loop_
  _symmetry_equiv_pos_as_xyz
  'x, y, z'

loop_
  _atom_site_label
  _atom_site_occupancy
  _atom_site_fract_x
  _atom_site_fract_y
  _atom_site_fract_z
  _atom_site_thermal_displace_type
  _atom_site_B_iso_or_equiv
  _atom_site_type_symbol
  O1       1.0000 0.87090  0.71710  0.04040  Biso   1.000  O
  O2       1.0000 0.12910  0.21710  0.45960  Biso   1.000  O
  O3       1.0000 0.12910  0.28290  0.95960  Biso   1.000  O
  O4       1.0000 0.87090  0.78290  0.54040  Biso   1.000  O
  O5       1.0000 0.73110  0.43700  0.01020  Biso   1.000  O
  O6       1.0000 0.26890  0.93700  0.48980  Biso   1.000  O
  O7       1.0000 0.26890  0.56300  0.98980  Biso   1.000  O
  O8       1.0000 0.73110  0.06300  0.51020  Biso   1.000  O
  O9       1.0000 0.87710  0.23870  0.91002  Biso   1.000  O
  O10      1.0000 0.12290  0.73870  0.58998  Biso   1.000  O
  O11      1.0000 0.12290  0.76130  0.08998  Biso   1.000  O
  O12      1.0000 0.87710  0.26130  0.41002  Biso   1.000  O
  O13      1.0000 0.84730  0.17300  0.72922  Biso   1.000  O
  O14      1.0000 0.15270  0.67300  0.77078  Biso   1.000  O
  O15      1.0000 0.15270  0.82700  0.27078  Biso   1.000  O
  O16      1.0000 0.84730  0.32700  0.22922  Biso   1.000  O
  O17      1.0000 0.98070  0.80140  0.86190  Biso   1.000  O
  O18      1.0000 0.01930  0.30140  0.63810  Biso   1.000  O
  O19      1.0000 0.01930  0.19860  0.13810  Biso   1.000  O
  O20      1.0000 0.98070  0.69860  0.36190  Biso   1.000  O
  C1       1.0000 0.73940  0.49830  0.76750  Biso   1.000  C
  C2       1.0000 0.26060  0.99830  0.73250  Biso   1.000  C
  C3       1.0000 0.26060  0.50170  0.23250  Biso   1.000  C
  C4       1.0000 0.73940  0.00170  0.26750  Biso   1.000  C
  C5       1.0000 0.72300  0.64850  0.84840  Biso   1.000  C
  C6       1.0000 0.27700  0.14850  0.65160  Biso   1.000  C
  C7       1.0000 0.27700  0.35150  0.15160  Biso   1.000  C
  C8       1.0000 0.72300  0.85150  0.34840  Biso   1.000  C
  C9       1.0000 0.64240  0.84750  0.81270  Biso   1.000  C
  C10      1.0000 0.35760  0.34750  0.68730  Biso   1.000  C
  C11      1.0000 0.35760  0.15250  0.18730  Biso   1.000  C
  C12      1.0000 0.64240  0.65250  0.31270  Biso   1.000  C
  C13      1.0000 0.57480  0.89030  0.69610  Biso   1.000  C
  C14      1.0000 0.42520  0.39030  0.80390  Biso   1.000  C
  C15      1.0000 0.42520  0.10970  0.30390  Biso   1.000  C
  C16      1.0000 0.57480  0.60970  0.19610  Biso   1.000  C
  C17      1.0000 0.58900  0.74020  0.61550  Biso   1.000  C
  C18      1.0000 0.41100  0.24020  0.88450  Biso   1.000  C
  C19      1.0000 0.41100  0.25980  0.38450  Biso   1.000  C
  C20      1.0000 0.58900  0.75980  0.11550  Biso   1.000  C
  C21      1.0000 0.67160  0.54800  0.65060  Biso   1.000  C
  C22      1.0000 0.32840  0.04800  0.84940  Biso   1.000  C
  C23      1.0000 0.32840  0.45200  0.34940  Biso   1.000  C
  C24      1.0000 0.67160  0.95200  0.15060  Biso   1.000  C
  C25      1.0000 0.82760  0.28770  0.80390  Biso   1.000  C
  C26      1.0000 0.17240  0.78770  0.69610  Biso   1.000  C
  C27      1.0000 0.17240  0.71230  0.19610  Biso   1.000  C
  C28      1.0000 0.82760  0.21230  0.30390  Biso   1.000  C
  C29      1.0000 0.78580  0.60220  0.97570  Biso   1.000  C
  C30      1.0000 0.21420  0.10220  0.52430  Biso   1.000  C
  C31      1.0000 0.21420  0.39780  0.02430  Biso   1.000  C
  C32      1.0000 0.78580  0.89780  0.47570  Biso   1.000  C
  H1       1.0000 0.94200  0.88500  0.80800  Biso   1.000  H
  H2       1.0000 0.05800  0.38500  0.69200  Biso   1.000  H
  H3       1.0000 0.05800  0.11500  0.19200  Biso   1.000  H
  H4       1.0000 0.94200  0.61500  0.30800  Biso   1.000  H
  H5       1.0000 0.03400  0.77000  0.85700  Biso   1.000  H
  H6       1.0000 0.96600  0.27000  0.64300  Biso   1.000  H
  H7       1.0000 0.96600  0.23000  0.14300  Biso   1.000  H
  H8       1.0000 0.03400  0.73000  0.35700  Biso   1.000  H
  H9       1.0000 0.62800  0.93800  0.86700  Biso   1.000  H
  H10      1.0000 0.37200  0.43800  0.63300  Biso   1.000  H
  H11      1.0000 0.37200  0.06200  0.13300  Biso   1.000  H
  H12      1.0000 0.62800  0.56200  0.36700  Biso   1.000  H
  H13      1.0000 0.52700  0.03600  0.67700  Biso   1.000  H
  H14      1.0000 0.47300  0.53600  0.82300  Biso   1.000  H
  H15      1.0000 0.47300  0.96400  0.32300  Biso   1.000  H
  H16      1.0000 0.52700  0.46400  0.17700  Biso   1.000  H
  H17      1.0000 0.54400  0.76900  0.53400  Biso   1.000  H
  H18      1.0000 0.45600  0.26900  0.96600  Biso   1.000  H
  H19      1.0000 0.45600  0.23100  0.46600  Biso   1.000  H
  H20      1.0000 0.54400  0.73100  0.03400  Biso   1.000  H
  H21      1.0000 0.67200  0.44600  0.60200  Biso   1.000  H
  H22      1.0000 0.32800  0.94600  0.89800  Biso   1.000  H
  H23      1.0000 0.32800  0.55400  0.39800  Biso   1.000  H
  H24      1.0000 0.67200  0.05400  0.10200  Biso   1.000  H
  H25      1.0000 0.76200  0.42300  0.07000  Biso   1.000  H
  H26      1.0000 0.23800  0.92300  0.43000  Biso   1.000  H
  H27      1.0000 0.23800  0.57700  0.93000  Biso   1.000  H
  H28      1.0000 0.76200  0.07700  0.57000  Biso   1.000  H
  Cu1      1.0000 0.00000  0.00000  0.00000  Biso   1.000  Cu
  Cu2      1.0000 0.00000  0.50000  0.50000  Biso   1.000  Cu
