data_image0
_cell_length_a       18.1806
_cell_length_b       18.4809
_cell_length_c       19.4599
_cell_angle_alpha    103.319
_cell_angle_beta     109.243
_cell_angle_gamma    103.091

_symmetry_space_group_name_H-M    "P 1"
_symmetry_int_tables_number       1

loop_
  _symmetry_equiv_pos_as_xyz
  'x, y, z'

loop_
  _atom_site_label
  _atom_site_occupancy
  _atom_site_fract_x
  _atom_site_fract_y
  _atom_site_fract_z
  _atom_site_thermal_displace_type
  _atom_site_B_iso_or_equiv
  _atom_site_type_symbol
  Cu1      1.0000 0.39438  0.72038  0.54849  Biso   1.000  Cu
  Cu2      1.0000 0.60562  0.27962  0.45151  Biso   1.000  Cu
  Cu3      1.0000 0.87451  0.63968  0.68197  Biso   1.000  Cu
  Cu4      1.0000 0.12549  0.36032  0.31803  Biso   1.000  Cu
  F1       1.0000 0.82260  0.62930  0.41330  Biso   1.000  F
  F2       1.0000 0.17740  0.37070  0.58670  Biso   1.000  F
  F3       1.0000 0.94750  0.68810  0.48950  Biso   1.000  F
  F4       1.0000 0.05250  0.31190  0.51050  Biso   1.000  F
  F5       1.0000 0.89270  0.56900  0.42440  Biso   1.000  F
  F6       1.0000 0.10730  0.43100  0.57560  Biso   1.000  F
  F7       1.0000 0.82320  0.61350  0.89140  Biso   1.000  F
  F8       1.0000 0.17680  0.38650  0.10860  Biso   1.000  F
  F9       1.0000 0.79720  0.48940  0.85430  Biso   1.000  F
  F10      1.0000 0.20280  0.51060  0.14570  Biso   1.000  F
  F11      1.0000 0.70380  0.53570  0.80600  Biso   1.000  F
  F12      1.0000 0.29620  0.46430  0.19400  Biso   1.000  F
  F13      1.0000 0.14350  0.76730  0.52800  Biso   1.000  F
  F14      1.0000 0.85650  0.23270  0.47200  Biso   1.000  F
  F15      1.0000 0.08710  0.71910  0.40680  Biso   1.000  F
  F16      1.0000 0.91290  0.28090  0.59320  Biso   1.000  F
  F17      1.0000 0.11200  0.64020  0.47320  Biso   1.000  F
  F18      1.0000 0.88800  0.35980  0.52680  Biso   1.000  F
  O1       1.0000 0.41530  0.62270  0.87870  Biso   1.000  O
  O2       1.0000 0.58470  0.37730  0.12130  Biso   1.000  O
  O3       1.0000 0.31570  0.51460  0.78840  Biso   1.000  O
  O4       1.0000 0.68430  0.48540  0.21160  Biso   1.000  O
  O5       1.0000 0.19270  0.50570  0.84480  Biso   1.000  O
  O6       1.0000 0.80730  0.49430  0.15520  Biso   1.000  O
  O7       1.0000 0.12190  0.40230  0.73750  Biso   1.000  O
  O8       1.0000 0.87810  0.59770  0.26250  Biso   1.000  O
  O9       1.0000 0.03620  0.20480  0.99770  Biso   1.000  O
  O10      1.0000 0.96380  0.79520  0.00230  Biso   1.000  O
  O11      1.0000 0.04080  0.15460  0.88480  Biso   1.000  O
  O12      1.0000 0.95920  0.84540  0.11520  Biso   1.000  O
  O13      1.0000 0.07600  0.03510  0.96000  Biso   1.000  O
  O14      1.0000 0.92400  0.96490  0.04000  Biso   1.000  O
  O15      1.0000 0.11740  0.04380  0.86190  Biso   1.000  O
  O16      1.0000 0.88260  0.95620  0.13810  Biso   1.000  O
  O17      1.0000 0.42640  0.09920  0.77150  Biso   1.000  O
  O18      1.0000 0.57360  0.90080  0.22850  Biso   1.000  O
  O19      1.0000 0.56340  0.12300  0.81060  Biso   1.000  O
  O20      1.0000 0.43660  0.87700  0.18940  Biso   1.000  O
  O21      1.0000 0.48730  0.23670  0.74440  Biso   1.000  O
  O22      1.0000 0.51270  0.76330  0.25560  Biso   1.000  O
  O23      1.0000 0.61710  0.31840  0.81960  Biso   1.000  O
  O24      1.0000 0.38290  0.68160  0.18040  Biso   1.000  O
  O25      1.0000 0.50990  0.72650  0.58650  Biso   1.000  O
  O26      1.0000 0.49010  0.27350  0.41350  Biso   1.000  O
  O27      1.0000 0.45960  0.59890  0.51290  Biso   1.000  O
  O28      1.0000 0.54040  0.40110  0.48710  Biso   1.000  O
  O29      1.0000 0.27020  0.69710  0.50550  Biso   1.000  O
  O30      1.0000 0.72980  0.30290  0.49450  Biso   1.000  O
  O31      1.0000 0.90660  0.65930  0.60010  Biso   1.000  O
  O32      1.0000 0.09340  0.34070  0.39990  Biso   1.000  O
  O33      1.0000 0.81840  0.53850  0.51470  Biso   1.000  O
  O34      1.0000 0.18160  0.46150  0.48530  Biso   1.000  O
  O35      1.0000 0.84500  0.62250  0.76780  Biso   1.000  O
  O36      1.0000 0.15500  0.37750  0.23220  Biso   1.000  O
  O37      1.0000 0.78800  0.48960  0.71200  Biso   1.000  O
  O38      1.0000 0.21200  0.51040  0.28800  Biso   1.000  O
  O39      1.0000 0.25030  0.78250  0.43220  Biso   1.000  O
  O40      1.0000 0.74970  0.21750  0.56780  Biso   1.000  O
  N1       1.0000 0.38280  0.67710  0.63060  Biso   1.000  N
  N2       1.0000 0.61720  0.32290  0.36940  Biso   1.000  N
  N3       1.0000 0.95970  0.58710  0.71140  Biso   1.000  N
  N4       1.0000 0.04030  0.41290  0.28860  Biso   1.000  N
  N5       1.0000 0.74750  0.03960  0.82670  Biso   1.000  N
  N6       1.0000 0.25250  0.96040  0.17330  Biso   1.000  N
  N7       1.0000 0.94470  0.76330  0.75640  Biso   1.000  N
  N8       1.0000 0.05530  0.23670  0.24360  Biso   1.000  N
  N9       1.0000 0.43120  0.84650  0.62090  Biso   1.000  N
  N10      1.0000 0.56880  0.15350  0.37910  Biso   1.000  N
  N11      1.0000 0.59530  0.26900  0.54700  Biso   1.000  N
  N12      1.0000 0.40470  0.73100  0.45300  Biso   1.000  N
  N13      1.0000 0.76300  0.64990  0.63200  Biso   1.000  N
  N14      1.0000 0.23700  0.35010  0.36800  Biso   1.000  N
  C1       1.0000 0.38280  0.41850  0.93440  Biso   1.000  C
  C2       1.0000 0.61720  0.58150  0.06560  Biso   1.000  C
  C3       1.0000 0.38110  0.45380  0.87680  Biso   1.000  C
  C4       1.0000 0.61890  0.54620  0.12320  Biso   1.000  C
  H1       1.0000 0.42480  0.46010  0.85980  Biso   1.000  H
  H2       1.0000 0.57520  0.53990  0.14020  Biso   1.000  H
  C5       1.0000 0.31830  0.47800  0.84660  Biso   1.000  C
  C6       1.0000 0.68170  0.52200  0.15340  Biso   1.000  C
  C7       1.0000 0.25380  0.47070  0.87110  Biso   1.000  C
  C8       1.0000 0.74620  0.52930  0.12890  Biso   1.000  C
  C9       1.0000 0.25020  0.43170  0.92220  Biso   1.000  C
  C10      1.0000 0.74980  0.56830  0.07780  Biso   1.000  C
  H3       1.0000 0.20330  0.42210  0.93460  Biso   1.000  H
  H4       1.0000 0.79670  0.57790  0.06540  Biso   1.000  H
  C11      1.0000 0.31500  0.40610  0.95640  Biso   1.000  C
  C12      1.0000 0.68500  0.59390  0.04360  Biso   1.000  C
  C13      1.0000 0.30930  0.36840  0.01600  Biso   1.000  C
  C14      1.0000 0.69070  0.63160  0.98400  Biso   1.000  C
  H5       1.0000 0.28210  0.39450  0.04570  Biso   1.000  H
  H6       1.0000 0.71790  0.60550  0.95430  Biso   1.000  H
  H7       1.0000 0.36570  0.37620  0.05250  Biso   1.000  H
  H8       1.0000 0.63430  0.62380  0.94750  Biso   1.000  H
  C15      1.0000 0.26160  0.28160  0.98010  Biso   1.000  C
  C16      1.0000 0.73840  0.71840  0.01990  Biso   1.000  C
  C17      1.0000 0.17560  0.25610  0.94910  Biso   1.000  C
  C18      1.0000 0.82440  0.74390  0.05090  Biso   1.000  C
  H9       1.0000 0.14850  0.29430  0.95160  Biso   1.000  H
  H10      1.0000 0.85150  0.70570  0.04840  Biso   1.000  H
  C19      1.0000 0.13010  0.18070  0.91620  Biso   1.000  C
  C20      1.0000 0.86990  0.81930  0.08380  Biso   1.000  C
  C21      1.0000 0.16670  0.12740  0.90630  Biso   1.000  C
  C22      1.0000 0.83330  0.87260  0.09370  Biso   1.000  C
  C23      1.0000 0.25080  0.14300  0.93200  Biso   1.000  C
  C24      1.0000 0.74920  0.85700  0.06800  Biso   1.000  C
  H11      1.0000 0.27450  0.10250  0.92430  Biso   1.000  H
  H12      1.0000 0.72550  0.89750  0.07570  Biso   1.000  H
  C25      1.0000 0.30010  0.22400  0.97080  Biso   1.000  C
  C26      1.0000 0.69990  0.77600  0.02920  Biso   1.000  C
  C27      1.0000 0.39330  0.24060  0.99750  Biso   1.000  C
  C28      1.0000 0.60670  0.75940  0.00250  Biso   1.000  C
  H13      1.0000 0.42290  0.29180  0.03980  Biso   1.000  H
  H14      1.0000 0.57710  0.70820  0.96020  Biso   1.000  H
  H15      1.0000 0.40830  0.19910  0.01780  Biso   1.000  H
  H16      1.0000 0.59170  0.80090  0.98220  Biso   1.000  H
  C29      1.0000 0.41860  0.24250  0.93360  Biso   1.000  C
  C30      1.0000 0.58140  0.75750  0.06640  Biso   1.000  C
  C31      1.0000 0.41530  0.17160  0.88430  Biso   1.000  C
  C32      1.0000 0.58470  0.82840  0.11570  Biso   1.000  C
  H17      1.0000 0.39760  0.12360  0.89330  Biso   1.000  H
  H18      1.0000 0.60240  0.87640  0.10670  Biso   1.000  H
  C33      1.0000 0.43760  0.17160  0.82300  Biso   1.000  C
  C34      1.0000 0.56240  0.82840  0.17700  Biso   1.000  C
  C35      1.0000 0.46880  0.24130  0.81100  Biso   1.000  C
  C36      1.0000 0.53120  0.75870  0.18900  Biso   1.000  C
  C37      1.0000 0.47320  0.31020  0.86050  Biso   1.000  C
  C38      1.0000 0.52680  0.68980  0.13950  Biso   1.000  C
  H19      1.0000 0.49560  0.35830  0.85350  Biso   1.000  H
  H20      1.0000 0.50440  0.64170  0.14650  Biso   1.000  H
  C39      1.0000 0.44830  0.31290  0.91660  Biso   1.000  C
  C40      1.0000 0.55170  0.68710  0.08340  Biso   1.000  C
  C41      1.0000 0.45470  0.39260  0.96760  Biso   1.000  C
  C42      1.0000 0.54530  0.60740  0.03240  Biso   1.000  C
  H21      1.0000 0.45900  0.38910  0.01880  Biso   1.000  H
  H22      1.0000 0.54100  0.61090  0.98120  Biso   1.000  H
  H23      1.0000 0.50580  0.43280  0.97550  Biso   1.000  H
  H24      1.0000 0.49420  0.56720  0.02450  Biso   1.000  H
  C43      1.0000 0.37330  0.58830  0.81380  Biso   1.000  C
  C44      1.0000 0.62670  0.41170  0.18620  Biso   1.000  C
  C45      1.0000 0.37280  0.61400  0.74550  Biso   1.000  C
  C46      1.0000 0.62720  0.38600  0.25450  Biso   1.000  C
  C47      1.0000 0.31900  0.57750  0.67280  Biso   1.000  C
  C48      1.0000 0.68100  0.42250  0.32720  Biso   1.000  C
  H25      1.0000 0.27800  0.52870  0.66010  Biso   1.000  H
  H26      1.0000 0.72200  0.47130  0.33990  Biso   1.000  H
  C49      1.0000 0.32110  0.60840  0.61580  Biso   1.000  C
  C50      1.0000 0.67890  0.39160  0.38420  Biso   1.000  C
  H27      1.0000 0.27950  0.58230  0.56510  Biso   1.000  H
  H28      1.0000 0.72050  0.41770  0.43490  Biso   1.000  H
  C51      1.0000 0.43790  0.71280  0.70390  Biso   1.000  C
  C52      1.0000 0.56210  0.28720  0.29610  Biso   1.000  C
  H29      1.0000 0.48080  0.76010  0.71570  Biso   1.000  H
  H30      1.0000 0.51920  0.23990  0.28430  Biso   1.000  H
  C53      1.0000 0.43520  0.68320  0.76500  Biso   1.000  C
  C54      1.0000 0.56480  0.31680  0.23500  Biso   1.000  C
  H31      1.0000 0.47460  0.70990  0.81660  Biso   1.000  H
  H32      1.0000 0.52540  0.29010  0.18340  Biso   1.000  H
  C55      1.0000 0.13020  0.46610  0.77460  Biso   1.000  C
  C56      1.0000 0.86980  0.53390  0.22540  Biso   1.000  C
  C57      1.0000 0.07190  0.50880  0.75230  Biso   1.000  C
  C58      1.0000 0.92810  0.49120  0.24770  Biso   1.000  C
  C59      1.0000 0.00690  0.47790  0.69050  Biso   1.000  C
  C60      1.0000 0.99310  0.52210  0.30950  Biso   1.000  C
  H33      1.0000 0.99580  0.42570  0.65930  Biso   1.000  H
  H34      1.0000 0.00420  0.57430  0.34070  Biso   1.000  H
  C61      1.0000 0.94890  0.51820  0.66500  Biso   1.000  C
  C62      1.0000 0.05110  0.48180  0.33500  Biso   1.000  C
  H35      1.0000 0.90400  0.49530  0.61590  Biso   1.000  H
  H36      1.0000 0.09600  0.50470  0.38410  Biso   1.000  H
  C63      1.0000 0.02470  0.61660  0.77760  Biso   1.000  C
  C64      1.0000 0.97530  0.38340  0.22240  Biso   1.000  C
  H37      1.0000 0.03160  0.66680  0.81020  Biso   1.000  H
  H38      1.0000 0.96840  0.33320  0.18980  Biso   1.000  H
  C65      1.0000 0.08240  0.58420  0.80460  Biso   1.000  C
  C66      1.0000 0.91760  0.41580  0.19540  Biso   1.000  C
  H39      1.0000 0.12660  0.60860  0.85410  Biso   1.000  H
  H40      1.0000 0.87340  0.39140  0.14590  Biso   1.000  H
  C67      1.0000 0.00300  0.16360  0.93450  Biso   1.000  C
  C68      1.0000 0.99700  0.83640  0.06550  Biso   1.000  C
  C69      1.0000 0.91060  0.11690  0.88490  Biso   1.000  C
  C70      1.0000 0.08940  0.88310  0.11510  Biso   1.000  C
  C71      1.0000 0.88220  0.06350  0.81570  Biso   1.000  C
  C72      1.0000 0.11780  0.93650  0.18430  Biso   1.000  C
  H41      1.0000 0.91580  0.05490  0.78830  Biso   1.000  H
  H42      1.0000 0.08420  0.94510  0.21170  Biso   1.000  H
  C73      1.0000 0.79180  0.01770  0.78450  Biso   1.000  C
  C74      1.0000 0.20820  0.98230  0.21550  Biso   1.000  C
  H43      1.0000 0.76590  0.97490  0.73720  Biso   1.000  H
  H44      1.0000 0.23410  0.02510  0.26280  Biso   1.000  H
  C75      1.0000 0.77700  0.09400  0.88600  Biso   1.000  C
  C76      1.0000 0.22300  0.90600  0.11400  Biso   1.000  C
  H45      1.0000 0.74070  0.10770  0.90890  Biso   1.000  H
  H46      1.0000 0.25930  0.89230  0.09110  Biso   1.000  H
  C77      1.0000 0.86000  0.13770  0.92450  Biso   1.000  C
  C78      1.0000 0.14000  0.86230  0.07550  Biso   1.000  C
  H47      1.0000 0.88170  0.17830  0.97290  Biso   1.000  H
  H48      1.0000 0.11830  0.82170  0.02710  Biso   1.000  H
  C79      1.0000 0.07610  0.00330  0.89680  Biso   1.000  C
  C80      1.0000 0.92390  0.99670  0.10320  Biso   1.000  C
  C81      1.0000 0.03120  0.92210  0.84770  Biso   1.000  C
  C82      1.0000 0.96880  0.07790  0.15230  Biso   1.000  C
  C83      1.0000 0.02960  0.89310  0.77280  Biso   1.000  C
  C84      1.0000 0.97040  0.10690  0.22720  Biso   1.000  C
  H49      1.0000 0.05670  0.92680  0.75200  Biso   1.000  H
  H50      1.0000 0.94330  0.07320  0.24800  Biso   1.000  H
  C85      1.0000 0.98780  0.81500  0.73170  Biso   1.000  C
  C86      1.0000 0.01220  0.18500  0.26830  Biso   1.000  C
  H51      1.0000 0.98880  0.79510  0.68250  Biso   1.000  H
  H52      1.0000 0.01120  0.20490  0.31750  Biso   1.000  H
  C87      1.0000 0.95100  0.79460  0.82960  Biso   1.000  C
  C88      1.0000 0.04900  0.20540  0.17040  Biso   1.000  C
  H53      1.0000 0.92610  0.75960  0.85060  Biso   1.000  H
  H54      1.0000 0.07390  0.24040  0.14940  Biso   1.000  H
  C89      1.0000 0.98950  0.87090  0.87530  Biso   1.000  C
  C90      1.0000 0.01050  0.12910  0.12470  Biso   1.000  C
  H55      1.0000 0.98810  0.88890  0.92460  Biso   1.000  H
  H56      1.0000 0.01190  0.11110  0.07540  Biso   1.000  H
  C91      1.0000 0.49400  0.07870  0.77110  Biso   1.000  C
  C92      1.0000 0.50600  0.92130  0.22890  Biso   1.000  C
  C93      1.0000 0.47100  0.00030  0.71690  Biso   1.000  C
  C94      1.0000 0.52900  0.99970  0.28310  Biso   1.000  C
  C95      1.0000 0.53280  0.96900  0.71370  Biso   1.000  C
  C96      1.0000 0.46720  0.03100  0.28630  Biso   1.000  C
  H57      1.0000 0.58930  0.99810  0.74520  Biso   1.000  H
  H58      1.0000 0.41070  0.00190  0.25480  Biso   1.000  H
  C97      1.0000 0.50810  0.89160  0.66140  Biso   1.000  C
  C98      1.0000 0.49190  0.10840  0.33860  Biso   1.000  C
  H59      1.0000 0.55010  0.87140  0.65540  Biso   1.000  H
  H60      1.0000 0.44990  0.12860  0.34460  Biso   1.000  H
  C99      1.0000 0.37410  0.87880  0.63080  Biso   1.000  C
  C100     1.0000 0.62590  0.12120  0.36920  Biso   1.000  C
  H61      1.0000 0.31770  0.84720  0.60250  Biso   1.000  H
  H62      1.0000 0.68230  0.15280  0.39750  Biso   1.000  H
  C101     1.0000 0.39070  0.95250  0.67780  Biso   1.000  C
  C102     1.0000 0.60930  0.04750  0.32220  Biso   1.000  C
  H63      1.0000 0.34730  0.97050  0.68330  Biso   1.000  H
  H64      1.0000 0.65270  0.02950  0.31670  Biso   1.000  H
  C103     1.0000 0.56620  0.28170  0.75820  Biso   1.000  C
  C104     1.0000 0.43380  0.71830  0.24180  Biso   1.000  C
  C105     1.0000 0.57440  0.27450  0.68600  Biso   1.000  C
  C106     1.0000 0.42560  0.72550  0.31400  Biso   1.000  C
  C107     1.0000 0.51810  0.21790  0.61300  Biso   1.000  C
  C108     1.0000 0.48190  0.78210  0.38700  Biso   1.000  C
  H65      1.0000 0.47100  0.18050  0.61070  Biso   1.000  H
  H66      1.0000 0.52900  0.81950  0.38930  Biso   1.000  H
  C109     1.0000 0.52880  0.21490  0.54570  Biso   1.000  C
  C110     1.0000 0.47120  0.78510  0.45430  Biso   1.000  C
  H67      1.0000 0.49020  0.17540  0.49850  Biso   1.000  H
  H68      1.0000 0.50980  0.82460  0.50150  Biso   1.000  H
  C111     1.0000 0.65330  0.32620  0.62060  Biso   1.000  C
  C112     1.0000 0.34670  0.67380  0.37940  Biso   1.000  C
  H69      1.0000 0.70060  0.36390  0.62370  Biso   1.000  H
  H70      1.0000 0.29940  0.63610  0.37630  Biso   1.000  H
  C113     1.0000 0.64020  0.32610  0.68450  Biso   1.000  C
  C114     1.0000 0.35980  0.67390  0.31550  Biso   1.000  C
  H71      1.0000 0.67950  0.36460  0.73210  Biso   1.000  H
  H72      1.0000 0.32050  0.63540  0.26790  Biso   1.000  H
  C115     1.0000 0.51790  0.65920  0.55500  Biso   1.000  C
  C116     1.0000 0.48210  0.34080  0.44500  Biso   1.000  C
  C117     1.0000 0.60390  0.65670  0.58170  Biso   1.000  C
  C118     1.0000 0.39610  0.34330  0.41830  Biso   1.000  C
  C119     1.0000 0.61770  0.58450  0.56620  Biso   1.000  C
  C120     1.0000 0.38230  0.41550  0.43380  Biso   1.000  C
  H73      1.0000 0.57290  0.53660  0.53760  Biso   1.000  H
  H74      1.0000 0.42710  0.46340  0.46240  Biso   1.000  H
  C121     1.0000 0.69720  0.58460  0.59340  Biso   1.000  C
  C122     1.0000 0.30280  0.41540  0.40660  Biso   1.000  C
  H75      1.0000 0.70630  0.53540  0.58430  Biso   1.000  H
  H76      1.0000 0.29370  0.46460  0.41570  Biso   1.000  H
  C123     1.0000 0.74970  0.71820  0.64470  Biso   1.000  C
  C124     1.0000 0.25030  0.28180  0.35530  Biso   1.000  C
  H77      1.0000 0.79610  0.76490  0.67170  Biso   1.000  H
  H78      1.0000 0.20390  0.23510  0.32830  Biso   1.000  H
  C125     1.0000 0.67380  0.72510  0.62130  Biso   1.000  C
  C126     1.0000 0.32620  0.27490  0.37870  Biso   1.000  C
  H79      1.0000 0.66760  0.77570  0.63140  Biso   1.000  H
  H80      1.0000 0.33240  0.22430  0.36860  Biso   1.000  H
  C127     1.0000 0.86820  0.60580  0.53630  Biso   1.000  C
  C128     1.0000 0.13180  0.39420  0.46370  Biso   1.000  C
  C129     1.0000 0.88500  0.62320  0.47290  Biso   1.000  C
  C130     1.0000 0.11500  0.37680  0.52710  Biso   1.000  C
  C131     1.0000 0.80960  0.54980  0.76400  Biso   1.000  C
  C132     1.0000 0.19040  0.45020  0.23600  Biso   1.000  C
  C133     1.0000 0.79680  0.55150  0.83540  Biso   1.000  C
  C134     1.0000 0.20320  0.44850  0.16460  Biso   1.000  C
  C135     1.0000 0.22810  0.73190  0.46580  Biso   1.000  C
  C136     1.0000 0.77190  0.26810  0.53420  Biso   1.000  C
  C137     1.0000 0.14200  0.70500  0.45600  Biso   1.000  C
  C138     1.0000 0.85800  0.29500  0.54400  Biso   1.000  C
