data_image0
_cell_length_a       7.1053
_cell_length_b       10.24
_cell_length_c       15.588
_cell_angle_alpha    80.576
_cell_angle_beta     79.403
_cell_angle_gamma    76.361

_symmetry_space_group_name_H-M    "P 1"
_symmetry_int_tables_number       1

loop_
  _symmetry_equiv_pos_as_xyz
  'x, y, z'

loop_
  _atom_site_label
  _atom_site_occupancy
  _atom_site_fract_x
  _atom_site_fract_y
  _atom_site_fract_z
  _atom_site_thermal_displace_type
  _atom_site_B_iso_or_equiv
  _atom_site_type_symbol
  Er1      1.0000 0.34823  0.22151  0.26155  Biso   1.000  Er
  Er2      1.0000 0.65177  0.77849  0.73845  Biso   1.000  Er
  Er3      1.0000 0.73257  0.81013  0.36540  Biso   1.000  Er
  Er4      1.0000 0.26743  0.18987  0.63460  Biso   1.000  Er
  Cu1      1.0000 0.39305  0.37432  0.97002  Biso   1.000  Cu
  Cu2      1.0000 0.60695  0.62568  0.02998  Biso   1.000  Cu
  C1       1.0000 0.14640  0.62560  0.95960  Biso   1.000  C
  C2       1.0000 0.85360  0.37440  0.04040  Biso   1.000  C
  C3       1.0000 0.14470  0.57720  0.05430  Biso   1.000  C
  C4       1.0000 0.85530  0.42280  0.94570  Biso   1.000  C
  C5       1.0000 0.03850  0.62410  0.13120  Biso   1.000  C
  C6       1.0000 0.96150  0.37590  0.86880  Biso   1.000  C
  H1       1.0000 0.94660  0.70450  0.13760  Biso   1.000  H
  H2       1.0000 0.05340  0.29550  0.86240  Biso   1.000  H
  C7       1.0000 0.10260  0.52170  0.19640  Biso   1.000  C
  C8       1.0000 0.89740  0.47830  0.80360  Biso   1.000  C
  C9       1.0000 0.05060  0.50810  0.29370  Biso   1.000  C
  C10      1.0000 0.94940  0.49190  0.70630  Biso   1.000  C
  C11      1.0000 0.64650  0.17250  0.88330  Biso   1.000  C
  C12      1.0000 0.35350  0.82750  0.11670  Biso   1.000  C
  C13      1.0000 0.64730  0.12520  0.97890  Biso   1.000  C
  C14      1.0000 0.35270  0.87480  0.02110  Biso   1.000  C
  C15      1.0000 0.73680  0.01470  0.03020  Biso   1.000  C
  C16      1.0000 0.26320  0.98530  0.96980  Biso   1.000  C
  H3       1.0000 0.83090  0.94040  0.01220  Biso   1.000  H
  H4       1.0000 0.16910  0.05960  0.98780  Biso   1.000  H
  C17      1.0000 0.65380  0.03990  0.11560  Biso   1.000  C
  C18      1.0000 0.34620  0.96010  0.88440  Biso   1.000  C
  C19      1.0000 0.67740  0.96430  0.20240  Biso   1.000  C
  C20      1.0000 0.32260  0.03570  0.79760  Biso   1.000  C
  N1       1.0000 0.26330  0.45690  0.07370  Biso   1.000  N
  N2       1.0000 0.73670  0.54310  0.92630  Biso   1.000  N
  N3       1.0000 0.23880  0.42130  0.16060  Biso   1.000  N
  N4       1.0000 0.76120  0.57870  0.83940  Biso   1.000  N
  N5       1.0000 0.52050  0.21040  0.03130  Biso   1.000  N
  N6       1.0000 0.47950  0.78960  0.96870  Biso   1.000  N
  N7       1.0000 0.52440  0.16030  0.11560  Biso   1.000  N
  N8       1.0000 0.47560  0.83970  0.88440  Biso   1.000  N
  S1       1.0000 0.62770  0.14486  0.44485  Biso   1.000  S
  S2       1.0000 0.37230  0.85514  0.55515  Biso   1.000  S
  O1       1.0000 0.26560  0.54610  0.90820  Biso   1.000  O
  O2       1.0000 0.73440  0.45390  0.09180  Biso   1.000  O
  O3       1.0000 0.04120  0.73430  0.93510  Biso   1.000  O
  O4       1.0000 0.95880  0.26570  0.06490  Biso   1.000  O
  O5       1.0000 0.13140  0.39230  0.33300  Biso   1.000  O
  O6       1.0000 0.86860  0.60770  0.66700  Biso   1.000  O
  O7       1.0000 0.93520  0.59940  0.33150  Biso   1.000  O
  O8       1.0000 0.06480  0.40060  0.66850  Biso   1.000  O
  O9       1.0000 0.52840  0.28740  0.86500  Biso   1.000  O
  O10      1.0000 0.47160  0.71260  0.13500  Biso   1.000  O
  O11      1.0000 0.75330  0.10720  0.82670  Biso   1.000  O
  O12      1.0000 0.24670  0.89280  0.17330  Biso   1.000  O
  O13      1.0000 0.56580  0.01100  0.27070  Biso   1.000  O
  O14      1.0000 0.43420  0.98900  0.72930  Biso   1.000  O
  O15      1.0000 0.79810  0.85540  0.21240  Biso   1.000  O
  O16      1.0000 0.20190  0.14460  0.78760  Biso   1.000  O
  O17      1.0000 0.45950  0.18460  0.39680  Biso   1.000  O
  O18      1.0000 0.54050  0.81540  0.60320  Biso   1.000  O
  O19      1.0000 0.72030  0.00030  0.44130  Biso   1.000  O
  O20      1.0000 0.27970  0.99970  0.55870  Biso   1.000  O
  O21      1.0000 0.55790  0.16830  0.53770  Biso   1.000  O
  O22      1.0000 0.44210  0.83170  0.46230  Biso   1.000  O
  O23      1.0000 0.77350  0.22810  0.40600  Biso   1.000  O
  O24      1.0000 0.22650  0.77190  0.59400  Biso   1.000  O
  O25      1.0000 0.60220  0.33220  0.24770  Biso   1.000  O
  O26      1.0000 0.39780  0.66780  0.75230  Biso   1.000  O
  H5       1.0000 0.65100  0.37070  0.19950  Biso   1.000  H
  H6       1.0000 0.34900  0.62930  0.80050  Biso   1.000  H
  H7       1.0000 0.67860  0.31850  0.28540  Biso   1.000  H
  H8       1.0000 0.32140  0.68150  0.71460  Biso   1.000  H
  O27      1.0000 0.11010  0.15490  0.20580  Biso   1.000  O
  O28      1.0000 0.88990  0.84510  0.79420  Biso   1.000  O
  H9       1.0000 0.05800  0.20830  0.16510  Biso   1.000  H
  H10      1.0000 0.94200  0.79170  0.83490  Biso   1.000  H
  H11      1.0000 0.13470  0.07470  0.19420  Biso   1.000  H
  H12      1.0000 0.86530  0.92530  0.80580  Biso   1.000  H
  O29      1.0000 0.15290  0.09100  0.37540  Biso   1.000  O
  O30      1.0000 0.84710  0.90900  0.62460  Biso   1.000  O
  H13      1.0000 0.03310  0.13020  0.38560  Biso   1.000  H
  H14      1.0000 0.96690  0.86980  0.61440  Biso   1.000  H
  H15      1.0000 0.20060  0.08090  0.42300  Biso   1.000  H
  H16      1.0000 0.79940  0.91910  0.57700  Biso   1.000  H
  O31      1.0000 0.86370  0.69180  0.48740  Biso   1.000  O
  O32      1.0000 0.13630  0.30820  0.51260  Biso   1.000  O
  H17      1.0000 0.97970  0.64510  0.48420  Biso   1.000  H
  H18      1.0000 0.02030  0.35490  0.51580  Biso   1.000  H
  H19      1.0000 0.80900  0.68770  0.54070  Biso   1.000  H
  H20      1.0000 0.19100  0.31230  0.45930  Biso   1.000  H
  O33      1.0000 0.52560  0.70110  0.31640  Biso   1.000  O
  O34      1.0000 0.47440  0.29890  0.68360  Biso   1.000  O
  H21      1.0000 0.52200  0.69850  0.26330  Biso   1.000  H
  H22      1.0000 0.47800  0.30150  0.73670  Biso   1.000  H
  H23      1.0000 0.43200  0.67360  0.34970  Biso   1.000  H
  H24      1.0000 0.56800  0.32640  0.65030  Biso   1.000  H
  O35      1.0000 0.04390  0.85590  0.33640  Biso   1.000  O
  O36      1.0000 0.95610  0.14410  0.66360  Biso   1.000  O
  H25      1.0000 0.11430  0.84790  0.28660  Biso   1.000  H
  H26      1.0000 0.88570  0.15210  0.71340  Biso   1.000  H
  H27      1.0000 0.06880  0.92010  0.35840  Biso   1.000  H
  H28      1.0000 0.93120  0.07990  0.64160  Biso   1.000  H
  O37      1.0000 0.26460  0.58130  0.46860  Biso   1.000  O
  O38      1.0000 0.73540  0.41870  0.53140  Biso   1.000  O
  H29      1.0000 0.27100  0.62170  0.51110  Biso   1.000  H
  H30      1.0000 0.72900  0.37830  0.48890  Biso   1.000  H
  H31      1.0000 0.24970  0.50150  0.48790  Biso   1.000  H
  H32      1.0000 0.75030  0.49850  0.51210  Biso   1.000  H
