data_image0
_cell_length_a       7.1241
_cell_length_b       10.275
_cell_length_c       15.604
_cell_angle_alpha    80.698
_cell_angle_beta     79.468
_cell_angle_gamma    76.455

_symmetry_space_group_name_H-M    "P 1"
_symmetry_int_tables_number       1

loop_
  _symmetry_equiv_pos_as_xyz
  'x, y, z'

loop_
  _atom_site_label
  _atom_site_occupancy
  _atom_site_fract_x
  _atom_site_fract_y
  _atom_site_fract_z
  _atom_site_thermal_displace_type
  _atom_site_B_iso_or_equiv
  _atom_site_type_symbol
  Dy1      1.0000 0.34905  0.22104  0.26164  Biso   1.000  Dy
  Dy2      1.0000 0.65095  0.77896  0.73835  Biso   1.000  Dy
  Dy3      1.0000 0.73394  0.80984  0.36508  Biso   1.000  Dy
  Dy4      1.0000 0.26606  0.19016  0.63492  Biso   1.000  Dy
  Cu1      1.0000 0.39354  0.37346  0.97006  Biso   1.000  Cu
  Cu2      1.0000 0.60646  0.62654  0.02994  Biso   1.000  Cu
  C1       1.0000 0.14880  0.62460  0.95950  Biso   1.000  C
  C2       1.0000 0.85120  0.37540  0.04050  Biso   1.000  C
  C3       1.0000 0.14530  0.57610  0.05390  Biso   1.000  C
  C4       1.0000 0.85470  0.42390  0.94610  Biso   1.000  C
  C5       1.0000 0.04180  0.62340  0.13000  Biso   1.000  C
  C6       1.0000 0.95820  0.37660  0.87000  Biso   1.000  C
  H1       1.0000 0.95100  0.70400  0.13610  Biso   1.000  H
  H2       1.0000 0.04900  0.29600  0.86390  Biso   1.000  H
  C7       1.0000 0.10460  0.52260  0.19560  Biso   1.000  C
  C8       1.0000 0.89540  0.47740  0.80440  Biso   1.000  C
  C9       1.0000 0.05230  0.50730  0.29210  Biso   1.000  C
  C10      1.0000 0.94770  0.49270  0.70790  Biso   1.000  C
  C11      1.0000 0.64600  0.17340  0.88310  Biso   1.000  C
  C12      1.0000 0.35400  0.82660  0.11690  Biso   1.000  C
  C13      1.0000 0.64620  0.12510  0.97830  Biso   1.000  C
  C14      1.0000 0.35380  0.87490  0.02170  Biso   1.000  C
  C15      1.0000 0.73590  0.01440  0.02880  Biso   1.000  C
  C16      1.0000 0.26410  0.98560  0.97120  Biso   1.000  C
  H3       1.0000 0.82850  0.94000  0.01070  Biso   1.000  H
  H4       1.0000 0.17150  0.06000  0.98930  Biso   1.000  H
  C17      1.0000 0.65410  0.04080  0.11440  Biso   1.000  C
  C18      1.0000 0.34590  0.95920  0.88560  Biso   1.000  C
  C19      1.0000 0.67960  0.96330  0.20090  Biso   1.000  C
  C20      1.0000 0.32040  0.03670  0.79910  Biso   1.000  C
  N1       1.0000 0.26260  0.45600  0.07330  Biso   1.000  N
  N2       1.0000 0.73740  0.54400  0.92670  Biso   1.000  N
  N3       1.0000 0.23990  0.42080  0.16025  Biso   1.000  N
  N4       1.0000 0.76010  0.57920  0.83975  Biso   1.000  N
  N5       1.0000 0.52030  0.21060  0.03087  Biso   1.000  N
  N6       1.0000 0.47970  0.78940  0.96913  Biso   1.000  N
  N7       1.0000 0.52580  0.15950  0.11522  Biso   1.000  N
  N8       1.0000 0.47420  0.84050  0.88478  Biso   1.000  N
  S1       1.0000 0.62942  0.14453  0.44546  Biso   1.000  S
  S2       1.0000 0.37058  0.85547  0.55454  Biso   1.000  S
  O1       1.0000 0.26680  0.54410  0.90799  Biso   1.000  O
  O2       1.0000 0.73320  0.45590  0.09201  Biso   1.000  O
  O3       1.0000 0.04300  0.73160  0.93509  Biso   1.000  O
  O4       1.0000 0.95700  0.26840  0.06491  Biso   1.000  O
  O5       1.0000 0.13170  0.39460  0.33265  Biso   1.000  O
  O6       1.0000 0.86830  0.60540  0.66735  Biso   1.000  O
  O7       1.0000 0.93700  0.60050  0.32965  Biso   1.000  O
  O8       1.0000 0.06300  0.39950  0.67035  Biso   1.000  O
  O9       1.0000 0.52830  0.28660  0.86515  Biso   1.000  O
  O10      1.0000 0.47170  0.71340  0.13485  Biso   1.000  O
  O11      1.0000 0.75120  0.10640  0.82632  Biso   1.000  O
  O12      1.0000 0.24880  0.89360  0.17368  Biso   1.000  O
  O13      1.0000 0.56930  0.00950  0.26934  Biso   1.000  O
  O14      1.0000 0.43070  0.99050  0.73066  Biso   1.000  O
  O15      1.0000 0.80040  0.85620  0.21037  Biso   1.000  O
  O16      1.0000 0.19960  0.14380  0.78963  Biso   1.000  O
  O17      1.0000 0.46140  0.18410  0.39750  Biso   1.000  O
  O18      1.0000 0.53860  0.81590  0.60250  Biso   1.000  O
  O19      1.0000 0.72070  0.00040  0.44198  Biso   1.000  O
  O20      1.0000 0.27930  0.99960  0.55802  Biso   1.000  O
  O21      1.0000 0.56030  0.16800  0.53843  Biso   1.000  O
  O22      1.0000 0.43970  0.83200  0.46157  Biso   1.000  O
  O23      1.0000 0.77340  0.22760  0.40696  Biso   1.000  O
  O24      1.0000 0.22660  0.77240  0.59304  Biso   1.000  O
  O25      1.0000 0.60410  0.33350  0.24766  Biso   1.000  O
  O26      1.0000 0.39590  0.66650  0.75234  Biso   1.000  O
  H5       1.0000 0.65300  0.37190  0.19940  Biso   1.000  H
  H6       1.0000 0.34700  0.62810  0.80060  Biso   1.000  H
  H7       1.0000 0.68060  0.31980  0.28530  Biso   1.000  H
  H8       1.0000 0.31940  0.68020  0.71470  Biso   1.000  H
  O27      1.0000 0.10970  0.15390  0.20485  Biso   1.000  O
  O28      1.0000 0.89030  0.84610  0.79515  Biso   1.000  O
  H9       1.0000 0.05760  0.20730  0.16420  Biso   1.000  H
  H10      1.0000 0.94240  0.79270  0.83580  Biso   1.000  H
  H11      1.0000 0.13430  0.07360  0.19330  Biso   1.000  H
  H12      1.0000 0.86570  0.92640  0.80670  Biso   1.000  H
  O29      1.0000 0.15170  0.09050  0.37661  Biso   1.000  O
  O30      1.0000 0.84830  0.90950  0.62339  Biso   1.000  O
  H13      1.0000 0.03190  0.12960  0.38680  Biso   1.000  H
  H14      1.0000 0.96810  0.87040  0.61320  Biso   1.000  H
  H15      1.0000 0.19950  0.08030  0.42420  Biso   1.000  H
  H16      1.0000 0.80050  0.91970  0.57580  Biso   1.000  H
  O31      1.0000 0.86880  0.69120  0.48754  Biso   1.000  O
  O32      1.0000 0.13120  0.30880  0.51246  Biso   1.000  O
  H17      1.0000 0.98470  0.64440  0.48430  Biso   1.000  H
  H18      1.0000 0.01530  0.35560  0.51570  Biso   1.000  H
  H19      1.0000 0.81400  0.68710  0.54080  Biso   1.000  H
  H20      1.0000 0.18600  0.31290  0.45920  Biso   1.000  H
  O33      1.0000 0.52470  0.70090  0.31486  Biso   1.000  O
  O34      1.0000 0.47530  0.29910  0.68514  Biso   1.000  O
  H21      1.0000 0.52110  0.69830  0.26170  Biso   1.000  H
  H22      1.0000 0.47890  0.30170  0.73830  Biso   1.000  H
  H23      1.0000 0.43110  0.67340  0.34810  Biso   1.000  H
  H24      1.0000 0.56890  0.32660  0.65190  Biso   1.000  H
  O35      1.0000 0.04840  0.85640  0.33626  Biso   1.000  O
  O36      1.0000 0.95160  0.14360  0.66374  Biso   1.000  O
  H25      1.0000 0.11870  0.84840  0.28650  Biso   1.000  H
  H26      1.0000 0.88130  0.15160  0.71350  Biso   1.000  H
  H27      1.0000 0.07320  0.92050  0.35820  Biso   1.000  H
  H28      1.0000 0.92680  0.07950  0.64180  Biso   1.000  H
  O37      1.0000 0.26600  0.58040  0.46800  Biso   1.000  O
  O38      1.0000 0.73400  0.41960  0.53200  Biso   1.000  O
  H29      1.0000 0.27240  0.62080  0.51040  Biso   1.000  H
  H30      1.0000 0.72760  0.37920  0.48960  Biso   1.000  H
  H31      1.0000 0.25110  0.50060  0.48720  Biso   1.000  H
  H32      1.0000 0.74890  0.49940  0.51280  Biso   1.000  H
