data_image0
_cell_length_a       7.1223
_cell_length_b       10.26
_cell_length_c       15.606
_cell_angle_alpha    80.612
_cell_angle_beta     79.396
_cell_angle_gamma    76.402

_symmetry_space_group_name_H-M    "P 1"
_symmetry_int_tables_number       1

loop_
  _symmetry_equiv_pos_as_xyz
  'x, y, z'

loop_
  _atom_site_label
  _atom_site_occupancy
  _atom_site_fract_x
  _atom_site_fract_y
  _atom_site_fract_z
  _atom_site_thermal_displace_type
  _atom_site_B_iso_or_equiv
  _atom_site_type_symbol
  Ho1      1.0000 0.34850  0.22136  0.26159  Biso   1.000  Ho
  Ho2      1.0000 0.65150  0.77864  0.73841  Biso   1.000  Ho
  Ho3      1.0000 0.73324  0.81022  0.36517  Biso   1.000  Ho
  Ho4      1.0000 0.26676  0.18978  0.63484  Biso   1.000  Ho
  Cu1      1.0000 0.39298  0.37409  0.96996  Biso   1.000  Cu
  Cu2      1.0000 0.60702  0.62591  0.03004  Biso   1.000  Cu
  C1       1.0000 0.14800  0.62550  0.95960  Biso   1.000  C
  C2       1.0000 0.85200  0.37450  0.04040  Biso   1.000  C
  C3       1.0000 0.14480  0.57660  0.05370  Biso   1.000  C
  C4       1.0000 0.85520  0.42340  0.94630  Biso   1.000  C
  C5       1.0000 0.03950  0.62350  0.13100  Biso   1.000  C
  C6       1.0000 0.96050  0.37650  0.86900  Biso   1.000  C
  H1       1.0000 0.94730  0.70340  0.13760  Biso   1.000  H
  H2       1.0000 0.05270  0.29660  0.86240  Biso   1.000  H
  C7       1.0000 0.10510  0.52240  0.19570  Biso   1.000  C
  C8       1.0000 0.89490  0.47760  0.80430  Biso   1.000  C
  C9       1.0000 0.05240  0.50680  0.29330  Biso   1.000  C
  C10      1.0000 0.94760  0.49320  0.70670  Biso   1.000  C
  C11      1.0000 0.64710  0.17340  0.88340  Biso   1.000  C
  C12      1.0000 0.35290  0.82660  0.11660  Biso   1.000  C
  C13      1.0000 0.64710  0.12520  0.97840  Biso   1.000  C
  C14      1.0000 0.35290  0.87480  0.02160  Biso   1.000  C
  C15      1.0000 0.73560  0.01490  0.02940  Biso   1.000  C
  C16      1.0000 0.26440  0.98510  0.97060  Biso   1.000  C
  H3       1.0000 0.82810  0.94020  0.01140  Biso   1.000  H
  H4       1.0000 0.17190  0.05980  0.98860  Biso   1.000  H
  C17      1.0000 0.65430  0.04080  0.11480  Biso   1.000  C
  C18      1.0000 0.34570  0.95920  0.88520  Biso   1.000  C
  C19      1.0000 0.67850  0.96350  0.20200  Biso   1.000  C
  C20      1.0000 0.32150  0.03650  0.79800  Biso   1.000  C
  N1       1.0000 0.26280  0.45680  0.07340  Biso   1.000  N
  N2       1.0000 0.73720  0.54320  0.92660  Biso   1.000  N
  N3       1.0000 0.23890  0.42100  0.16040  Biso   1.000  N
  N4       1.0000 0.76110  0.57900  0.83960  Biso   1.000  N
  N5       1.0000 0.51990  0.21070  0.03130  Biso   1.000  N
  N6       1.0000 0.48010  0.78930  0.96870  Biso   1.000  N
  N7       1.0000 0.52450  0.15960  0.11530  Biso   1.000  N
  N8       1.0000 0.47550  0.84040  0.88470  Biso   1.000  N
  S1       1.0000 0.62820  0.14481  0.44500  Biso   1.000  S
  S2       1.0000 0.37180  0.85519  0.55500  Biso   1.000  S
  O1       1.0000 0.26530  0.54570  0.90802  Biso   1.000  O
  O2       1.0000 0.73470  0.45430  0.09198  Biso   1.000  O
  O3       1.0000 0.04110  0.73300  0.93540  Biso   1.000  O
  O4       1.0000 0.95890  0.26700  0.06460  Biso   1.000  O
  O5       1.0000 0.13180  0.39410  0.33251  Biso   1.000  O
  O6       1.0000 0.86820  0.60590  0.66749  Biso   1.000  O
  O7       1.0000 0.93560  0.59930  0.33020  Biso   1.000  O
  O8       1.0000 0.06440  0.40070  0.66980  Biso   1.000  O
  O9       1.0000 0.52750  0.28710  0.86500  Biso   1.000  O
  O10      1.0000 0.47250  0.71290  0.13500  Biso   1.000  O
  O11      1.0000 0.75230  0.10700  0.82630  Biso   1.000  O
  O12      1.0000 0.24770  0.89300  0.17370  Biso   1.000  O
  O13      1.0000 0.56760  0.00960  0.27000  Biso   1.000  O
  O14      1.0000 0.43240  0.99040  0.73000  Biso   1.000  O
  O15      1.0000 0.79980  0.85550  0.21120  Biso   1.000  O
  O16      1.0000 0.20020  0.14450  0.78880  Biso   1.000  O
  O17      1.0000 0.46090  0.18460  0.39721  Biso   1.000  O
  O18      1.0000 0.53910  0.81540  0.60279  Biso   1.000  O
  O19      1.0000 0.72080  0.00030  0.44150  Biso   1.000  O
  O20      1.0000 0.27920  0.99970  0.55850  Biso   1.000  O
  O21      1.0000 0.55840  0.16760  0.53816  Biso   1.000  O
  O22      1.0000 0.44160  0.83240  0.46184  Biso   1.000  O
  O23      1.0000 0.77270  0.22840  0.40650  Biso   1.000  O
  O24      1.0000 0.22730  0.77160  0.59350  Biso   1.000  O
  O25      1.0000 0.60210  0.33360  0.24780  Biso   1.000  O
  O26      1.0000 0.39790  0.66640  0.75220  Biso   1.000  O
  H5       1.0000 0.65100  0.37200  0.19960  Biso   1.000  H
  H6       1.0000 0.34900  0.62800  0.80040  Biso   1.000  H
  H7       1.0000 0.67860  0.31990  0.28540  Biso   1.000  H
  H8       1.0000 0.32140  0.68010  0.71460  Biso   1.000  H
  O27      1.0000 0.10910  0.15380  0.20520  Biso   1.000  O
  O28      1.0000 0.89090  0.84620  0.79480  Biso   1.000  O
  H9       1.0000 0.05700  0.20720  0.16450  Biso   1.000  H
  H10      1.0000 0.94300  0.79280  0.83550  Biso   1.000  H
  H11      1.0000 0.13370  0.07360  0.19370  Biso   1.000  H
  H12      1.0000 0.86630  0.92640  0.80630  Biso   1.000  H
  O29      1.0000 0.15310  0.09050  0.37620  Biso   1.000  O
  O30      1.0000 0.84690  0.90950  0.62380  Biso   1.000  O
  H13      1.0000 0.03330  0.12970  0.38640  Biso   1.000  H
  H14      1.0000 0.96670  0.87030  0.61360  Biso   1.000  H
  H15      1.0000 0.20080  0.08040  0.42380  Biso   1.000  H
  H16      1.0000 0.79920  0.91960  0.57620  Biso   1.000  H
  O31      1.0000 0.86510  0.69090  0.48770  Biso   1.000  O
  O32      1.0000 0.13490  0.30910  0.51230  Biso   1.000  O
  H17      1.0000 0.98110  0.64420  0.48450  Biso   1.000  H
  H18      1.0000 0.01890  0.35580  0.51550  Biso   1.000  H
  H19      1.0000 0.81040  0.68680  0.54090  Biso   1.000  H
  H20      1.0000 0.18960  0.31320  0.45910  Biso   1.000  H
  O33      1.0000 0.52460  0.70070  0.31630  Biso   1.000  O
  O34      1.0000 0.47540  0.29930  0.68370  Biso   1.000  O
  H21      1.0000 0.52100  0.69810  0.26320  Biso   1.000  H
  H22      1.0000 0.47900  0.30190  0.73680  Biso   1.000  H
  H23      1.0000 0.43100  0.67320  0.34960  Biso   1.000  H
  H24      1.0000 0.56900  0.32680  0.65040  Biso   1.000  H
  O35      1.0000 0.04670  0.85600  0.33590  Biso   1.000  O
  O36      1.0000 0.95330  0.14400  0.66410  Biso   1.000  O
  H25      1.0000 0.11700  0.84800  0.28610  Biso   1.000  H
  H26      1.0000 0.88300  0.15200  0.71390  Biso   1.000  H
  H27      1.0000 0.07150  0.92010  0.35780  Biso   1.000  H
  H28      1.0000 0.92850  0.07990  0.64220  Biso   1.000  H
  O37      1.0000 0.26580  0.58090  0.46790  Biso   1.000  O
  O38      1.0000 0.73420  0.41910  0.53210  Biso   1.000  O
  H29      1.0000 0.27220  0.62130  0.51040  Biso   1.000  H
  H30      1.0000 0.72780  0.37870  0.48960  Biso   1.000  H
  H31      1.0000 0.25090  0.50120  0.48720  Biso   1.000  H
  H32      1.0000 0.74910  0.49880  0.51280  Biso   1.000  H
