data_image0
_cell_length_a       5.934
_cell_length_b       8.124
_cell_length_c       17.256
_cell_angle_alpha    97.08
_cell_angle_beta     94.34
_cell_angle_gamma    98.54

_symmetry_space_group_name_H-M    "P 1"
_symmetry_int_tables_number       1

loop_
  _symmetry_equiv_pos_as_xyz
  'x, y, z'

loop_
  _atom_site_label
  _atom_site_occupancy
  _atom_site_fract_x
  _atom_site_fract_y
  _atom_site_fract_z
  _atom_site_thermal_displace_type
  _atom_site_B_iso_or_equiv
  _atom_site_type_symbol
  Cu1      1.0000 0.20190  0.85580  0.18930  Biso   1.000  Cu
  Cu2      1.0000 0.79810  0.14420  0.81070  Biso   1.000  Cu
  O1       1.0000 0.20100  0.04800  0.26600  Biso   1.000  O
  O2       1.0000 0.79900  0.95200  0.73400  Biso   1.000  O
  O3       1.0000 0.20000  0.64300  0.11700  Biso   1.000  O
  O4       1.0000 0.80000  0.35700  0.88300  Biso   1.000  O
  H1       1.0000 0.17530  0.61850  0.06920  Biso   1.000  H
  H2       1.0000 0.82470  0.38150  0.93080  Biso   1.000  H
  O5       1.0000 0.07700  0.35000  0.29800  Biso   1.000  O
  O6       1.0000 0.92300  0.65000  0.70200  Biso   1.000  O
  O7       1.0000 0.01500  0.38400  0.42000  Biso   1.000  O
  O8       1.0000 0.98500  0.61600  0.58000  Biso   1.000  O
  O9       1.0000 0.66200  0.33300  0.59900  Biso   1.000  O
  O10      1.0000 0.33800  0.66700  0.40100  Biso   1.000  O
  O11      1.0000 0.90000  0.17100  0.56200  Biso   1.000  O
  O12      1.0000 0.10000  0.82900  0.43800  Biso   1.000  O
  O13      1.0000 0.94400  0.66200  0.25900  Biso   1.000  O
  O14      1.0000 0.05600  0.33800  0.74100  Biso   1.000  O
  H3       1.0000 0.00730  0.61310  0.29060  Biso   1.000  H
  H4       1.0000 0.99270  0.38690  0.70940  Biso   1.000  H
  O15      1.0000 0.89000  0.88100  0.15100  Biso   1.000  O
  O16      1.0000 0.11000  0.11900  0.84900  Biso   1.000  O
  H5       1.0000 0.85520  0.97020  0.14080  Biso   1.000  H
  H6       1.0000 0.14480  0.02980  0.85920  Biso   1.000  H
  O17      1.0000 0.32100  0.01500  0.09200  Biso   1.000  O
  O18      1.0000 0.67900  0.98500  0.90800  Biso   1.000  O
  H7       1.0000 0.44490  0.07260  0.11110  Biso   1.000  H
  H8       1.0000 0.55510  0.92740  0.88890  Biso   1.000  H
  H9       1.0000 0.22640  0.08810  0.08000  Biso   1.000  H
  H10      1.0000 0.77360  0.91190  0.92000  Biso   1.000  H
  N1       1.0000 0.49500  0.81100  0.23200  Biso   1.000  N
  N2       1.0000 0.50500  0.18900  0.76800  Biso   1.000  N
  N3       1.0000 0.11300  0.32500  0.36600  Biso   1.000  N
  N4       1.0000 0.88700  0.67500  0.63400  Biso   1.000  N
  N5       1.0000 0.73000  0.23600  0.54900  Biso   1.000  N
  N6       1.0000 0.27000  0.76400  0.45100  Biso   1.000  N
  C1       1.0000 0.60700  0.88900  0.29500  Biso   1.000  C
  C2       1.0000 0.39300  0.11100  0.70500  Biso   1.000  C
  H11      1.0000 0.74700  0.85780  0.30910  Biso   1.000  H
  H12      1.0000 0.25300  0.14220  0.69090  Biso   1.000  H
  C3       1.0000 0.53500  0.02400  0.34700  Biso   1.000  C
  C4       1.0000 0.46500  0.97600  0.65300  Biso   1.000  C
  C5       1.0000 0.33700  0.09700  0.32700  Biso   1.000  C
  C6       1.0000 0.66300  0.90300  0.67300  Biso   1.000  C
  C7       1.0000 0.29600  0.23000  0.38400  Biso   1.000  C
  C8       1.0000 0.70400  0.77000  0.61600  Biso   1.000  C
  C9       1.0000 0.41700  0.27200  0.45600  Biso   1.000  C
  C10      1.0000 0.58300  0.72800  0.54400  Biso   1.000  C
  H13      1.0000 0.37460  0.35250  0.49350  Biso   1.000  H
  H14      1.0000 0.62540  0.64750  0.50650  Biso   1.000  H
  C11      1.0000 0.60000  0.19400  0.47300  Biso   1.000  C
  C12      1.0000 0.40000  0.80600  0.52700  Biso   1.000  C
  C13      1.0000 0.66300  0.07400  0.41800  Biso   1.000  C
  C14      1.0000 0.33700  0.92600  0.58200  Biso   1.000  C
  H15      1.0000 0.79210  0.02590  0.42970  Biso   1.000  H
  H16      1.0000 0.20790  0.97410  0.57030  Biso   1.000  H
  C15      1.0000 0.58200  0.67300  0.18400  Biso   1.000  C
  C16      1.0000 0.41800  0.32700  0.81600  Biso   1.000  C
  C17      1.0000 0.37000  0.55100  0.14600  Biso   1.000  C
  C18      1.0000 0.63000  0.44900  0.85400  Biso   1.000  C
  H17      1.0000 0.41310  0.47740  0.10280  Biso   1.000  H
  H18      1.0000 0.58690  0.52260  0.89720  Biso   1.000  H
  H19      1.0000 0.30790  0.48280  0.18370  Biso   1.000  H
  H20      1.0000 0.69210  0.51720  0.81630  Biso   1.000  H
  C19      1.0000 0.72200  0.57100  0.23300  Biso   1.000  C
  C20      1.0000 0.27800  0.42900  0.76700  Biso   1.000  C
  H21      1.0000 0.64290  0.54450  0.27790  Biso   1.000  H
  H22      1.0000 0.35710  0.45550  0.72210  Biso   1.000  H
  H23      1.0000 0.73570  0.46680  0.20120  Biso   1.000  H
  H24      1.0000 0.26430  0.53320  0.79880  Biso   1.000  H
  C21      1.0000 0.71000  0.74700  0.12000  Biso   1.000  C
  C22      1.0000 0.29000  0.25300  0.88000  Biso   1.000  C
  H25      1.0000 0.77380  0.65970  0.08940  Biso   1.000  H
  H26      1.0000 0.22620  0.34030  0.91060  Biso   1.000  H
  H27      1.0000 0.60330  0.78910  0.08450  Biso   1.000  H
  H28      1.0000 0.39670  0.21090  0.91550  Biso   1.000  H
  O19      1.0000 0.28400  0.66500  0.96800  Biso   1.000  O
  O20      1.0000 0.71600  0.33500  0.03200  Biso   1.000  O
  O21      1.0000 0.22000  0.82700  0.88100  Biso   1.000  O
  O22      1.0000 0.78000  0.17300  0.11900  Biso   1.000  O
  O23      1.0000 0.97700  0.77300  0.96500  Biso   1.000  O
  O24      1.0000 0.02300  0.22700  0.03500  Biso   1.000  O
  N7       1.0000 0.15700  0.75500  0.93900  Biso   1.000  N
  N8       1.0000 0.84300  0.24500  0.06100  Biso   1.000  N
