data_image0
_cell_length_a       9.8252
_cell_length_b       12.0851
_cell_length_c       13.399
_cell_angle_alpha    83.423
_cell_angle_beta     80.928
_cell_angle_gamma    76.931

_symmetry_space_group_name_H-M    "P 1"
_symmetry_int_tables_number       1

loop_
  _symmetry_equiv_pos_as_xyz
  'x, y, z'

loop_
  _atom_site_label
  _atom_site_occupancy
  _atom_site_fract_x
  _atom_site_fract_y
  _atom_site_fract_z
  _atom_site_thermal_displace_type
  _atom_site_B_iso_or_equiv
  _atom_site_type_symbol
  C1       1.0000 0.74890  0.93930  0.68612  Biso   1.000  C
  C2       1.0000 0.25110  0.06070  0.31388  Biso   1.000  C
  H1       1.0000 0.80860  0.97640  0.64030  Biso   1.000  H
  H2       1.0000 0.19140  0.02360  0.35970  Biso   1.000  H
  C3       1.0000 0.74880  0.94450  0.78872  Biso   1.000  C
  C4       1.0000 0.25120  0.05550  0.21128  Biso   1.000  C
  H3       1.0000 0.80720  0.98460  0.81090  Biso   1.000  H
  H4       1.0000 0.19280  0.01540  0.18910  Biso   1.000  H
  C5       1.0000 0.66050  0.88920  0.85836  Biso   1.000  C
  C6       1.0000 0.33950  0.11080  0.14164  Biso   1.000  C
  C7       1.0000 0.57700  0.83100  0.82010  Biso   1.000  C
  C8       1.0000 0.42300  0.16900  0.17990  Biso   1.000  C
  H5       1.0000 0.51660  0.79290  0.86420  Biso   1.000  H
  H6       1.0000 0.48340  0.20710  0.13580  Biso   1.000  H
  C9       1.0000 0.58290  0.82930  0.71684  Biso   1.000  C
  C10      1.0000 0.41710  0.17070  0.28316  Biso   1.000  C
  H7       1.0000 0.52610  0.78900  0.69300  Biso   1.000  H
  H8       1.0000 0.47390  0.21100  0.30700  Biso   1.000  H
  C11      1.0000 0.64980  0.88780  0.96910  Biso   1.000  C
  C12      1.0000 0.35020  0.11220  0.03090  Biso   1.000  C
  H9       1.0000 0.58700  0.84670  0.00680  Biso   1.000  H
  H10      1.0000 0.41300  0.15330  0.99320  Biso   1.000  H
  C13      1.0000 0.71860  0.93780  0.02180  Biso   1.000  C
  C14      1.0000 0.28140  0.06220  0.97820  Biso   1.000  C
  H11      1.0000 0.78060  0.98130  0.98700  Biso   1.000  H
  H12      1.0000 0.21940  0.01870  0.01300  Biso   1.000  H
  C15      1.0000 0.70050  0.92700  0.13357  Biso   1.000  C
  C16      1.0000 0.29950  0.07300  0.86643  Biso   1.000  C
  C17      1.0000 0.79050  0.96510  0.18500  Biso   1.000  C
  C18      1.0000 0.20950  0.03490  0.81500  Biso   1.000  C
  H13      1.0000 0.86050  0.00030  0.14920  Biso   1.000  H
  H14      1.0000 0.13950  0.99970  0.85080  Biso   1.000  H
  C19      1.0000 0.77600  0.95070  0.28960  Biso   1.000  C
  C20      1.0000 0.22400  0.04930  0.71040  Biso   1.000  C
  H15      1.0000 0.83750  0.97700  0.32260  Biso   1.000  H
  H16      1.0000 0.16250  0.02300  0.67740  Biso   1.000  H
  C21      1.0000 0.58850  0.86620  0.29602  Biso   1.000  C
  C22      1.0000 0.41150  0.13380  0.70398  Biso   1.000  C
  H17      1.0000 0.51810  0.83280  0.33360  Biso   1.000  H
  H18      1.0000 0.48190  0.16720  0.66640  Biso   1.000  H
  C23      1.0000 0.59640  0.87770  0.19187  Biso   1.000  C
  C24      1.0000 0.40360  0.12230  0.80813  Biso   1.000  C
  H19      1.0000 0.53220  0.85240  0.16070  Biso   1.000  H
  H20      1.0000 0.46780  0.14760  0.83930  Biso   1.000  H
  C25      1.0000 0.39030  0.83731  0.52154  Biso   1.000  C
  C26      1.0000 0.60970  0.16269  0.47846  Biso   1.000  C
  C27      1.0000 0.30050  0.74970  0.53785  Biso   1.000  C
  C28      1.0000 0.69950  0.25030  0.46215  Biso   1.000  C
  C29      1.0000 0.16020  0.78258  0.52182  Biso   1.000  C
  C30      1.0000 0.83980  0.21742  0.47818  Biso   1.000  C
  H21      1.0000 0.12150  0.85890  0.50530  Biso   1.000  H
  H22      1.0000 0.87850  0.14110  0.49470  Biso   1.000  H
  C31      1.0000 0.07790  0.70200  0.53034  Biso   1.000  C
  C32      1.0000 0.92210  0.29800  0.46966  Biso   1.000  C
  C33      1.0000 0.13510  0.58855  0.55711  Biso   1.000  C
  C34      1.0000 0.86490  0.41145  0.44289  Biso   1.000  C
  H23      1.0000 0.08040  0.53420  0.56160  Biso   1.000  H
  H24      1.0000 0.91960  0.46580  0.43840  Biso   1.000  H
  C35      1.0000 0.27420  0.55554  0.57735  Biso   1.000  C
  C36      1.0000 0.72580  0.44446  0.42265  Biso   1.000  C
  C37      1.0000 0.35690  0.63635  0.56698  Biso   1.000  C
  C38      1.0000 0.64310  0.36365  0.43302  Biso   1.000  C
  H25      1.0000 0.45010  0.61480  0.57950  Biso   1.000  H
  H26      1.0000 0.54990  0.38520  0.42050  Biso   1.000  H
  C39      1.0000 0.92630  0.73750  0.51230  Biso   1.000  C
  C40      1.0000 0.07370  0.26250  0.48770  Biso   1.000  C
  C41      1.0000 0.33290  0.43379  0.61300  Biso   1.000  C
  C42      1.0000 0.66710  0.56621  0.38700  Biso   1.000  C
  H27      1.0000 0.31590  0.38300  0.56740  Biso   1.000  H
  H28      1.0000 0.68410  0.61700  0.43260  Biso   1.000  H
  H29      1.0000 0.43390  0.42230  0.61250  Biso   1.000  H
  H30      1.0000 0.56610  0.57770  0.38750  Biso   1.000  H
  C43      1.0000 0.15120  0.35920  0.73188  Biso   1.000  C
  C44      1.0000 0.84880  0.64080  0.26812  Biso   1.000  C
  H31      1.0000 0.11850  0.33960  0.67630  Biso   1.000  H
  H32      1.0000 0.88150  0.66040  0.32370  Biso   1.000  H
  C45      1.0000 0.08380  0.33880  0.82740  Biso   1.000  C
  C46      1.0000 0.91620  0.66120  0.17260  Biso   1.000  C
  H33      1.0000 0.00550  0.30560  0.83610  Biso   1.000  H
  H34      1.0000 0.99450  0.69440  0.16390  Biso   1.000  H
  C47      1.0000 0.13130  0.36730  0.91190  Biso   1.000  C
  C48      1.0000 0.86870  0.63270  0.08810  Biso   1.000  C
  C49      1.0000 0.24860  0.41560  0.89390  Biso   1.000  C
  C50      1.0000 0.75140  0.58440  0.10610  Biso   1.000  C
  H35      1.0000 0.28430  0.43500  0.94830  Biso   1.000  H
  H36      1.0000 0.71570  0.56500  0.05170  Biso   1.000  H
  C51      1.0000 0.31290  0.43520  0.79710  Biso   1.000  C
  C52      1.0000 0.68710  0.56480  0.20290  Biso   1.000  C
  H37      1.0000 0.39130  0.46840  0.78640  Biso   1.000  H
  H38      1.0000 0.60870  0.53160  0.21360  Biso   1.000  H
  C53      1.0000 0.03590  0.34700  0.19680  Biso   1.000  C
  C54      1.0000 0.96410  0.65300  0.80320  Biso   1.000  C
  H39      1.0000 0.07040  0.36370  0.25290  Biso   1.000  H
  H40      1.0000 0.92960  0.63630  0.74710  Biso   1.000  H
  C55      1.0000 0.10760  0.36990  0.10090  Biso   1.000  C
  C56      1.0000 0.89240  0.63010  0.89910  Biso   1.000  C
  H41      1.0000 0.18710  0.40130  0.09410  Biso   1.000  H
  H42      1.0000 0.81290  0.59870  0.90590  Biso   1.000  H
  C57      1.0000 0.05940  0.34550  0.01620  Biso   1.000  C
  C58      1.0000 0.94060  0.65450  0.98380  Biso   1.000  C
  C59      1.0000 0.93980  0.29960  0.03230  Biso   1.000  C
  C60      1.0000 0.06020  0.70040  0.96770  Biso   1.000  C
  H43      1.0000 0.90270  0.28170  0.97790  Biso   1.000  H
  H44      1.0000 0.09730  0.71830  0.02210  Biso   1.000  H
  C61      1.0000 0.87610  0.28070  0.13200  Biso   1.000  C
  C62      1.0000 0.12390  0.71930  0.86800  Biso   1.000  C
  H45      1.0000 0.79580  0.25010  0.14190  Biso   1.000  H
  H46      1.0000 0.20420  0.74990  0.85810  Biso   1.000  H
  Cu1      1.0000 0.67083  0.88437  0.49830  Biso   1.000  Cu
  Cu2      1.0000 0.32917  0.11563  0.50170  Biso   1.000  Cu
  N1       1.0000 0.66650  0.88289  0.64969  Biso   1.000  N
  N2       1.0000 0.33350  0.11711  0.35031  Biso   1.000  N
  N3       1.0000 0.67760  0.90084  0.34576  Biso   1.000  N
  N4       1.0000 0.32240  0.09916  0.65424  Biso   1.000  N
  N5       1.0000 0.26420  0.40711  0.71759  Biso   1.000  N
  N6       1.0000 0.73580  0.59289  0.28241  Biso   1.000  N
  N7       1.0000 0.92250  0.30340  0.21290  Biso   1.000  N
  N8       1.0000 0.07750  0.69660  0.78710  Biso   1.000  N
  O1       1.0000 0.33110  0.93883  0.51151  Biso   1.000  O
  O2       1.0000 0.66890  0.06117  0.48849  Biso   1.000  O
  O3       1.0000 0.52223  0.79838  0.51742  Biso   1.000  O
  O4       1.0000 0.47777  0.20162  0.48258  Biso   1.000  O
  O5       1.0000 0.88375  0.84223  0.48371  Biso   1.000  O
  O6       1.0000 0.11625  0.15777  0.51629  Biso   1.000  O
  O7       1.0000 0.85137  0.66699  0.52603  Biso   1.000  O
  O8       1.0000 0.14863  0.33301  0.47397  Biso   1.000  O
  Cl1      1.0000 0.61491  0.29866  0.95490  Biso   1.000  Cl
  Cl2      1.0000 0.38509  0.70134  0.04510  Biso   1.000  Cl
