data_image0
_cell_length_a       8.6476
_cell_length_b       15.247
_cell_length_c       20.5679
_cell_angle_alpha    90
_cell_angle_beta     90
_cell_angle_gamma    90

_symmetry_space_group_name_H-M    "P 1"
_symmetry_int_tables_number       1

loop_
  _symmetry_equiv_pos_as_xyz
  'x, y, z'

loop_
  _atom_site_label
  _atom_site_occupancy
  _atom_site_fract_x
  _atom_site_fract_y
  _atom_site_fract_z
  _atom_site_thermal_displace_type
  _atom_site_B_iso_or_equiv
  _atom_site_type_symbol
  Br1      1.0000 0.92446  0.51655  0.40967  Biso   1.000  Br
  Br2      1.0000 0.07554  0.48345  0.90967  Biso   1.000  Br
  Br3      1.0000 0.57554  0.01655  0.90967  Biso   1.000  Br
  Br4      1.0000 0.42446  0.98345  0.40967  Biso   1.000  Br
  Br5      1.0000 0.50186  0.48577  0.56368  Biso   1.000  Br
  Br6      1.0000 0.49814  0.51423  0.06368  Biso   1.000  Br
  Br7      1.0000 0.99814  0.98577  0.06368  Biso   1.000  Br
  Br8      1.0000 0.00186  0.01423  0.56368  Biso   1.000  Br
  C1       1.0000 0.64170  0.69420  0.45480  Biso   1.000  C
  C2       1.0000 0.35830  0.30580  0.95480  Biso   1.000  C
  C3       1.0000 0.85830  0.19420  0.95480  Biso   1.000  C
  C4       1.0000 0.14170  0.80580  0.45480  Biso   1.000  C
  H1       1.0000 0.57500  0.67640  0.42190  Biso   1.000  H
  H2       1.0000 0.42500  0.32360  0.92190  Biso   1.000  H
  H3       1.0000 0.92500  0.17640  0.92190  Biso   1.000  H
  H4       1.0000 0.07500  0.82360  0.42190  Biso   1.000  H
  C5       1.0000 0.66670  0.78470  0.46270  Biso   1.000  C
  C6       1.0000 0.33330  0.21530  0.96270  Biso   1.000  C
  C7       1.0000 0.83330  0.28470  0.96270  Biso   1.000  C
  C8       1.0000 0.16670  0.71530  0.46270  Biso   1.000  C
  H5       1.0000 0.61750  0.82520  0.43600  Biso   1.000  H
  H6       1.0000 0.38250  0.17480  0.93600  Biso   1.000  H
  H7       1.0000 0.88250  0.32520  0.93600  Biso   1.000  H
  H8       1.0000 0.11750  0.67480  0.43600  Biso   1.000  H
  C9       1.0000 0.76480  0.81140  0.51060  Biso   1.000  C
  C10      1.0000 0.23520  0.18860  0.01060  Biso   1.000  C
  C11      1.0000 0.73520  0.31140  0.01060  Biso   1.000  C
  C12      1.0000 0.26480  0.68860  0.51060  Biso   1.000  C
  H9       1.0000 0.78320  0.87090  0.51710  Biso   1.000  H
  H10      1.0000 0.21680  0.12910  0.01710  Biso   1.000  H
  H11      1.0000 0.71680  0.37090  0.01710  Biso   1.000  H
  H12      1.0000 0.28320  0.62910  0.51710  Biso   1.000  H
  C13      1.0000 0.83840  0.74840  0.55030  Biso   1.000  C
  C14      1.0000 0.16160  0.25160  0.05030  Biso   1.000  C
  C15      1.0000 0.66160  0.24840  0.05030  Biso   1.000  C
  C16      1.0000 0.33840  0.75160  0.55030  Biso   1.000  C
  C17      1.0000 0.80750  0.65830  0.53910  Biso   1.000  C
  C18      1.0000 0.19250  0.34170  0.03910  Biso   1.000  C
  C19      1.0000 0.69250  0.15830  0.03910  Biso   1.000  C
  C20      1.0000 0.30750  0.84170  0.53910  Biso   1.000  C
  C21      1.0000 0.87800  0.59440  0.57890  Biso   1.000  C
  C22      1.0000 0.12200  0.40560  0.07890  Biso   1.000  C
  C23      1.0000 0.62200  0.09440  0.07890  Biso   1.000  C
  C24      1.0000 0.37800  0.90560  0.57890  Biso   1.000  C
  H13      1.0000 0.85420  0.53550  0.57280  Biso   1.000  H
  H14      1.0000 0.14580  0.46450  0.07280  Biso   1.000  H
  H15      1.0000 0.64580  0.03550  0.07280  Biso   1.000  H
  H16      1.0000 0.35420  0.96450  0.57280  Biso   1.000  H
  C25      1.0000 0.97980  0.61790  0.62570  Biso   1.000  C
  C26      1.0000 0.02020  0.38210  0.12570  Biso   1.000  C
  C27      1.0000 0.52020  0.11790  0.12570  Biso   1.000  C
  C28      1.0000 0.47980  0.88210  0.62570  Biso   1.000  C
  H17      1.0000 0.02670  0.57470  0.65080  Biso   1.000  H
  H18      1.0000 0.97330  0.42530  0.15080  Biso   1.000  H
  H19      1.0000 0.47330  0.07470  0.15080  Biso   1.000  H
  H20      1.0000 0.52670  0.92530  0.65080  Biso   1.000  H
  C29      1.0000 0.01650  0.70800  0.63720  Biso   1.000  C
  C30      1.0000 0.98350  0.29200  0.13720  Biso   1.000  C
  C31      1.0000 0.48350  0.20800  0.13720  Biso   1.000  C
  C32      1.0000 0.51650  0.79200  0.63720  Biso   1.000  C
  C33      1.0000 0.94360  0.77200  0.59940  Biso   1.000  C
  C34      1.0000 0.05640  0.22800  0.09940  Biso   1.000  C
  C35      1.0000 0.55640  0.27200  0.09940  Biso   1.000  C
  C36      1.0000 0.44360  0.72800  0.59940  Biso   1.000  C
  H21      1.0000 0.96500  0.83090  0.60680  Biso   1.000  H
  H22      1.0000 0.03500  0.16910  0.10680  Biso   1.000  H
  H23      1.0000 0.53500  0.33090  0.10680  Biso   1.000  H
  H24      1.0000 0.46500  0.66910  0.60680  Biso   1.000  H
  C37      1.0000 0.13080  0.72680  0.68800  Biso   1.000  C
  C38      1.0000 0.86920  0.27320  0.18800  Biso   1.000  C
  C39      1.0000 0.36920  0.22680  0.18800  Biso   1.000  C
  C40      1.0000 0.63080  0.77320  0.68800  Biso   1.000  C
  C41      1.0000 0.28300  0.78990  0.75780  Biso   1.000  C
  C42      1.0000 0.71700  0.21010  0.25780  Biso   1.000  C
  C43      1.0000 0.21700  0.28990  0.25780  Biso   1.000  C
  C44      1.0000 0.78300  0.71010  0.75780  Biso   1.000  C
  C45      1.0000 0.48170  0.80280  0.85700  Biso   1.000  C
  C46      1.0000 0.51830  0.19720  0.35700  Biso   1.000  C
  C47      1.0000 0.01830  0.30280  0.35700  Biso   1.000  C
  C48      1.0000 0.98170  0.69720  0.85700  Biso   1.000  C
  H25      1.0000 0.53200  0.75830  0.83080  Biso   1.000  H
  H26      1.0000 0.46800  0.24170  0.33080  Biso   1.000  H
  H27      1.0000 0.96800  0.25830  0.33080  Biso   1.000  H
  H28      1.0000 0.03200  0.74170  0.83080  Biso   1.000  H
  H29      1.0000 0.56190  0.83810  0.87700  Biso   1.000  H
  H30      1.0000 0.43810  0.16190  0.37700  Biso   1.000  H
  H31      1.0000 0.93810  0.33810  0.37700  Biso   1.000  H
  H32      1.0000 0.06190  0.66190  0.87700  Biso   1.000  H
  C49      1.0000 0.38970  0.75840  0.90970  Biso   1.000  C
  C50      1.0000 0.61030  0.24160  0.40970  Biso   1.000  C
  C51      1.0000 0.11030  0.25840  0.40970  Biso   1.000  C
  C52      1.0000 0.88970  0.74160  0.90970  Biso   1.000  C
  C53      1.0000 0.38880  0.66760  0.91490  Biso   1.000  C
  C54      1.0000 0.61120  0.33240  0.41490  Biso   1.000  C
  C55      1.0000 0.11120  0.16760  0.41490  Biso   1.000  C
  C56      1.0000 0.88880  0.83240  0.91490  Biso   1.000  C
  H33      1.0000 0.44250  0.63520  0.88400  Biso   1.000  H
  H34      1.0000 0.55750  0.36480  0.38400  Biso   1.000  H
  H35      1.0000 0.05750  0.13520  0.38400  Biso   1.000  H
  H36      1.0000 0.94250  0.86480  0.88400  Biso   1.000  H
  C57      1.0000 0.23160  0.67080  0.00460  Biso   1.000  C
  C58      1.0000 0.76840  0.32920  0.50460  Biso   1.000  C
  C59      1.0000 0.26840  0.17080  0.50460  Biso   1.000  C
  C60      1.0000 0.73160  0.82920  0.00460  Biso   1.000  C
  H37      1.0000 0.17620  0.64070  0.03630  Biso   1.000  H
  H38      1.0000 0.82380  0.35930  0.53630  Biso   1.000  H
  H39      1.0000 0.32380  0.14070  0.53630  Biso   1.000  H
  H40      1.0000 0.67620  0.85930  0.03630  Biso   1.000  H
  C61      1.0000 0.22480  0.76130  0.00350  Biso   1.000  C
  C62      1.0000 0.77520  0.23870  0.50350  Biso   1.000  C
  C63      1.0000 0.27520  0.26130  0.50350  Biso   1.000  C
  C64      1.0000 0.72480  0.73870  0.00350  Biso   1.000  C
  H41      1.0000 0.16700  0.79170  0.03420  Biso   1.000  H
  H42      1.0000 0.83300  0.20830  0.53420  Biso   1.000  H
  H43      1.0000 0.33300  0.29170  0.53420  Biso   1.000  H
  H44      1.0000 0.66700  0.70830  0.03420  Biso   1.000  H
  C65      1.0000 0.30590  0.80600  0.95550  Biso   1.000  C
  C66      1.0000 0.69410  0.19400  0.45550  Biso   1.000  C
  C67      1.0000 0.19410  0.30600  0.45550  Biso   1.000  C
  C68      1.0000 0.80590  0.69400  0.95550  Biso   1.000  C
  H45      1.0000 0.30430  0.86700  0.95400  Biso   1.000  H
  H46      1.0000 0.69570  0.13300  0.45400  Biso   1.000  H
  H47      1.0000 0.19570  0.36700  0.45400  Biso   1.000  H
  H48      1.0000 0.80430  0.63300  0.95400  Biso   1.000  H
  C69      1.0000 0.39800  0.54740  0.35940  Biso   1.000  C
  C70      1.0000 0.60200  0.45260  0.85940  Biso   1.000  C
  C71      1.0000 0.10200  0.04740  0.85940  Biso   1.000  C
  C72      1.0000 0.89800  0.95260  0.35940  Biso   1.000  C
  C73      1.0000 0.28460  0.58340  0.31080  Biso   1.000  C
  C74      1.0000 0.71540  0.41660  0.81080  Biso   1.000  C
  C75      1.0000 0.21540  0.08340  0.81080  Biso   1.000  C
  C76      1.0000 0.78460  0.91660  0.31080  Biso   1.000  C
  H49      1.0000 0.29630  0.64590  0.30790  Biso   1.000  H
  H50      1.0000 0.70370  0.35410  0.80790  Biso   1.000  H
  H51      1.0000 0.20370  0.14590  0.80790  Biso   1.000  H
  H52      1.0000 0.79630  0.85410  0.30790  Biso   1.000  H
  H53      1.0000 0.18120  0.56960  0.32440  Biso   1.000  H
  H54      1.0000 0.81880  0.43040  0.82440  Biso   1.000  H
  H55      1.0000 0.31880  0.06960  0.82440  Biso   1.000  H
  H56      1.0000 0.68120  0.93040  0.32440  Biso   1.000  H
  H57      1.0000 0.30380  0.55760  0.26900  Biso   1.000  H
  H58      1.0000 0.69620  0.44240  0.76900  Biso   1.000  H
  H59      1.0000 0.19620  0.05760  0.76900  Biso   1.000  H
  H60      1.0000 0.80380  0.94240  0.26900  Biso   1.000  H
  Cu1      1.0000 0.67968  0.50569  0.47033  Biso   1.000  Cu
  Cu2      1.0000 0.32032  0.49431  0.97033  Biso   1.000  Cu
  Cu3      1.0000 0.82032  0.00569  0.97033  Biso   1.000  Cu
  Cu4      1.0000 0.17968  0.99431  0.47033  Biso   1.000  Cu
  N1       1.0000 0.70580  0.63340  0.49060  Biso   1.000  N
  N2       1.0000 0.29420  0.36660  0.99060  Biso   1.000  N
  N3       1.0000 0.79420  0.13340  0.99060  Biso   1.000  N
  N4       1.0000 0.20580  0.86660  0.49060  Biso   1.000  N
  N5       1.0000 0.31530  0.62490  0.96170  Biso   1.000  N
  N6       1.0000 0.68470  0.37510  0.46170  Biso   1.000  N
  N7       1.0000 0.18470  0.12490  0.46170  Biso   1.000  N
  N8       1.0000 0.81530  0.87510  0.96170  Biso   1.000  N
  N9       1.0000 0.21970  0.66630  0.71340  Biso   1.000  N
  N10      1.0000 0.78030  0.33370  0.21340  Biso   1.000  N
  N11      1.0000 0.28030  0.16630  0.21340  Biso   1.000  N
  N12      1.0000 0.71970  0.83370  0.71340  Biso   1.000  N
  N13      1.0000 0.31560  0.70510  0.75860  Biso   1.000  N
  N14      1.0000 0.68440  0.29490  0.25860  Biso   1.000  N
  N15      1.0000 0.18440  0.20510  0.25860  Biso   1.000  N
  N16      1.0000 0.81560  0.79490  0.75860  Biso   1.000  N
  N17      1.0000 0.17050  0.80720  0.71480  Biso   1.000  N
  N18      1.0000 0.82950  0.19280  0.21480  Biso   1.000  N
  N19      1.0000 0.32950  0.30720  0.21480  Biso   1.000  N
  N20      1.0000 0.67050  0.69280  0.71480  Biso   1.000  N
  N21      1.0000 0.10540  0.89170  0.70930  Biso   1.000  N
  N22      1.0000 0.89460  0.10830  0.20930  Biso   1.000  N
  N23      1.0000 0.39460  0.39170  0.20930  Biso   1.000  N
  N24      1.0000 0.60540  0.60830  0.70930  Biso   1.000  N
  H61      1.0000 0.12520  0.91500  0.67150  Biso   1.000  H
  H62      1.0000 0.87480  0.08500  0.17150  Biso   1.000  H
  H63      1.0000 0.37480  0.41500  0.17150  Biso   1.000  H
  H64      1.0000 0.62520  0.58500  0.67150  Biso   1.000  H
  H65      1.0000 0.00510  0.89040  0.71420  Biso   1.000  H
  H66      1.0000 0.99490  0.10960  0.21420  Biso   1.000  H
  H67      1.0000 0.49490  0.39040  0.21420  Biso   1.000  H
  H68      1.0000 0.50510  0.60960  0.71420  Biso   1.000  H
  N25      1.0000 0.49750  0.52750  0.39120  Biso   1.000  N
  N26      1.0000 0.50250  0.47250  0.89120  Biso   1.000  N
  N27      1.0000 0.00250  0.02750  0.89120  Biso   1.000  N
  N28      1.0000 0.99750  0.97250  0.39120  Biso   1.000  N
  S1       1.0000 0.36630  0.87198  0.80457  Biso   1.000  S
  S2       1.0000 0.63370  0.12802  0.30457  Biso   1.000  S
  S3       1.0000 0.13370  0.37198  0.30457  Biso   1.000  S
  S4       1.0000 0.86630  0.62802  0.80457  Biso   1.000  S
  C77      1.0000 0.02500  0.32120  0.65160  Biso   1.000  C
  C78      1.0000 0.97500  0.67880  0.15160  Biso   1.000  C
  C79      1.0000 0.47500  0.82120  0.15160  Biso   1.000  C
  C80      1.0000 0.52500  0.17880  0.65160  Biso   1.000  C
  C81      1.0000 0.07600  0.22500  0.66240  Biso   1.000  C
  C82      1.0000 0.92400  0.77500  0.16240  Biso   1.000  C
  C83      1.0000 0.42400  0.72500  0.16240  Biso   1.000  C
  C84      1.0000 0.57600  0.27500  0.66240  Biso   1.000  C
  H69      1.0000 0.09860  0.21600  0.70760  Biso   1.000  H
  H70      1.0000 0.90140  0.78400  0.20760  Biso   1.000  H
  H71      1.0000 0.40140  0.71600  0.20760  Biso   1.000  H
  H72      1.0000 0.59860  0.28400  0.70760  Biso   1.000  H
  H73      1.0000 0.16600  0.21300  0.63690  Biso   1.000  H
  H74      1.0000 0.83400  0.78700  0.13690  Biso   1.000  H
  H75      1.0000 0.33400  0.71300  0.13690  Biso   1.000  H
  H76      1.0000 0.66600  0.28700  0.63690  Biso   1.000  H
  H77      1.0000 0.99360  0.18630  0.64950  Biso   1.000  H
  H78      1.0000 0.00640  0.81370  0.14950  Biso   1.000  H
  H79      1.0000 0.50640  0.68630  0.14950  Biso   1.000  H
  H80      1.0000 0.49360  0.31370  0.64950  Biso   1.000  H
  N29      1.0000 0.97900  0.38290  0.64380  Biso   1.000  N
  N30      1.0000 0.02100  0.61710  0.14380  Biso   1.000  N
  N31      1.0000 0.52100  0.88290  0.14380  Biso   1.000  N
  N32      1.0000 0.47900  0.11710  0.64380  Biso   1.000  N
  C85      1.0000 0.28400  0.37710  0.77190  Biso   1.000  C
  C86      1.0000 0.71600  0.62290  0.27190  Biso   1.000  C
  C87      1.0000 0.21600  0.87710  0.27190  Biso   1.000  C
  C88      1.0000 0.78400  0.12290  0.77190  Biso   1.000  C
  C89      1.0000 0.25700  0.47120  0.75120  Biso   1.000  C
  C90      1.0000 0.74300  0.52880  0.25120  Biso   1.000  C
  C91      1.0000 0.24300  0.97120  0.25120  Biso   1.000  C
  C92      1.0000 0.75700  0.02880  0.75120  Biso   1.000  C
  H81      1.0000 0.30890  0.51000  0.78080  Biso   1.000  H
  H82      1.0000 0.69110  0.49000  0.28080  Biso   1.000  H
  H83      1.0000 0.19110  0.01000  0.28080  Biso   1.000  H
  H84      1.0000 0.80890  0.99000  0.78080  Biso   1.000  H
  H85      1.0000 0.14800  0.48350  0.75170  Biso   1.000  H
  H86      1.0000 0.85200  0.51650  0.25170  Biso   1.000  H
  H87      1.0000 0.35200  0.98350  0.25170  Biso   1.000  H
  H88      1.0000 0.64800  0.01650  0.75170  Biso   1.000  H
  H89      1.0000 0.29650  0.47980  0.70810  Biso   1.000  H
  H90      1.0000 0.70350  0.52020  0.20810  Biso   1.000  H
  H91      1.0000 0.20350  0.97980  0.20810  Biso   1.000  H
  H92      1.0000 0.79650  0.02020  0.70810  Biso   1.000  H
  N33      1.0000 0.32200  0.30760  0.78900  Biso   1.000  N
  N34      1.0000 0.67800  0.69240  0.28900  Biso   1.000  N
  N35      1.0000 0.17800  0.80760  0.28900  Biso   1.000  N
  N36      1.0000 0.82200  0.19240  0.78900  Biso   1.000  N
