data_image0
_cell_length_a       8.752
_cell_length_b       15.3925
_cell_length_c       20.4584
_cell_angle_alpha    90
_cell_angle_beta     90
_cell_angle_gamma    90

_symmetry_space_group_name_H-M    "P 1"
_symmetry_int_tables_number       1

loop_
  _symmetry_equiv_pos_as_xyz
  'x, y, z'

loop_
  _atom_site_label
  _atom_site_occupancy
  _atom_site_fract_x
  _atom_site_fract_y
  _atom_site_fract_z
  _atom_site_thermal_displace_type
  _atom_site_B_iso_or_equiv
  _atom_site_type_symbol
  Br1      1.0000 0.47542  0.01145  0.84896  Biso   1.000  Br
  Br2      1.0000 0.52458  0.98855  0.34896  Biso   1.000  Br
  Br3      1.0000 0.97542  0.48855  0.84896  Biso   1.000  Br
  Br4      1.0000 0.02458  0.51145  0.34896  Biso   1.000  Br
  Br5      1.0000 0.01032  0.99012  0.97486  Biso   1.000  Br
  Br6      1.0000 0.98968  0.00988  0.47486  Biso   1.000  Br
  Br7      1.0000 0.51032  0.50988  0.97486  Biso   1.000  Br
  Br8      1.0000 0.48968  0.49012  0.47486  Biso   1.000  Br
  C1       1.0000 0.83240  0.80960  0.37480  Biso   1.000  C
  C2       1.0000 0.16760  0.19040  0.87480  Biso   1.000  C
  C3       1.0000 0.33240  0.69040  0.37480  Biso   1.000  C
  C4       1.0000 0.66760  0.30960  0.87480  Biso   1.000  C
  H1       1.0000 0.89390  0.82760  0.34030  Biso   1.000  H
  H2       1.0000 0.10610  0.17240  0.84030  Biso   1.000  H
  H3       1.0000 0.39390  0.67240  0.34030  Biso   1.000  H
  H4       1.0000 0.60610  0.32760  0.84030  Biso   1.000  H
  C5       1.0000 0.81210  0.71970  0.38440  Biso   1.000  C
  C6       1.0000 0.18790  0.28030  0.88440  Biso   1.000  C
  C7       1.0000 0.31210  0.78030  0.38440  Biso   1.000  C
  C8       1.0000 0.68790  0.21970  0.88440  Biso   1.000  C
  H5       1.0000 0.86180  0.67990  0.35750  Biso   1.000  H
  H6       1.0000 0.13820  0.32010  0.85750  Biso   1.000  H
  H7       1.0000 0.36180  0.82010  0.35750  Biso   1.000  H
  H8       1.0000 0.63820  0.17990  0.85750  Biso   1.000  H
  C9       1.0000 0.71890  0.69170  0.43330  Biso   1.000  C
  C10      1.0000 0.28110  0.30830  0.93330  Biso   1.000  C
  C11      1.0000 0.21890  0.80830  0.43330  Biso   1.000  C
  C12      1.0000 0.78110  0.19170  0.93330  Biso   1.000  C
  H9       1.0000 0.70230  0.63260  0.43970  Biso   1.000  H
  H10      1.0000 0.29770  0.36740  0.93970  Biso   1.000  H
  H11      1.0000 0.20230  0.86740  0.43970  Biso   1.000  H
  H12      1.0000 0.79770  0.13260  0.93970  Biso   1.000  H
  C13      1.0000 0.64790  0.75370  0.47410  Biso   1.000  C
  C14      1.0000 0.35210  0.24630  0.97410  Biso   1.000  C
  C15      1.0000 0.14790  0.74630  0.47410  Biso   1.000  C
  C16      1.0000 0.85210  0.25370  0.97410  Biso   1.000  C
  C17      1.0000 0.67810  0.84310  0.46370  Biso   1.000  C
  C18      1.0000 0.32190  0.15690  0.96370  Biso   1.000  C
  C19      1.0000 0.17810  0.65690  0.46370  Biso   1.000  C
  C20      1.0000 0.82190  0.34310  0.96370  Biso   1.000  C
  C21      1.0000 0.61210  0.90550  0.50590  Biso   1.000  C
  C22      1.0000 0.38790  0.09450  0.00590  Biso   1.000  C
  C23      1.0000 0.11210  0.59450  0.50590  Biso   1.000  C
  C24      1.0000 0.88790  0.40550  0.00590  Biso   1.000  C
  H13      1.0000 0.63430  0.96400  0.50020  Biso   1.000  H
  H14      1.0000 0.36570  0.03600  0.00020  Biso   1.000  H
  H15      1.0000 0.13430  0.53600  0.50020  Biso   1.000  H
  H16      1.0000 0.86570  0.46400  0.00020  Biso   1.000  H
  C25      1.0000 0.51750  0.88080  0.55450  Biso   1.000  C
  C26      1.0000 0.48250  0.11920  0.05450  Biso   1.000  C
  C27      1.0000 0.01750  0.61920  0.55450  Biso   1.000  C
  C28      1.0000 0.98250  0.38080  0.05450  Biso   1.000  C
  H17      1.0000 0.47640  0.92300  0.58190  Biso   1.000  H
  H18      1.0000 0.52360  0.07700  0.08190  Biso   1.000  H
  H19      1.0000 0.97640  0.57700  0.58190  Biso   1.000  H
  H20      1.0000 0.02360  0.42300  0.08190  Biso   1.000  H
  C29      1.0000 0.47850  0.79190  0.56500  Biso   1.000  C
  C30      1.0000 0.52150  0.20810  0.06500  Biso   1.000  C
  C31      1.0000 0.97850  0.70810  0.56500  Biso   1.000  C
  C32      1.0000 0.02150  0.29190  0.06500  Biso   1.000  C
  C33      1.0000 0.54580  0.72900  0.52550  Biso   1.000  C
  C34      1.0000 0.45420  0.27100  0.02550  Biso   1.000  C
  C35      1.0000 0.04580  0.77100  0.52550  Biso   1.000  C
  C36      1.0000 0.95420  0.22900  0.02550  Biso   1.000  C
  H21      1.0000 0.52430  0.67060  0.53250  Biso   1.000  H
  H22      1.0000 0.47570  0.32940  0.03250  Biso   1.000  H
  H23      1.0000 0.02430  0.82940  0.53250  Biso   1.000  H
  H24      1.0000 0.97570  0.17060  0.03250  Biso   1.000  H
  C37      1.0000 0.36400  0.77350  0.61440  Biso   1.000  C
  C38      1.0000 0.63600  0.22650  0.11440  Biso   1.000  C
  C39      1.0000 0.86400  0.72650  0.61440  Biso   1.000  C
  C40      1.0000 0.13600  0.27350  0.11440  Biso   1.000  C
  C41      1.0000 0.21440  0.71070  0.68560  Biso   1.000  C
  C42      1.0000 0.78560  0.28930  0.18560  Biso   1.000  C
  C43      1.0000 0.71440  0.78930  0.68560  Biso   1.000  C
  C44      1.0000 0.28560  0.21070  0.18560  Biso   1.000  C
  C45      1.0000 0.02640  0.69880  0.78840  Biso   1.000  C
  C46      1.0000 0.97360  0.30120  0.28840  Biso   1.000  C
  C47      1.0000 0.52640  0.80120  0.78840  Biso   1.000  C
  C48      1.0000 0.47360  0.19880  0.28840  Biso   1.000  C
  H25      1.0000 0.97350  0.74290  0.76320  Biso   1.000  H
  H26      1.0000 0.02650  0.25710  0.26320  Biso   1.000  H
  H27      1.0000 0.47350  0.75710  0.76320  Biso   1.000  H
  H28      1.0000 0.52650  0.24290  0.26320  Biso   1.000  H
  H29      1.0000 0.94980  0.66430  0.81070  Biso   1.000  H
  H30      1.0000 0.05020  0.33570  0.31070  Biso   1.000  H
  H31      1.0000 0.44980  0.83570  0.81070  Biso   1.000  H
  H32      1.0000 0.55020  0.16430  0.31070  Biso   1.000  H
  C49      1.0000 0.12500  0.74220  0.83810  Biso   1.000  C
  C50      1.0000 0.87500  0.25780  0.33810  Biso   1.000  C
  C51      1.0000 0.62500  0.75780  0.83810  Biso   1.000  C
  C52      1.0000 0.37500  0.24220  0.33810  Biso   1.000  C
  C53      1.0000 0.20870  0.69510  0.88340  Biso   1.000  C
  C54      1.0000 0.79130  0.30490  0.38340  Biso   1.000  C
  C55      1.0000 0.70870  0.80490  0.88340  Biso   1.000  C
  C56      1.0000 0.29130  0.19510  0.38340  Biso   1.000  C
  H33      1.0000 0.20800  0.63470  0.88220  Biso   1.000  H
  H34      1.0000 0.79200  0.36530  0.38220  Biso   1.000  H
  H35      1.0000 0.70800  0.86530  0.88220  Biso   1.000  H
  H36      1.0000 0.29200  0.13470  0.38220  Biso   1.000  H
  C57      1.0000 0.29330  0.73840  0.93050  Biso   1.000  C
  C58      1.0000 0.70670  0.26160  0.43050  Biso   1.000  C
  C59      1.0000 0.79330  0.76160  0.93050  Biso   1.000  C
  C60      1.0000 0.20670  0.23840  0.43050  Biso   1.000  C
  H37      1.0000 0.34790  0.70750  0.96180  Biso   1.000  H
  H38      1.0000 0.65210  0.29250  0.46180  Biso   1.000  H
  H39      1.0000 0.84790  0.79250  0.96180  Biso   1.000  H
  H40      1.0000 0.15210  0.20750  0.46180  Biso   1.000  H
  C61      1.0000 0.29520  0.82840  0.93010  Biso   1.000  C
  C62      1.0000 0.70480  0.17160  0.43010  Biso   1.000  C
  C63      1.0000 0.79520  0.67160  0.93010  Biso   1.000  C
  C64      1.0000 0.20480  0.32840  0.43010  Biso   1.000  C
  H41      1.0000 0.35450  0.85750  0.96080  Biso   1.000  H
  H42      1.0000 0.64550  0.14250  0.46080  Biso   1.000  H
  H43      1.0000 0.85450  0.64250  0.96080  Biso   1.000  H
  H44      1.0000 0.14550  0.35750  0.46080  Biso   1.000  H
  C65      1.0000 0.13120  0.83140  0.84150  Biso   1.000  C
  C66      1.0000 0.86880  0.16860  0.34150  Biso   1.000  C
  C67      1.0000 0.63120  0.66860  0.84150  Biso   1.000  C
  C68      1.0000 0.36880  0.33140  0.34150  Biso   1.000  C
  H45      1.0000 0.07580  0.86350  0.81110  Biso   1.000  H
  H46      1.0000 0.92420  0.13650  0.31110  Biso   1.000  H
  H47      1.0000 0.57580  0.63650  0.81110  Biso   1.000  H
  H48      1.0000 0.42420  0.36350  0.31110  Biso   1.000  H
  C69      1.0000 0.93490  0.03480  0.78550  Biso   1.000  C
  C70      1.0000 0.06510  0.96520  0.28550  Biso   1.000  C
  C71      1.0000 0.43490  0.46520  0.78550  Biso   1.000  C
  C72      1.0000 0.56510  0.53480  0.28550  Biso   1.000  C
  H49      1.0000 0.87660  0.01620  0.82270  Biso   1.000  H
  H50      1.0000 0.12340  0.98380  0.32270  Biso   1.000  H
  H51      1.0000 0.37660  0.48380  0.82270  Biso   1.000  H
  H52      1.0000 0.62340  0.51620  0.32270  Biso   1.000  H
  H53      1.0000 0.90810  0.00010  0.74830  Biso   1.000  H
  H54      1.0000 0.09190  0.99990  0.24830  Biso   1.000  H
  H55      1.0000 0.40810  0.49990  0.74830  Biso   1.000  H
  H56      1.0000 0.59190  0.50010  0.24830  Biso   1.000  H
  H57      1.0000 0.91310  0.09470  0.77650  Biso   1.000  H
  H58      1.0000 0.08690  0.90530  0.27650  Biso   1.000  H
  H59      1.0000 0.41310  0.40530  0.77650  Biso   1.000  H
  H60      1.0000 0.58690  0.59470  0.27650  Biso   1.000  H
  Cu1      1.0000 0.21351  0.00411  0.89292  Biso   1.000  Cu
  Cu2      1.0000 0.78649  0.99589  0.39292  Biso   1.000  Cu
  Cu3      1.0000 0.71351  0.49589  0.89292  Biso   1.000  Cu
  Cu4      1.0000 0.28649  0.50411  0.39292  Biso   1.000  Cu
  N1       1.0000 0.76930  0.86960  0.41190  Biso   1.000  N
  N2       1.0000 0.23070  0.13040  0.91190  Biso   1.000  N
  N3       1.0000 0.26930  0.63040  0.41190  Biso   1.000  N
  N4       1.0000 0.73070  0.36960  0.91190  Biso   1.000  N
  N5       1.0000 0.27810  0.83300  0.64170  Biso   1.000  N
  N6       1.0000 0.72190  0.16700  0.14170  Biso   1.000  N
  N7       1.0000 0.77810  0.66700  0.64170  Biso   1.000  N
  N8       1.0000 0.22190  0.33300  0.14170  Biso   1.000  N
  N9       1.0000 0.18160  0.79410  0.68680  Biso   1.000  N
  N10      1.0000 0.81840  0.20590  0.18680  Biso   1.000  N
  N11      1.0000 0.68160  0.70590  0.68680  Biso   1.000  N
  N12      1.0000 0.31840  0.29410  0.18680  Biso   1.000  N
  N13      1.0000 0.32560  0.69360  0.64110  Biso   1.000  N
  N14      1.0000 0.67440  0.30640  0.14110  Biso   1.000  N
  N15      1.0000 0.82560  0.80640  0.64110  Biso   1.000  N
  N16      1.0000 0.17440  0.19360  0.14110  Biso   1.000  N
  N17      1.0000 0.38990  0.61140  0.63490  Biso   1.000  N
  N18      1.0000 0.61010  0.38860  0.13490  Biso   1.000  N
  N19      1.0000 0.88990  0.88860  0.63490  Biso   1.000  N
  N20      1.0000 0.11010  0.11140  0.13490  Biso   1.000  N
  H61      1.0000 0.38240  0.60050  0.58940  Biso   1.000  H
  H62      1.0000 0.61760  0.39950  0.08940  Biso   1.000  H
  H63      1.0000 0.88240  0.89950  0.58940  Biso   1.000  H
  H64      1.0000 0.11760  0.10050  0.08940  Biso   1.000  H
  H65      1.0000 0.49020  0.61980  0.64830  Biso   1.000  H
  H66      1.0000 0.50980  0.38020  0.14830  Biso   1.000  H
  H67      1.0000 0.99020  0.88020  0.64830  Biso   1.000  H
  H68      1.0000 0.00980  0.11980  0.14830  Biso   1.000  H
  N21      1.0000 0.21390  0.87490  0.88680  Biso   1.000  N
  N22      1.0000 0.78610  0.12510  0.38680  Biso   1.000  N
  N23      1.0000 0.71390  0.62510  0.88680  Biso   1.000  N
  N24      1.0000 0.28610  0.37490  0.38680  Biso   1.000  N
  O1       1.0000 0.09410  0.02500  0.79910  Biso   1.000  O
  O2       1.0000 0.90590  0.97500  0.29910  Biso   1.000  O
  O3       1.0000 0.59410  0.47500  0.79910  Biso   1.000  O
  O4       1.0000 0.40590  0.52500  0.29910  Biso   1.000  O
  H69      1.0000 0.15740  0.02780  0.76270  Biso   1.000  H
  H70      1.0000 0.84260  0.97220  0.26270  Biso   1.000  H
  H71      1.0000 0.65740  0.47220  0.76270  Biso   1.000  H
  H72      1.0000 0.34260  0.52780  0.26270  Biso   1.000  H
  S1       1.0000 0.13286  0.62884  0.73253  Biso   1.000  S
  S2       1.0000 0.86714  0.37116  0.23253  Biso   1.000  S
  S3       1.0000 0.63286  0.87116  0.73253  Biso   1.000  S
  S4       1.0000 0.36714  0.12884  0.23253  Biso   1.000  S
  C73      1.0000 0.80740  0.93760  0.13000  Biso   1.000  C
  C74      1.0000 0.19260  0.06240  0.63000  Biso   1.000  C
  C75      1.0000 0.30740  0.56240  0.13000  Biso   1.000  C
  C76      1.0000 0.69260  0.43760  0.63000  Biso   1.000  C
  H73      1.0000 0.83720  0.97220  0.09310  Biso   1.000  H
  H74      1.0000 0.16280  0.02780  0.59310  Biso   1.000  H
  H75      1.0000 0.33720  0.52780  0.09310  Biso   1.000  H
  H76      1.0000 0.66280  0.47220  0.59310  Biso   1.000  H
  H77      1.0000 0.72260  0.90130  0.11810  Biso   1.000  H
  H78      1.0000 0.27740  0.09870  0.61810  Biso   1.000  H
  H79      1.0000 0.22260  0.59870  0.11810  Biso   1.000  H
  H80      1.0000 0.77740  0.40130  0.61810  Biso   1.000  H
  H81      1.0000 0.89170  0.90200  0.14340  Biso   1.000  H
  H82      1.0000 0.10830  0.09800  0.64340  Biso   1.000  H
  H83      1.0000 0.39170  0.59800  0.14340  Biso   1.000  H
  H84      1.0000 0.60830  0.40200  0.64340  Biso   1.000  H
  O5       1.0000 0.76470  0.99190  0.18130  Biso   1.000  O
  O6       1.0000 0.23530  0.00810  0.68130  Biso   1.000  O
  O7       1.0000 0.26470  0.50810  0.18130  Biso   1.000  O
  O8       1.0000 0.73530  0.49190  0.68130  Biso   1.000  O
  H85      1.0000 0.74200  0.03990  0.16690  Biso   1.000  H
  H86      1.0000 0.25800  0.96010  0.66690  Biso   1.000  H
  H87      1.0000 0.24200  0.46010  0.16690  Biso   1.000  H
  H88      1.0000 0.75800  0.53990  0.66690  Biso   1.000  H
  C77      1.0000 0.43730  0.88250  0.19900  Biso   1.000  C
  C78      1.0000 0.56270  0.11750  0.69900  Biso   1.000  C
  C79      1.0000 0.93730  0.61750  0.19900  Biso   1.000  C
  C80      1.0000 0.06270  0.38250  0.69900  Biso   1.000  C
  H89      1.0000 0.51970  0.92460  0.19940  Biso   1.000  H
  H90      1.0000 0.48030  0.07540  0.69940  Biso   1.000  H
  H91      1.0000 0.01970  0.57540  0.19940  Biso   1.000  H
  H92      1.0000 0.98030  0.42460  0.69940  Biso   1.000  H
  H93      1.0000 0.36880  0.89650  0.23470  Biso   1.000  H
  H94      1.0000 0.63120  0.10350  0.73470  Biso   1.000  H
  H95      1.0000 0.86880  0.60350  0.23470  Biso   1.000  H
  H96      1.0000 0.13120  0.39650  0.73470  Biso   1.000  H
  Cl1      1.0000 0.51240  0.78070  0.21180  Biso   1.000  Cl
  Cl2      1.0000 0.48760  0.21930  0.71180  Biso   1.000  Cl
  Cl3      1.0000 0.01240  0.71930  0.21180  Biso   1.000  Cl
  Cl4      1.0000 0.98760  0.28070  0.71180  Biso   1.000  Cl
  Cl5      1.0000 0.33220  0.89230  0.12116  Biso   1.000  Cl
  Cl6      1.0000 0.66780  0.10770  0.62116  Biso   1.000  Cl
  Cl7      1.0000 0.83220  0.60770  0.12116  Biso   1.000  Cl
  Cl8      1.0000 0.16780  0.39230  0.62116  Biso   1.000  Cl
