data_image0
_cell_length_a       8.8761
_cell_length_b       15.2703
_cell_length_c       21.1399
_cell_angle_alpha    90
_cell_angle_beta     90
_cell_angle_gamma    90

_symmetry_space_group_name_H-M    "P 1"
_symmetry_int_tables_number       1

loop_
  _symmetry_equiv_pos_as_xyz
  'x, y, z'

loop_
  _atom_site_label
  _atom_site_occupancy
  _atom_site_fract_x
  _atom_site_fract_y
  _atom_site_fract_z
  _atom_site_thermal_displace_type
  _atom_site_B_iso_or_equiv
  _atom_site_type_symbol
  Br1      1.0000 0.97699  0.48516  0.53479  Biso   1.000  Br
  Br2      1.0000 0.02301  0.51484  0.03479  Biso   1.000  Br
  Br3      1.0000 0.52301  0.98516  0.03479  Biso   1.000  Br
  Br4      1.0000 0.47699  0.01484  0.53479  Biso   1.000  Br
  Br5      1.0000 0.54558  0.51523  0.67405  Biso   1.000  Br
  Br6      1.0000 0.45442  0.48477  0.17405  Biso   1.000  Br
  Br7      1.0000 0.95442  0.01523  0.17405  Biso   1.000  Br
  Br8      1.0000 0.04558  0.98477  0.67405  Biso   1.000  Br
  C1       1.0000 0.83800  0.69210  0.63070  Biso   1.000  C
  C2       1.0000 0.16200  0.30790  0.13070  Biso   1.000  C
  C3       1.0000 0.66200  0.19210  0.13070  Biso   1.000  C
  C4       1.0000 0.33800  0.80790  0.63070  Biso   1.000  C
  H1       1.0000 0.90330  0.67470  0.66270  Biso   1.000  H
  H2       1.0000 0.09670  0.32530  0.16270  Biso   1.000  H
  H3       1.0000 0.59670  0.17470  0.16270  Biso   1.000  H
  H4       1.0000 0.40330  0.82530  0.66270  Biso   1.000  H
  C5       1.0000 0.81830  0.78270  0.62000  Biso   1.000  C
  C6       1.0000 0.18170  0.21730  0.12000  Biso   1.000  C
  C7       1.0000 0.68170  0.28270  0.12000  Biso   1.000  C
  C8       1.0000 0.31830  0.71730  0.62000  Biso   1.000  C
  H5       1.0000 0.86960  0.82370  0.64440  Biso   1.000  H
  H6       1.0000 0.13040  0.17630  0.14440  Biso   1.000  H
  H7       1.0000 0.63040  0.32370  0.14440  Biso   1.000  H
  H8       1.0000 0.36960  0.67630  0.64440  Biso   1.000  H
  C9       1.0000 0.72360  0.80890  0.57350  Biso   1.000  C
  C10      1.0000 0.27640  0.19110  0.07350  Biso   1.000  C
  C11      1.0000 0.77640  0.30890  0.07350  Biso   1.000  C
  C12      1.0000 0.22360  0.69110  0.57350  Biso   1.000  C
  H9       1.0000 0.70860  0.86830  0.56600  Biso   1.000  H
  H10      1.0000 0.29140  0.13170  0.06600  Biso   1.000  H
  H11      1.0000 0.79140  0.36830  0.06600  Biso   1.000  H
  H12      1.0000 0.20860  0.63170  0.56600  Biso   1.000  H
  C13      1.0000 0.64840  0.74650  0.53670  Biso   1.000  C
  C14      1.0000 0.35160  0.25350  0.03670  Biso   1.000  C
  C15      1.0000 0.85160  0.24650  0.03670  Biso   1.000  C
  C16      1.0000 0.14840  0.75350  0.53670  Biso   1.000  C
  C17      1.0000 0.67560  0.65660  0.54940  Biso   1.000  C
  C18      1.0000 0.32440  0.34340  0.04940  Biso   1.000  C
  C19      1.0000 0.82440  0.15660  0.04940  Biso   1.000  C
  C20      1.0000 0.17560  0.84340  0.54940  Biso   1.000  C
  C21      1.0000 0.60230  0.59230  0.51170  Biso   1.000  C
  C22      1.0000 0.39770  0.40770  0.01170  Biso   1.000  C
  C23      1.0000 0.89770  0.09230  0.01170  Biso   1.000  C
  C24      1.0000 0.10230  0.90770  0.51170  Biso   1.000  C
  H13      1.0000 0.61950  0.53320  0.51960  Biso   1.000  H
  H14      1.0000 0.38050  0.46680  0.01960  Biso   1.000  H
  H15      1.0000 0.88050  0.03320  0.01960  Biso   1.000  H
  H16      1.0000 0.11950  0.96680  0.51960  Biso   1.000  H
  C25      1.0000 0.50730  0.61640  0.46450  Biso   1.000  C
  C26      1.0000 0.49270  0.38360  0.96450  Biso   1.000  C
  C27      1.0000 0.99270  0.11640  0.96450  Biso   1.000  C
  C28      1.0000 0.00730  0.88360  0.46450  Biso   1.000  C
  H17      1.0000 0.46290  0.57350  0.43950  Biso   1.000  H
  H18      1.0000 0.53710  0.42650  0.93950  Biso   1.000  H
  H19      1.0000 0.03710  0.07350  0.93950  Biso   1.000  H
  H20      1.0000 0.96290  0.92650  0.43950  Biso   1.000  H
  C29      1.0000 0.47410  0.70710  0.45240  Biso   1.000  C
  C30      1.0000 0.52590  0.29290  0.95240  Biso   1.000  C
  C31      1.0000 0.02590  0.20710  0.95240  Biso   1.000  C
  C32      1.0000 0.97410  0.79290  0.45240  Biso   1.000  C
  C33      1.0000 0.54600  0.76980  0.48770  Biso   1.000  C
  C34      1.0000 0.45400  0.23020  0.98770  Biso   1.000  C
  C35      1.0000 0.95400  0.26980  0.98770  Biso   1.000  C
  C36      1.0000 0.04600  0.73020  0.48770  Biso   1.000  C
  H21      1.0000 0.52750  0.82860  0.47940  Biso   1.000  H
  H22      1.0000 0.47250  0.17140  0.97940  Biso   1.000  H
  H23      1.0000 0.97250  0.32860  0.97940  Biso   1.000  H
  H24      1.0000 0.02750  0.67140  0.47940  Biso   1.000  H
  C37      1.0000 0.36200  0.72510  0.40380  Biso   1.000  C
  C38      1.0000 0.63800  0.27490  0.90380  Biso   1.000  C
  C39      1.0000 0.13800  0.22510  0.90380  Biso   1.000  C
  C40      1.0000 0.86200  0.77490  0.40380  Biso   1.000  C
  C41      1.0000 0.21560  0.78510  0.33420  Biso   1.000  C
  C42      1.0000 0.78440  0.21490  0.83420  Biso   1.000  C
  C43      1.0000 0.28440  0.28510  0.83420  Biso   1.000  C
  C44      1.0000 0.71560  0.71490  0.33420  Biso   1.000  C
  C45      1.0000 0.02870  0.79750  0.23290  Biso   1.000  C
  C46      1.0000 0.97130  0.20250  0.73290  Biso   1.000  C
  C47      1.0000 0.47130  0.29750  0.73290  Biso   1.000  C
  C48      1.0000 0.52870  0.70250  0.23290  Biso   1.000  C
  H25      1.0000 0.97850  0.75160  0.25670  Biso   1.000  H
  H26      1.0000 0.02150  0.24840  0.75670  Biso   1.000  H
  H27      1.0000 0.52150  0.25160  0.75670  Biso   1.000  H
  H28      1.0000 0.47850  0.74840  0.25670  Biso   1.000  H
  H29      1.0000 0.95170  0.83240  0.21230  Biso   1.000  H
  H30      1.0000 0.04830  0.16760  0.71230  Biso   1.000  H
  H31      1.0000 0.54830  0.33240  0.71230  Biso   1.000  H
  H32      1.0000 0.45170  0.66760  0.21230  Biso   1.000  H
  C49      1.0000 0.12650  0.75650  0.18350  Biso   1.000  C
  C50      1.0000 0.87350  0.24350  0.68350  Biso   1.000  C
  C51      1.0000 0.37350  0.25650  0.68350  Biso   1.000  C
  C52      1.0000 0.62650  0.74350  0.18350  Biso   1.000  C
  C53      1.0000 0.13070  0.66560  0.17720  Biso   1.000  C
  C54      1.0000 0.86930  0.33440  0.67720  Biso   1.000  C
  C55      1.0000 0.36930  0.16560  0.67720  Biso   1.000  C
  C56      1.0000 0.63070  0.83440  0.17720  Biso   1.000  C
  H33      1.0000 0.07620  0.63130  0.20540  Biso   1.000  H
  H34      1.0000 0.92380  0.36870  0.70540  Biso   1.000  H
  H35      1.0000 0.42380  0.13130  0.70540  Biso   1.000  H
  H36      1.0000 0.57620  0.86870  0.20540  Biso   1.000  H
  C57      1.0000 0.29180  0.67530  0.09140  Biso   1.000  C
  C58      1.0000 0.70820  0.32470  0.59140  Biso   1.000  C
  C59      1.0000 0.20820  0.17530  0.59140  Biso   1.000  C
  C60      1.0000 0.79180  0.82470  0.09140  Biso   1.000  C
  H37      1.0000 0.34910  0.64770  0.06040  Biso   1.000  H
  H38      1.0000 0.65090  0.35230  0.56040  Biso   1.000  H
  H39      1.0000 0.15090  0.14770  0.56040  Biso   1.000  H
  H40      1.0000 0.84910  0.85230  0.06040  Biso   1.000  H
  C61      1.0000 0.29230  0.76490  0.09440  Biso   1.000  C
  C62      1.0000 0.70770  0.23510  0.59440  Biso   1.000  C
  C63      1.0000 0.20770  0.26490  0.59440  Biso   1.000  C
  C64      1.0000 0.79230  0.73510  0.09440  Biso   1.000  C
  H41      1.0000 0.34820  0.79750  0.06560  Biso   1.000  H
  H42      1.0000 0.65180  0.20250  0.56560  Biso   1.000  H
  H43      1.0000 0.15180  0.29750  0.56560  Biso   1.000  H
  H44      1.0000 0.84820  0.70250  0.06560  Biso   1.000  H
  C65      1.0000 0.20780  0.80650  0.14120  Biso   1.000  C
  C66      1.0000 0.79220  0.19350  0.64120  Biso   1.000  C
  C67      1.0000 0.29220  0.30650  0.64120  Biso   1.000  C
  C68      1.0000 0.70780  0.69350  0.14120  Biso   1.000  C
  H45      1.0000 0.20620  0.86730  0.14380  Biso   1.000  H
  H46      1.0000 0.79380  0.13270  0.64380  Biso   1.000  H
  H47      1.0000 0.29380  0.36730  0.64380  Biso   1.000  H
  H48      1.0000 0.70620  0.63270  0.14380  Biso   1.000  H
  C69      1.0000 0.10290  0.53400  0.70880  Biso   1.000  C
  C70      1.0000 0.89710  0.46600  0.20880  Biso   1.000  C
  C71      1.0000 0.39710  0.03400  0.20880  Biso   1.000  C
  C72      1.0000 0.60290  0.96600  0.70880  Biso   1.000  C
  H49      1.0000 0.14090  0.55010  0.66740  Biso   1.000  H
  H50      1.0000 0.85910  0.44990  0.16740  Biso   1.000  H
  H51      1.0000 0.35910  0.05010  0.16740  Biso   1.000  H
  H52      1.0000 0.64090  0.94990  0.66740  Biso   1.000  H
  H53      1.0000 0.14460  0.47730  0.72000  Biso   1.000  H
  H54      1.0000 0.85540  0.52270  0.22000  Biso   1.000  H
  H55      1.0000 0.35540  0.97730  0.22000  Biso   1.000  H
  H56      1.0000 0.64460  0.02270  0.72000  Biso   1.000  H
  C73      1.0000 0.14900  0.59980  0.75590  Biso   1.000  C
  C74      1.0000 0.85100  0.40020  0.25590  Biso   1.000  C
  C75      1.0000 0.35100  0.09980  0.25590  Biso   1.000  C
  C76      1.0000 0.64900  0.90020  0.75590  Biso   1.000  C
  H57      1.0000 0.15940  0.65750  0.73730  Biso   1.000  H
  H58      1.0000 0.84060  0.34250  0.23730  Biso   1.000  H
  H59      1.0000 0.34060  0.15750  0.23730  Biso   1.000  H
  H60      1.0000 0.65940  0.84250  0.73730  Biso   1.000  H
  H61      1.0000 0.24220  0.58370  0.77690  Biso   1.000  H
  H62      1.0000 0.75780  0.41630  0.27690  Biso   1.000  H
  H63      1.0000 0.25780  0.08370  0.27690  Biso   1.000  H
  H64      1.0000 0.74220  0.91630  0.77690  Biso   1.000  H
  C77      1.0000 0.01700  0.59470  0.79960  Biso   1.000  C
  C78      1.0000 0.98300  0.40530  0.29960  Biso   1.000  C
  C79      1.0000 0.48300  0.09470  0.29960  Biso   1.000  C
  C80      1.0000 0.51700  0.90530  0.79960  Biso   1.000  C
  H65      1.0000 0.98000  0.65330  0.80780  Biso   1.000  H
  H66      1.0000 0.02000  0.34670  0.30780  Biso   1.000  H
  H67      1.0000 0.52000  0.15330  0.30780  Biso   1.000  H
  H68      1.0000 0.48000  0.84670  0.80780  Biso   1.000  H
  H69      1.0000 0.04900  0.56950  0.83950  Biso   1.000  H
  H70      1.0000 0.95100  0.43050  0.33950  Biso   1.000  H
  H71      1.0000 0.45100  0.06950  0.33950  Biso   1.000  H
  H72      1.0000 0.54900  0.93050  0.83950  Biso   1.000  H
  C81      1.0000 0.88390  0.53680  0.77080  Biso   1.000  C
  C82      1.0000 0.11610  0.46320  0.27080  Biso   1.000  C
  C83      1.0000 0.61610  0.03680  0.27080  Biso   1.000  C
  C84      1.0000 0.38390  0.96320  0.77080  Biso   1.000  C
  H73      1.0000 0.87540  0.48040  0.79160  Biso   1.000  H
  H74      1.0000 0.12460  0.51960  0.29160  Biso   1.000  H
  H75      1.0000 0.62460  0.98040  0.29160  Biso   1.000  H
  H76      1.0000 0.37540  0.01960  0.79160  Biso   1.000  H
  H77      1.0000 0.78780  0.56690  0.77220  Biso   1.000  H
  H78      1.0000 0.21220  0.43310  0.27220  Biso   1.000  H
  H79      1.0000 0.71220  0.06690  0.27220  Biso   1.000  H
  H80      1.0000 0.28780  0.93310  0.77220  Biso   1.000  H
  Cu1      1.0000 0.78899  0.50374  0.61927  Biso   1.000  Cu
  Cu2      1.0000 0.21101  0.49626  0.11927  Biso   1.000  Cu
  Cu3      1.0000 0.71101  0.00374  0.11927  Biso   1.000  Cu
  Cu4      1.0000 0.28899  0.99626  0.61927  Biso   1.000  Cu
  N1       1.0000 0.76840  0.63110  0.59760  Biso   1.000  N
  N2       1.0000 0.23160  0.36890  0.09760  Biso   1.000  N
  N3       1.0000 0.73160  0.13110  0.09760  Biso   1.000  N
  N4       1.0000 0.26840  0.86890  0.59760  Biso   1.000  N
  N5       1.0000 0.27720  0.66290  0.37850  Biso   1.000  N
  N6       1.0000 0.72280  0.33710  0.87850  Biso   1.000  N
  N7       1.0000 0.22280  0.16290  0.87850  Biso   1.000  N
  N8       1.0000 0.77720  0.83710  0.37850  Biso   1.000  N
  N9       1.0000 0.18350  0.70220  0.33410  Biso   1.000  N
  N10      1.0000 0.81650  0.29780  0.83410  Biso   1.000  N
  N11      1.0000 0.31650  0.20220  0.83410  Biso   1.000  N
  N12      1.0000 0.68350  0.79780  0.33410  Biso   1.000  N
  N13      1.0000 0.32540  0.80410  0.37650  Biso   1.000  N
  N14      1.0000 0.67460  0.19590  0.87650  Biso   1.000  N
  N15      1.0000 0.17460  0.30410  0.87650  Biso   1.000  N
  N16      1.0000 0.82540  0.69590  0.37650  Biso   1.000  N
  N17      1.0000 0.38920  0.88710  0.38380  Biso   1.000  N
  N18      1.0000 0.61080  0.11290  0.88380  Biso   1.000  N
  N19      1.0000 0.11080  0.38710  0.88380  Biso   1.000  N
  N20      1.0000 0.88920  0.61290  0.38380  Biso   1.000  N
  H81      1.0000 0.36240  0.92090  0.35250  Biso   1.000  H
  H82      1.0000 0.63760  0.07910  0.85250  Biso   1.000  H
  H83      1.0000 0.13760  0.42090  0.85250  Biso   1.000  H
  H84      1.0000 0.86240  0.57910  0.35250  Biso   1.000  H
  H85      1.0000 0.48740  0.88350  0.38390  Biso   1.000  H
  H86      1.0000 0.51260  0.11650  0.88390  Biso   1.000  H
  H87      1.0000 0.01260  0.38350  0.88390  Biso   1.000  H
  H88      1.0000 0.98740  0.61650  0.38390  Biso   1.000  H
  N21      1.0000 0.21130  0.62620  0.13150  Biso   1.000  N
  N22      1.0000 0.78870  0.37380  0.63150  Biso   1.000  N
  N23      1.0000 0.28870  0.12620  0.63150  Biso   1.000  N
  N24      1.0000 0.71130  0.87380  0.13150  Biso   1.000  N
  O1       1.0000 0.94030  0.52890  0.70710  Biso   1.000  O
  O2       1.0000 0.05970  0.47110  0.20710  Biso   1.000  O
  O3       1.0000 0.55970  0.02890  0.20710  Biso   1.000  O
  O4       1.0000 0.44030  0.97110  0.70710  Biso   1.000  O
  S1       1.0000 0.13454  0.86739  0.28803  Biso   1.000  S
  S2       1.0000 0.86546  0.13261  0.78803  Biso   1.000  S
  S3       1.0000 0.36546  0.36739  0.78803  Biso   1.000  S
  S4       1.0000 0.63454  0.63261  0.28803  Biso   1.000  S
  C85      1.0000 0.38500  0.36800  0.43400  Biso   1.000  C
  C86      1.0000 0.61500  0.63200  0.93400  Biso   1.000  C
  C87      1.0000 0.11500  0.86800  0.93400  Biso   1.000  C
  C88      1.0000 0.88500  0.13200  0.43400  Biso   1.000  C
  H89      1.0000 0.30860  0.40860  0.44590  Biso   1.000  H
  H90      1.0000 0.69140  0.59140  0.94590  Biso   1.000  H
  H91      1.0000 0.19140  0.90860  0.94590  Biso   1.000  H
  H92      1.0000 0.80860  0.09140  0.44590  Biso   1.000  H
  H93      1.0000 0.35970  0.31040  0.44850  Biso   1.000  H
  H94      1.0000 0.64030  0.68960  0.94850  Biso   1.000  H
  H95      1.0000 0.14030  0.81040  0.94850  Biso   1.000  H
  H96      1.0000 0.85970  0.18960  0.44850  Biso   1.000  H
  H97      1.0000 0.39330  0.36690  0.38820  Biso   1.000  H
  H98      1.0000 0.60670  0.63310  0.88820  Biso   1.000  H
  H99      1.0000 0.10670  0.86690  0.88820  Biso   1.000  H
  H100     1.0000 0.89330  0.13310  0.38820  Biso   1.000  H
  O5       1.0000 0.52900  0.39440  0.46060  Biso   1.000  O
  O6       1.0000 0.47100  0.60560  0.96060  Biso   1.000  O
  O7       1.0000 0.97100  0.89440  0.96060  Biso   1.000  O
  O8       1.0000 0.02900  0.10560  0.46060  Biso   1.000  O
  H101     1.0000 0.58180  0.38340  0.42980  Biso   1.000  H
  H102     1.0000 0.41820  0.61660  0.92980  Biso   1.000  H
  H103     1.0000 0.91820  0.88340  0.92980  Biso   1.000  H
  H104     1.0000 0.08180  0.11660  0.42980  Biso   1.000  H
  C89      1.0000 0.45900  0.37900  0.34500  Biso   1.000  C
  C90      1.0000 0.54100  0.62100  0.84500  Biso   1.000  C
  C91      1.0000 0.04100  0.87900  0.84500  Biso   1.000  C
  C92      1.0000 0.95900  0.12100  0.34500  Biso   1.000  C
  H105     1.0000 0.49370  0.34850  0.30780  Biso   1.000  H
  H106     1.0000 0.50630  0.65150  0.80780  Biso   1.000  H
  H107     1.0000 0.00630  0.84850  0.80780  Biso   1.000  H
  H108     1.0000 0.99370  0.15150  0.30780  Biso   1.000  H
  H109     1.0000 0.42770  0.43740  0.33260  Biso   1.000  H
  H110     1.0000 0.57230  0.56260  0.83260  Biso   1.000  H
  H111     1.0000 0.07230  0.93740  0.83260  Biso   1.000  H
  H112     1.0000 0.92770  0.06260  0.33260  Biso   1.000  H
  H113     1.0000 0.37510  0.34870  0.36270  Biso   1.000  H
  H114     1.0000 0.62490  0.65130  0.86270  Biso   1.000  H
  H115     1.0000 0.12490  0.84870  0.86270  Biso   1.000  H
  H116     1.0000 0.87510  0.15130  0.36270  Biso   1.000  H
  O9       1.0000 0.57900  0.38500  0.39000  Biso   1.000  O
  O10      1.0000 0.42100  0.61500  0.89000  Biso   1.000  O
  O11      1.0000 0.92100  0.88500  0.89000  Biso   1.000  O
  O12      1.0000 0.07900  0.11500  0.39000  Biso   1.000  O
  H117     1.0000 0.55990  0.41570  0.42120  Biso   1.000  H
  H118     1.0000 0.44010  0.58430  0.92120  Biso   1.000  H
  H119     1.0000 0.94010  0.91570  0.92120  Biso   1.000  H
  H120     1.0000 0.05990  0.08430  0.42120  Biso   1.000  H
