data_image0
_cell_length_a       8.4816
_cell_length_b       15.3597
_cell_length_c       19.7243
_cell_angle_alpha    90
_cell_angle_beta     90
_cell_angle_gamma    90

_symmetry_space_group_name_H-M    "P 1"
_symmetry_int_tables_number       1

loop_
  _symmetry_equiv_pos_as_xyz
  'x, y, z'

loop_
  _atom_site_label
  _atom_site_occupancy
  _atom_site_fract_x
  _atom_site_fract_y
  _atom_site_fract_z
  _atom_site_thermal_displace_type
  _atom_site_B_iso_or_equiv
  _atom_site_type_symbol
  N1       1.0000 0.18820  0.62670  0.86340  Biso   1.000  N
  N2       1.0000 0.81180  0.37330  0.36340  Biso   1.000  N
  N3       1.0000 0.31180  0.12670  0.36340  Biso   1.000  N
  N4       1.0000 0.68820  0.87330  0.86340  Biso   1.000  N
  Br1      1.0000 0.03079  0.51211  0.29051  Biso   1.000  Br
  Br2      1.0000 0.96921  0.48789  0.79051  Biso   1.000  Br
  Br3      1.0000 0.46921  0.01211  0.79051  Biso   1.000  Br
  Br4      1.0000 0.53079  0.98789  0.29051  Biso   1.000  Br
  Cu1      1.0000 0.83360  0.49923  0.38022  Biso   1.000  Cu
  Cu2      1.0000 0.16640  0.50077  0.88022  Biso   1.000  Cu
  Cu3      1.0000 0.66640  0.99923  0.88022  Biso   1.000  Cu
  Cu4      1.0000 0.33360  0.00077  0.38022  Biso   1.000  Cu
  S1       1.0000 0.81580  0.88510  0.53070  Biso   1.000  S
  S2       1.0000 0.18420  0.11490  0.03070  Biso   1.000  S
  S3       1.0000 0.68420  0.38510  0.03070  Biso   1.000  S
  S4       1.0000 0.31580  0.61490  0.53070  Biso   1.000  S
  N5       1.0000 0.62710  0.81560  0.62610  Biso   1.000  N
  N6       1.0000 0.37290  0.18440  0.12610  Biso   1.000  N
  N7       1.0000 0.87290  0.31560  0.12610  Biso   1.000  N
  N8       1.0000 0.12710  0.68440  0.62610  Biso   1.000  N
  C1       1.0000 0.59570  0.73670  0.65430  Biso   1.000  C
  C2       1.0000 0.40430  0.26330  0.15430  Biso   1.000  C
  C3       1.0000 0.90430  0.23670  0.15430  Biso   1.000  C
  C4       1.0000 0.09570  0.76330  0.65430  Biso   1.000  C
  C5       1.0000 0.12090  0.68540  0.90380  Biso   1.000  C
  C6       1.0000 0.87910  0.31460  0.40380  Biso   1.000  C
  C7       1.0000 0.37910  0.18540  0.40380  Biso   1.000  C
  C8       1.0000 0.62090  0.81460  0.90380  Biso   1.000  C
  H1       1.0000 0.05730  0.66460  0.93860  Biso   1.000  H
  H2       1.0000 0.94270  0.33540  0.43860  Biso   1.000  H
  H3       1.0000 0.44270  0.16460  0.43860  Biso   1.000  H
  H4       1.0000 0.55730  0.83540  0.93860  Biso   1.000  H
  C9       1.0000 0.28230  0.65640  0.81210  Biso   1.000  C
  C10      1.0000 0.71770  0.34360  0.31210  Biso   1.000  C
  C11      1.0000 0.21770  0.15640  0.31210  Biso   1.000  C
  C12      1.0000 0.78230  0.84360  0.81210  Biso   1.000  C
  N9       1.0000 0.68880  0.67770  0.62630  Biso   1.000  N
  N10      1.0000 0.31120  0.32230  0.12630  Biso   1.000  N
  N11      1.0000 0.81120  0.17770  0.12630  Biso   1.000  N
  N12      1.0000 0.18880  0.82230  0.62630  Biso   1.000  N
  C13      1.0000 0.23550  0.80590  0.84570  Biso   1.000  C
  C14      1.0000 0.76450  0.19410  0.34570  Biso   1.000  C
  C15      1.0000 0.26450  0.30590  0.34570  Biso   1.000  C
  C16      1.0000 0.73550  0.69410  0.84570  Biso   1.000  C
  H5       1.0000 0.25190  0.86530  0.84010  Biso   1.000  H
  H6       1.0000 0.74810  0.13470  0.34010  Biso   1.000  H
  H7       1.0000 0.24810  0.36530  0.34010  Biso   1.000  H
  H8       1.0000 0.75190  0.63470  0.84010  Biso   1.000  H
  C17      1.0000 0.35370  0.59470  0.76910  Biso   1.000  C
  C18      1.0000 0.64630  0.40530  0.26910  Biso   1.000  C
  C19      1.0000 0.14630  0.09470  0.26910  Biso   1.000  C
  C20      1.0000 0.85370  0.90530  0.76910  Biso   1.000  C
  H9       1.0000 0.33370  0.53560  0.77450  Biso   1.000  H
  H10      1.0000 0.66630  0.46440  0.27450  Biso   1.000  H
  H11      1.0000 0.16630  0.03560  0.27450  Biso   1.000  H
  H12      1.0000 0.83370  0.96440  0.77450  Biso   1.000  H
  N13      1.0000 0.81200  0.62870  0.37830  Biso   1.000  N
  N14      1.0000 0.18800  0.37130  0.87830  Biso   1.000  N
  N15      1.0000 0.68800  0.12870  0.87830  Biso   1.000  N
  N16      1.0000 0.31200  0.87130  0.37830  Biso   1.000  N
  C21      1.0000 0.45280  0.62340  0.71940  Biso   1.000  C
  C22      1.0000 0.54720  0.37660  0.21940  Biso   1.000  C
  C23      1.0000 0.04720  0.12340  0.21940  Biso   1.000  C
  C24      1.0000 0.95280  0.87660  0.71940  Biso   1.000  C
  H13      1.0000 0.50260  0.58260  0.69190  Biso   1.000  H
  H14      1.0000 0.49740  0.41740  0.19190  Biso   1.000  H
  H15      1.0000 0.99740  0.08260  0.19190  Biso   1.000  H
  H16      1.0000 0.00260  0.91740  0.69190  Biso   1.000  H
  C25      1.0000 0.30760  0.74770  0.80220  Biso   1.000  C
  C26      1.0000 0.69240  0.25230  0.30220  Biso   1.000  C
  C27      1.0000 0.19240  0.24770  0.30220  Biso   1.000  C
  C28      1.0000 0.80760  0.75230  0.80220  Biso   1.000  C
  C29      1.0000 0.87370  0.67720  0.42590  Biso   1.000  C
  C30      1.0000 0.12630  0.32280  0.92590  Biso   1.000  C
  C31      1.0000 0.62630  0.17720  0.92590  Biso   1.000  C
  C32      1.0000 0.37370  0.82280  0.42590  Biso   1.000  C
  H17      1.0000 0.92690  0.65090  0.46170  Biso   1.000  H
  H18      1.0000 0.07310  0.34910  0.96170  Biso   1.000  H
  H19      1.0000 0.57310  0.15090  0.96170  Biso   1.000  H
  H20      1.0000 0.42690  0.84910  0.46170  Biso   1.000  H
  N17      1.0000 0.77910  0.71990  0.57570  Biso   1.000  N
  N18      1.0000 0.22090  0.28010  0.07570  Biso   1.000  N
  N19      1.0000 0.72090  0.21990  0.07570  Biso   1.000  N
  N20      1.0000 0.27910  0.78010  0.57570  Biso   1.000  N
  C33      1.0000 0.13820  0.77640  0.89820  Biso   1.000  C
  C34      1.0000 0.86180  0.22360  0.39820  Biso   1.000  C
  C35      1.0000 0.36180  0.27640  0.39820  Biso   1.000  C
  C36      1.0000 0.63820  0.72360  0.89820  Biso   1.000  C
  H21      1.0000 0.08790  0.81460  0.92770  Biso   1.000  H
  H22      1.0000 0.91210  0.18540  0.42770  Biso   1.000  H
  H23      1.0000 0.41210  0.31460  0.42770  Biso   1.000  H
  H24      1.0000 0.58790  0.68540  0.92770  Biso   1.000  H
  N21      1.0000 0.55370  0.89610  0.63470  Biso   1.000  N
  N22      1.0000 0.44630  0.10390  0.13470  Biso   1.000  N
  N23      1.0000 0.94630  0.39610  0.13470  Biso   1.000  N
  N24      1.0000 0.05370  0.60390  0.63470  Biso   1.000  N
  H25      1.0000 0.45220  0.88770  0.64410  Biso   1.000  H
  H26      1.0000 0.54780  0.11230  0.14410  Biso   1.000  H
  H27      1.0000 0.04780  0.38770  0.14410  Biso   1.000  H
  H28      1.0000 0.95220  0.61230  0.64410  Biso   1.000  H
  H29      1.0000 0.56250  0.92640  0.59640  Biso   1.000  H
  H30      1.0000 0.43750  0.07360  0.09640  Biso   1.000  H
  H31      1.0000 0.93750  0.42640  0.09640  Biso   1.000  H
  H32      1.0000 0.06250  0.57360  0.59640  Biso   1.000  H
  C37      1.0000 0.74190  0.80060  0.57980  Biso   1.000  C
  C38      1.0000 0.25810  0.19940  0.07980  Biso   1.000  C
  C39      1.0000 0.75810  0.30060  0.07980  Biso   1.000  C
  C40      1.0000 0.24190  0.69940  0.57980  Biso   1.000  C
  C41      1.0000 0.95080  0.81890  0.47900  Biso   1.000  C
  C42      1.0000 0.04920  0.18110  0.97900  Biso   1.000  C
  C43      1.0000 0.54920  0.31890  0.97900  Biso   1.000  C
  C44      1.0000 0.45080  0.68110  0.47900  Biso   1.000  C
  H33      1.0000 0.02670  0.85670  0.45710  Biso   1.000  H
  H34      1.0000 0.97330  0.14330  0.95710  Biso   1.000  H
  H35      1.0000 0.47330  0.35670  0.95710  Biso   1.000  H
  H36      1.0000 0.52670  0.64330  0.45710  Biso   1.000  H
  H37      1.0000 0.00830  0.77940  0.50830  Biso   1.000  H
  H38      1.0000 0.99170  0.22060  0.00830  Biso   1.000  H
  H39      1.0000 0.49170  0.27940  0.00830  Biso   1.000  H
  H40      1.0000 0.50830  0.72060  0.50830  Biso   1.000  H
  C45      1.0000 0.48280  0.71420  0.70810  Biso   1.000  C
  C46      1.0000 0.51720  0.28580  0.20810  Biso   1.000  C
  C47      1.0000 0.01720  0.21420  0.20810  Biso   1.000  C
  C48      1.0000 0.98280  0.78580  0.70810  Biso   1.000  C
  C49      1.0000 0.40970  0.77450  0.75080  Biso   1.000  C
  C50      1.0000 0.59030  0.22550  0.25080  Biso   1.000  C
  C51      1.0000 0.09030  0.27450  0.25080  Biso   1.000  C
  C52      1.0000 0.90970  0.72550  0.75080  Biso   1.000  C
  H41      1.0000 0.42950  0.83360  0.74490  Biso   1.000  H
  H42      1.0000 0.57050  0.16640  0.24490  Biso   1.000  H
  H43      1.0000 0.07050  0.33360  0.24490  Biso   1.000  H
  H44      1.0000 0.92950  0.66640  0.74490  Biso   1.000  H
  C53      1.0000 0.78210  0.80710  0.37340  Biso   1.000  C
  C54      1.0000 0.21790  0.19290  0.87340  Biso   1.000  C
  C55      1.0000 0.71790  0.30710  0.87340  Biso   1.000  C
  C56      1.0000 0.28210  0.69290  0.37340  Biso   1.000  C
  H45      1.0000 0.77650  0.86750  0.37140  Biso   1.000  H
  H46      1.0000 0.22350  0.13250  0.87140  Biso   1.000  H
  H47      1.0000 0.72350  0.36750  0.87140  Biso   1.000  H
  H48      1.0000 0.27650  0.63250  0.37140  Biso   1.000  H
  C57      1.0000 0.86140  0.76500  0.42380  Biso   1.000  C
  C58      1.0000 0.13860  0.23500  0.92380  Biso   1.000  C
  C59      1.0000 0.63860  0.26500  0.92380  Biso   1.000  C
  C60      1.0000 0.36140  0.73500  0.42380  Biso   1.000  C
  C61      1.0000 0.72650  0.66460  0.32780  Biso   1.000  C
  C62      1.0000 0.27350  0.33540  0.82780  Biso   1.000  C
  C63      1.0000 0.77350  0.16460  0.82780  Biso   1.000  C
  C64      1.0000 0.22650  0.83540  0.32780  Biso   1.000  C
  H49      1.0000 0.67920  0.62940  0.29530  Biso   1.000  H
  H50      1.0000 0.32080  0.37060  0.79530  Biso   1.000  H
  H51      1.0000 0.82080  0.12940  0.79530  Biso   1.000  H
  H52      1.0000 0.17920  0.87060  0.29530  Biso   1.000  H
  C65      1.0000 0.70960  0.75420  0.32470  Biso   1.000  C
  C66      1.0000 0.29040  0.24580  0.82470  Biso   1.000  C
  C67      1.0000 0.79040  0.25420  0.82470  Biso   1.000  C
  C68      1.0000 0.20960  0.74580  0.32470  Biso   1.000  C
  H53      1.0000 0.65010  0.77920  0.29020  Biso   1.000  H
  H54      1.0000 0.34990  0.22080  0.79020  Biso   1.000  H
  H55      1.0000 0.84990  0.27920  0.79020  Biso   1.000  H
  H56      1.0000 0.15010  0.72080  0.29020  Biso   1.000  H
  Br5      1.0000 0.57160  0.47800  0.44020  Biso   1.000  Br
  Br6      1.0000 0.42840  0.52200  0.94020  Biso   1.000  Br
  Br7      1.0000 0.92840  0.97800  0.94020  Biso   1.000  Br
  Br8      1.0000 0.07160  0.02200  0.44020  Biso   1.000  Br
  N25      1.0000 0.98900  0.47400  0.47760  Biso   1.000  N
  N26      1.0000 0.01100  0.52600  0.97760  Biso   1.000  N
  N27      1.0000 0.51100  0.97400  0.97760  Biso   1.000  N
  N28      1.0000 0.48900  0.02600  0.47760  Biso   1.000  N
  C69      1.0000 0.09800  0.45600  0.50640  Biso   1.000  C
  C70      1.0000 0.90200  0.54400  0.00640  Biso   1.000  C
  C71      1.0000 0.40200  0.95600  0.00640  Biso   1.000  C
  C72      1.0000 0.59800  0.04400  0.50640  Biso   1.000  C
  C73      1.0000 0.20100  0.41400  0.56200  Biso   1.000  C
  C74      1.0000 0.79900  0.58600  0.06200  Biso   1.000  C
  C75      1.0000 0.29900  0.91400  0.06200  Biso   1.000  C
  C76      1.0000 0.70100  0.08600  0.56200  Biso   1.000  C
  H57      1.0000 0.26740  0.45770  0.58140  Biso   1.000  H
  H58      1.0000 0.73260  0.54230  0.08140  Biso   1.000  H
  H59      1.0000 0.23260  0.95770  0.08140  Biso   1.000  H
  H60      1.0000 0.76740  0.04230  0.58140  Biso   1.000  H
  H61      1.0000 0.26430  0.36900  0.54210  Biso   1.000  H
  H62      1.0000 0.73570  0.63100  0.04210  Biso   1.000  H
  H63      1.0000 0.23570  0.86900  0.04210  Biso   1.000  H
  H64      1.0000 0.76430  0.13100  0.54210  Biso   1.000  H
  H65      1.0000 0.13400  0.38960  0.59610  Biso   1.000  H
  H66      1.0000 0.86600  0.61040  0.09610  Biso   1.000  H
  H67      1.0000 0.36600  0.88960  0.09610  Biso   1.000  H
  H68      1.0000 0.63400  0.11040  0.59610  Biso   1.000  H
  Br9      1.0000 0.73440  0.49600  0.48730  Biso   1.000  Br
  Br10     1.0000 0.26560  0.50400  0.98730  Biso   1.000  Br
  Br11     1.0000 0.76560  0.99600  0.98730  Biso   1.000  Br
  Br12     1.0000 0.23440  0.00400  0.48730  Biso   1.000  Br
  N29      1.0000 0.49900  0.36700  0.68000  Biso   1.000  N
  N30      1.0000 0.50100  0.63300  0.18000  Biso   1.000  N
  N31      1.0000 0.00100  0.86700  0.18000  Biso   1.000  N
  N32      1.0000 0.99900  0.13300  0.68000  Biso   1.000  N
  C77      1.0000 0.60100  0.39700  0.65300  Biso   1.000  C
  C78      1.0000 0.39900  0.60300  0.15300  Biso   1.000  C
  C79      1.0000 0.89900  0.89700  0.15300  Biso   1.000  C
  C80      1.0000 0.10100  0.10300  0.65300  Biso   1.000  C
  C81      1.0000 0.73100  0.45300  0.62300  Biso   1.000  C
  C82      1.0000 0.26900  0.54700  0.12300  Biso   1.000  C
  C83      1.0000 0.76900  0.95300  0.12300  Biso   1.000  C
  C84      1.0000 0.23100  0.04700  0.62300  Biso   1.000  C
  H69      1.0000 0.75420  0.43360  0.57800  Biso   1.000  H
  H70      1.0000 0.24580  0.56640  0.07800  Biso   1.000  H
  H71      1.0000 0.74580  0.93360  0.07800  Biso   1.000  H
  H72      1.0000 0.25420  0.06640  0.57800  Biso   1.000  H
  H73      1.0000 0.82390  0.44890  0.65060  Biso   1.000  H
  H74      1.0000 0.17610  0.55110  0.15060  Biso   1.000  H
  H75      1.0000 0.67610  0.94890  0.15060  Biso   1.000  H
  H76      1.0000 0.32390  0.05110  0.65060  Biso   1.000  H
  H77      1.0000 0.69690  0.51290  0.62150  Biso   1.000  H
  H78      1.0000 0.30310  0.48710  0.12150  Biso   1.000  H
  H79      1.0000 0.80310  0.01290  0.12150  Biso   1.000  H
  H80      1.0000 0.19690  0.98710  0.62150  Biso   1.000  H
