data_image0
_cell_length_a       8.77
_cell_length_b       14.9616
_cell_length_c       20.7948
_cell_angle_alpha    90
_cell_angle_beta     90
_cell_angle_gamma    90

_symmetry_space_group_name_H-M    "P 1"
_symmetry_int_tables_number       1

loop_
  _symmetry_equiv_pos_as_xyz
  'x, y, z'

loop_
  _atom_site_label
  _atom_site_occupancy
  _atom_site_fract_x
  _atom_site_fract_y
  _atom_site_fract_z
  _atom_site_thermal_displace_type
  _atom_site_B_iso_or_equiv
  _atom_site_type_symbol
  Br1      1.0000 0.58987  0.02120  0.43780  Biso   1.000  Br
  Br2      1.0000 0.41013  0.97880  0.93780  Biso   1.000  Br
  Br3      1.0000 0.91013  0.52120  0.93780  Biso   1.000  Br
  Br4      1.0000 0.08987  0.47880  0.43780  Biso   1.000  Br
  Br5      1.0000 0.99975  0.97935  0.28241  Biso   1.000  Br
  Br6      1.0000 0.00025  0.02065  0.78241  Biso   1.000  Br
  Br7      1.0000 0.50025  0.47935  0.78241  Biso   1.000  Br
  Br8      1.0000 0.49975  0.52065  0.28241  Biso   1.000  Br
  C1       1.0000 0.87540  0.19490  0.38510  Biso   1.000  C
  C2       1.0000 0.12460  0.80510  0.88510  Biso   1.000  C
  C3       1.0000 0.62460  0.69490  0.88510  Biso   1.000  C
  C4       1.0000 0.37540  0.30510  0.38510  Biso   1.000  C
  H1       1.0000 0.94500  0.17720  0.41640  Biso   1.000  H
  H2       1.0000 0.05500  0.82280  0.91640  Biso   1.000  H
  H3       1.0000 0.55500  0.67720  0.91640  Biso   1.000  H
  H4       1.0000 0.44500  0.32280  0.41640  Biso   1.000  H
  C5       1.0000 0.85130  0.28630  0.37510  Biso   1.000  C
  C6       1.0000 0.14870  0.71370  0.87510  Biso   1.000  C
  C7       1.0000 0.64870  0.78630  0.87510  Biso   1.000  C
  C8       1.0000 0.35130  0.21370  0.37510  Biso   1.000  C
  H5       1.0000 0.90510  0.32820  0.39920  Biso   1.000  H
  H6       1.0000 0.09490  0.67180  0.89920  Biso   1.000  H
  H7       1.0000 0.59490  0.82820  0.89920  Biso   1.000  H
  H8       1.0000 0.40510  0.17180  0.39920  Biso   1.000  H
  C9       1.0000 0.75110  0.31340  0.33090  Biso   1.000  C
  C10      1.0000 0.24890  0.68660  0.83090  Biso   1.000  C
  C11      1.0000 0.74890  0.81340  0.83090  Biso   1.000  C
  C12      1.0000 0.25110  0.18660  0.33090  Biso   1.000  C
  H9       1.0000 0.73150  0.37400  0.32550  Biso   1.000  H
  H10      1.0000 0.26850  0.62600  0.82550  Biso   1.000  H
  H11      1.0000 0.76850  0.87400  0.82550  Biso   1.000  H
  H12      1.0000 0.23150  0.12600  0.32550  Biso   1.000  H
  C13      1.0000 0.67450  0.24920  0.29200  Biso   1.000  C
  C14      1.0000 0.32550  0.75080  0.79200  Biso   1.000  C
  C15      1.0000 0.82550  0.74920  0.79200  Biso   1.000  C
  C16      1.0000 0.17450  0.25080  0.29200  Biso   1.000  C
  C17      1.0000 0.70640  0.15760  0.30440  Biso   1.000  C
  C18      1.0000 0.29360  0.84240  0.80440  Biso   1.000  C
  C19      1.0000 0.79360  0.65760  0.80440  Biso   1.000  C
  C20      1.0000 0.20640  0.34240  0.30440  Biso   1.000  C
  C21      1.0000 0.62870  0.09220  0.26630  Biso   1.000  C
  C22      1.0000 0.37130  0.90780  0.76630  Biso   1.000  C
  C23      1.0000 0.87130  0.59220  0.76630  Biso   1.000  C
  C24      1.0000 0.12870  0.40780  0.26630  Biso   1.000  C
  H13      1.0000 0.64630  0.03180  0.27360  Biso   1.000  H
  H14      1.0000 0.35370  0.96820  0.77360  Biso   1.000  H
  H15      1.0000 0.85370  0.53180  0.77360  Biso   1.000  H
  H16      1.0000 0.14630  0.46820  0.27360  Biso   1.000  H
  C25      1.0000 0.53110  0.11710  0.22030  Biso   1.000  C
  C26      1.0000 0.46890  0.88290  0.72030  Biso   1.000  C
  C27      1.0000 0.96890  0.61710  0.72030  Biso   1.000  C
  C28      1.0000 0.03110  0.38290  0.22030  Biso   1.000  C
  H17      1.0000 0.48290  0.07340  0.19580  Biso   1.000  H
  H18      1.0000 0.51710  0.92660  0.69580  Biso   1.000  H
  H19      1.0000 0.01710  0.57340  0.69580  Biso   1.000  H
  H20      1.0000 0.98290  0.42660  0.19580  Biso   1.000  H
  C29      1.0000 0.49890  0.20900  0.20770  Biso   1.000  C
  C30      1.0000 0.50110  0.79100  0.70770  Biso   1.000  C
  C31      1.0000 0.00110  0.70900  0.70770  Biso   1.000  C
  C32      1.0000 0.99890  0.29100  0.20770  Biso   1.000  C
  C33      1.0000 0.57090  0.27340  0.24400  Biso   1.000  C
  C34      1.0000 0.42910  0.72660  0.74400  Biso   1.000  C
  C35      1.0000 0.92910  0.77340  0.74400  Biso   1.000  C
  C36      1.0000 0.07090  0.22660  0.24400  Biso   1.000  C
  H21      1.0000 0.55040  0.33340  0.23650  Biso   1.000  H
  H22      1.0000 0.44960  0.66660  0.73650  Biso   1.000  H
  H23      1.0000 0.94960  0.83340  0.73650  Biso   1.000  H
  H24      1.0000 0.05040  0.16660  0.23650  Biso   1.000  H
  C37      1.0000 0.38110  0.22720  0.15710  Biso   1.000  C
  C38      1.0000 0.61890  0.77280  0.65710  Biso   1.000  C
  C39      1.0000 0.11890  0.72720  0.65710  Biso   1.000  C
  C40      1.0000 0.88110  0.27280  0.15710  Biso   1.000  C
  C41      1.0000 0.23040  0.29330  0.08900  Biso   1.000  C
  C42      1.0000 0.76960  0.70670  0.58900  Biso   1.000  C
  C43      1.0000 0.26960  0.79330  0.58900  Biso   1.000  C
  C44      1.0000 0.73040  0.20670  0.08900  Biso   1.000  C
  C45      1.0000 0.02980  0.30690  0.99200  Biso   1.000  C
  C46      1.0000 0.97020  0.69310  0.49200  Biso   1.000  C
  C47      1.0000 0.47020  0.80690  0.49200  Biso   1.000  C
  C48      1.0000 0.52980  0.19310  0.99200  Biso   1.000  C
  H25      1.0000 0.98160  0.26080  0.01770  Biso   1.000  H
  H26      1.0000 0.01840  0.73920  0.51770  Biso   1.000  H
  H27      1.0000 0.51840  0.76080  0.51770  Biso   1.000  H
  H28      1.0000 0.48160  0.23920  0.01770  Biso   1.000  H
  H29      1.0000 0.95000  0.34310  0.97290  Biso   1.000  H
  H30      1.0000 0.05000  0.65690  0.47290  Biso   1.000  H
  H31      1.0000 0.55000  0.84310  0.47290  Biso   1.000  H
  H32      1.0000 0.45000  0.15690  0.97290  Biso   1.000  H
  C49      1.0000 0.12020  0.26450  0.94030  Biso   1.000  C
  C50      1.0000 0.87980  0.73550  0.44030  Biso   1.000  C
  C51      1.0000 0.37980  0.76450  0.44030  Biso   1.000  C
  C52      1.0000 0.62020  0.23550  0.94030  Biso   1.000  C
  C53      1.0000 0.20520  0.31250  0.89590  Biso   1.000  C
  C54      1.0000 0.79480  0.68750  0.39590  Biso   1.000  C
  C55      1.0000 0.29480  0.81250  0.39590  Biso   1.000  C
  C56      1.0000 0.70520  0.18750  0.89590  Biso   1.000  C
  H33      1.0000 0.21270  0.37430  0.89950  Biso   1.000  H
  H34      1.0000 0.78730  0.62570  0.39950  Biso   1.000  H
  H35      1.0000 0.28730  0.87430  0.39950  Biso   1.000  H
  H36      1.0000 0.71270  0.12570  0.89950  Biso   1.000  H
  C57      1.0000 0.27900  0.26840  0.84630  Biso   1.000  C
  C58      1.0000 0.72100  0.73160  0.34630  Biso   1.000  C
  C59      1.0000 0.22100  0.76840  0.34630  Biso   1.000  C
  C60      1.0000 0.77900  0.23160  0.84630  Biso   1.000  C
  H37      1.0000 0.33560  0.30030  0.81630  Biso   1.000  H
  H38      1.0000 0.66440  0.69970  0.31630  Biso   1.000  H
  H39      1.0000 0.16440  0.80030  0.31630  Biso   1.000  H
  H40      1.0000 0.83560  0.19970  0.81630  Biso   1.000  H
  C61      1.0000 0.26780  0.17810  0.84200  Biso   1.000  C
  C62      1.0000 0.73220  0.82190  0.34200  Biso   1.000  C
  C63      1.0000 0.23220  0.67810  0.34200  Biso   1.000  C
  C64      1.0000 0.76780  0.32190  0.84200  Biso   1.000  C
  H41      1.0000 0.31550  0.14890  0.80800  Biso   1.000  H
  H42      1.0000 0.68450  0.85110  0.30800  Biso   1.000  H
  H43      1.0000 0.18450  0.64890  0.30800  Biso   1.000  H
  H44      1.0000 0.81550  0.35110  0.80800  Biso   1.000  H
  C65      1.0000 0.11500  0.17170  0.93300  Biso   1.000  C
  C66      1.0000 0.88500  0.82830  0.43300  Biso   1.000  C
  C67      1.0000 0.38500  0.67170  0.43300  Biso   1.000  C
  C68      1.0000 0.61500  0.32830  0.93300  Biso   1.000  C
  H45      1.0000 0.05820  0.13830  0.96210  Biso   1.000  H
  H46      1.0000 0.94180  0.86170  0.46210  Biso   1.000  H
  H47      1.0000 0.44180  0.63830  0.46210  Biso   1.000  H
  H48      1.0000 0.55820  0.36170  0.96210  Biso   1.000  H
  C69      1.0000 0.98000  0.04200  0.50610  Biso   1.000  C
  C70      1.0000 0.02000  0.95800  0.00610  Biso   1.000  C
  C71      1.0000 0.52000  0.54200  0.00610  Biso   1.000  C
  C72      1.0000 0.48000  0.45800  0.50610  Biso   1.000  C
  H49      1.0000 0.89520  0.01800  0.52640  Biso   1.000  H
  H50      1.0000 0.10480  0.98200  0.02640  Biso   1.000  H
  H51      1.0000 0.60480  0.51800  0.02640  Biso   1.000  H
  H52      1.0000 0.39520  0.48200  0.52640  Biso   1.000  H
  C73      1.0000 0.23200  0.12170  0.52100  Biso   1.000  C
  C74      1.0000 0.76800  0.87830  0.02100  Biso   1.000  C
  C75      1.0000 0.26800  0.62170  0.02100  Biso   1.000  C
  C76      1.0000 0.73200  0.37830  0.52100  Biso   1.000  C
  H53      1.0000 0.25930  0.08710  0.48390  Biso   1.000  H
  H54      1.0000 0.74070  0.91290  0.98390  Biso   1.000  H
  H55      1.0000 0.24070  0.58710  0.98390  Biso   1.000  H
  H56      1.0000 0.75930  0.41290  0.48390  Biso   1.000  H
  H57      1.0000 0.30520  0.11220  0.55450  Biso   1.000  H
  H58      1.0000 0.69480  0.88780  0.05450  Biso   1.000  H
  H59      1.0000 0.19480  0.61220  0.05450  Biso   1.000  H
  H60      1.0000 0.80520  0.38780  0.55450  Biso   1.000  H
  H61      1.0000 0.22940  0.18390  0.50980  Biso   1.000  H
  H62      1.0000 0.77060  0.81610  0.00980  Biso   1.000  H
  H63      1.0000 0.27060  0.68390  0.00980  Biso   1.000  H
  H64      1.0000 0.72940  0.31610  0.50980  Biso   1.000  H
  C77      1.0000 0.02900  0.10780  0.61200  Biso   1.000  C
  C78      1.0000 0.97100  0.89220  0.11200  Biso   1.000  C
  C79      1.0000 0.47100  0.60780  0.11200  Biso   1.000  C
  C80      1.0000 0.52900  0.39220  0.61200  Biso   1.000  C
  H65      1.0000 0.93110  0.08070  0.61920  Biso   1.000  H
  H66      1.0000 0.06890  0.91930  0.11920  Biso   1.000  H
  H67      1.0000 0.56890  0.58070  0.11920  Biso   1.000  H
  H68      1.0000 0.43110  0.41930  0.61920  Biso   1.000  H
  H69      1.0000 0.02220  0.17080  0.62030  Biso   1.000  H
  H70      1.0000 0.97780  0.82920  0.12030  Biso   1.000  H
  H71      1.0000 0.47780  0.67080  0.12030  Biso   1.000  H
  H72      1.0000 0.52220  0.32920  0.62030  Biso   1.000  H
  H73      1.0000 0.10270  0.08150  0.64020  Biso   1.000  H
  H74      1.0000 0.89730  0.91850  0.14020  Biso   1.000  H
  H75      1.0000 0.39730  0.58150  0.14020  Biso   1.000  H
  H76      1.0000 0.60270  0.41850  0.64020  Biso   1.000  H
  Cu1      1.0000 0.82606  0.00289  0.37423  Biso   1.000  Cu
  Cu2      1.0000 0.17394  0.99711  0.87423  Biso   1.000  Cu
  Cu3      1.0000 0.67394  0.50289  0.87423  Biso   1.000  Cu
  Cu4      1.0000 0.32606  0.49711  0.37423  Biso   1.000  Cu
  N1       1.0000 0.80270  0.13270  0.35180  Biso   1.000  N
  N2       1.0000 0.19730  0.86730  0.85180  Biso   1.000  N
  N3       1.0000 0.69730  0.63270  0.85180  Biso   1.000  N
  N4       1.0000 0.30270  0.36730  0.35180  Biso   1.000  N
  N5       1.0000 0.29520  0.16590  0.13240  Biso   1.000  N
  N6       1.0000 0.70480  0.83410  0.63240  Biso   1.000  N
  N7       1.0000 0.20480  0.66590  0.63240  Biso   1.000  N
  N8       1.0000 0.79520  0.33410  0.13240  Biso   1.000  N
  N9       1.0000 0.19670  0.20620  0.08870  Biso   1.000  N
  N10      1.0000 0.80330  0.79380  0.58870  Biso   1.000  N
  N11      1.0000 0.30330  0.70620  0.58870  Biso   1.000  N
  N12      1.0000 0.69670  0.29380  0.08870  Biso   1.000  N
  N13      1.0000 0.34560  0.30940  0.13150  Biso   1.000  N
  N14      1.0000 0.65440  0.69060  0.63150  Biso   1.000  N
  N15      1.0000 0.15440  0.80940  0.63150  Biso   1.000  N
  N16      1.0000 0.84560  0.19060  0.13150  Biso   1.000  N
  N17      1.0000 0.40970  0.39450  0.13620  Biso   1.000  N
  N18      1.0000 0.59030  0.60550  0.63620  Biso   1.000  N
  N19      1.0000 0.09030  0.89450  0.63620  Biso   1.000  N
  N20      1.0000 0.90970  0.10550  0.13620  Biso   1.000  N
  H77      1.0000 0.40490  0.41470  0.17600  Biso   1.000  H
  H78      1.0000 0.59510  0.58530  0.67600  Biso   1.000  H
  H79      1.0000 0.09510  0.91470  0.67600  Biso   1.000  H
  H80      1.0000 0.90490  0.08530  0.17600  Biso   1.000  H
  H81      1.0000 0.50680  0.39320  0.12550  Biso   1.000  H
  H82      1.0000 0.49320  0.60680  0.62550  Biso   1.000  H
  H83      1.0000 0.99320  0.89320  0.62550  Biso   1.000  H
  H84      1.0000 0.00680  0.10680  0.12550  Biso   1.000  H
  N21      1.0000 0.18900  0.12920  0.88580  Biso   1.000  N
  N22      1.0000 0.81100  0.87080  0.38580  Biso   1.000  N
  N23      1.0000 0.31100  0.62920  0.38580  Biso   1.000  N
  N24      1.0000 0.68900  0.37080  0.88580  Biso   1.000  N
  N25      1.0000 0.07500  0.09310  0.54430  Biso   1.000  N
  N26      1.0000 0.92500  0.90690  0.04430  Biso   1.000  N
  N27      1.0000 0.42500  0.59310  0.04430  Biso   1.000  N
  N28      1.0000 0.57500  0.40690  0.54430  Biso   1.000  N
  O1       1.0000 0.99350  0.02520  0.45180  Biso   1.000  O
  O2       1.0000 0.00650  0.97480  0.95180  Biso   1.000  O
  O3       1.0000 0.50650  0.52520  0.95180  Biso   1.000  O
  O4       1.0000 0.49350  0.47480  0.45180  Biso   1.000  O
  S1       1.0000 0.14910  0.37770  0.04433  Biso   1.000  S
  S2       1.0000 0.85090  0.62230  0.54433  Biso   1.000  S
  S3       1.0000 0.35090  0.87770  0.54433  Biso   1.000  S
  S4       1.0000 0.64910  0.12230  0.04433  Biso   1.000  S
  C81      1.0000 0.60900  0.08700  0.62520  Biso   1.000  C
  C82      1.0000 0.39100  0.91300  0.12520  Biso   1.000  C
  C83      1.0000 0.89100  0.58700  0.12520  Biso   1.000  C
  C84      1.0000 0.10900  0.41300  0.62520  Biso   1.000  C
  H85      1.0000 0.69590  0.04720  0.62420  Biso   1.000  H
  H86      1.0000 0.30410  0.95280  0.12420  Biso   1.000  H
  H87      1.0000 0.80410  0.54720  0.12420  Biso   1.000  H
  H88      1.0000 0.19590  0.45280  0.62420  Biso   1.000  H
  H89      1.0000 0.51660  0.05160  0.62040  Biso   1.000  H
  H90      1.0000 0.48340  0.94840  0.12040  Biso   1.000  H
  H91      1.0000 0.98340  0.55160  0.12040  Biso   1.000  H
  H92      1.0000 0.01660  0.44840  0.62040  Biso   1.000  H
  C85      1.0000 0.60500  0.13900  0.68870  Biso   1.000  C
  C86      1.0000 0.39500  0.86100  0.18870  Biso   1.000  C
  C87      1.0000 0.89500  0.63900  0.18870  Biso   1.000  C
  C88      1.0000 0.10500  0.36100  0.68870  Biso   1.000  C
  H93      1.0000 0.67260  0.18930  0.68590  Biso   1.000  H
  H94      1.0000 0.32740  0.81070  0.18590  Biso   1.000  H
  H95      1.0000 0.82740  0.68930  0.18590  Biso   1.000  H
  H96      1.0000 0.17260  0.31070  0.68590  Biso   1.000  H
  H97      1.0000 0.63680  0.10060  0.72320  Biso   1.000  H
  H98      1.0000 0.36320  0.89940  0.22320  Biso   1.000  H
  H99      1.0000 0.86320  0.60060  0.22320  Biso   1.000  H
  H100     1.0000 0.13680  0.39940  0.72320  Biso   1.000  H
  H101     1.0000 0.50310  0.15970  0.69680  Biso   1.000  H
  H102     1.0000 0.49690  0.84030  0.19680  Biso   1.000  H
  H103     1.0000 0.99690  0.65970  0.19680  Biso   1.000  H
  H104     1.0000 0.00310  0.34030  0.69680  Biso   1.000  H
  O5       1.0000 0.61900  0.15030  0.57580  Biso   1.000  O
  O6       1.0000 0.38100  0.84970  0.07580  Biso   1.000  O
  O7       1.0000 0.88100  0.65030  0.07580  Biso   1.000  O
  O8       1.0000 0.11900  0.34970  0.57580  Biso   1.000  O
  H105     1.0000 0.62140  0.12470  0.54100  Biso   1.000  H
  H106     1.0000 0.37860  0.87530  0.04100  Biso   1.000  H
  H107     1.0000 0.87860  0.62470  0.04100  Biso   1.000  H
  H108     1.0000 0.12140  0.37530  0.54100  Biso   1.000  H
