data_image0
_cell_length_a       15.4342
_cell_length_b       7.0155
_cell_length_c       17.6296
_cell_angle_alpha    90
_cell_angle_beta     90
_cell_angle_gamma    90

_symmetry_space_group_name_H-M    "P 1"
_symmetry_int_tables_number       1

loop_
  _symmetry_equiv_pos_as_xyz
  'x, y, z'

loop_
  _atom_site_label
  _atom_site_occupancy
  _atom_site_fract_x
  _atom_site_fract_y
  _atom_site_fract_z
  _atom_site_thermal_displace_type
  _atom_site_B_iso_or_equiv
  _atom_site_type_symbol
  Cu1      1.0000 0.81943  0.06995  0.69603  Biso   1.000  Cu
  Cu2      1.0000 0.68057  0.93005  0.19603  Biso   1.000  Cu
  Cu3      1.0000 0.31943  0.43005  0.30397  Biso   1.000  Cu
  Cu4      1.0000 0.18057  0.56995  0.80397  Biso   1.000  Cu
  Cu5      1.0000 0.18057  0.93005  0.30397  Biso   1.000  Cu
  Cu6      1.0000 0.31943  0.06995  0.80397  Biso   1.000  Cu
  Cu7      1.0000 0.68057  0.56995  0.69603  Biso   1.000  Cu
  Cu8      1.0000 0.81943  0.43005  0.19603  Biso   1.000  Cu
  C1       1.0000 0.92830  0.11890  0.83710  Biso   1.000  C
  C2       1.0000 0.57170  0.88110  0.33710  Biso   1.000  C
  C3       1.0000 0.42830  0.38110  0.16290  Biso   1.000  C
  C4       1.0000 0.07170  0.61890  0.66290  Biso   1.000  C
  C5       1.0000 0.07170  0.88110  0.16290  Biso   1.000  C
  C6       1.0000 0.42830  0.11890  0.66290  Biso   1.000  C
  C7       1.0000 0.57170  0.61890  0.83710  Biso   1.000  C
  C8       1.0000 0.92830  0.38110  0.33710  Biso   1.000  C
  H1       1.0000 0.95020  0.23500  0.82030  Biso   1.000  H
  H2       1.0000 0.54980  0.76500  0.32030  Biso   1.000  H
  H3       1.0000 0.45020  0.26500  0.17970  Biso   1.000  H
  H4       1.0000 0.04980  0.73500  0.67970  Biso   1.000  H
  H5       1.0000 0.04980  0.76500  0.17970  Biso   1.000  H
  H6       1.0000 0.45020  0.23500  0.67970  Biso   1.000  H
  H7       1.0000 0.54980  0.73500  0.82030  Biso   1.000  H
  H8       1.0000 0.95020  0.26500  0.32030  Biso   1.000  H
  C9       1.0000 0.85910  0.86000  0.83810  Biso   1.000  C
  C10      1.0000 0.64090  0.14000  0.33810  Biso   1.000  C
  C11      1.0000 0.35910  0.64000  0.16190  Biso   1.000  C
  C12      1.0000 0.14090  0.36000  0.66190  Biso   1.000  C
  C13      1.0000 0.14090  0.14000  0.16190  Biso   1.000  C
  C14      1.0000 0.35910  0.86000  0.66190  Biso   1.000  C
  C15      1.0000 0.64090  0.36000  0.83810  Biso   1.000  C
  C16      1.0000 0.85910  0.64000  0.33810  Biso   1.000  C
  H9       1.0000 0.82380  0.75740  0.82540  Biso   1.000  H
  H10      1.0000 0.67620  0.24260  0.32540  Biso   1.000  H
  H11      1.0000 0.32380  0.74260  0.17460  Biso   1.000  H
  H12      1.0000 0.17620  0.25740  0.67460  Biso   1.000  H
  H13      1.0000 0.17620  0.24260  0.17460  Biso   1.000  H
  H14      1.0000 0.32380  0.75740  0.67460  Biso   1.000  H
  H15      1.0000 0.67620  0.25740  0.82540  Biso   1.000  H
  H16      1.0000 0.82380  0.74260  0.32540  Biso   1.000  H
  C17      1.0000 0.90440  0.74760  0.96600  Biso   1.000  C
  C18      1.0000 0.59560  0.25240  0.46600  Biso   1.000  C
  C19      1.0000 0.40440  0.75240  0.03400  Biso   1.000  C
  C20      1.0000 0.09560  0.24760  0.53400  Biso   1.000  C
  C21      1.0000 0.09560  0.25240  0.03400  Biso   1.000  C
  C22      1.0000 0.40440  0.74760  0.53400  Biso   1.000  C
  C23      1.0000 0.59560  0.24760  0.96600  Biso   1.000  C
  C24      1.0000 0.90440  0.75240  0.46600  Biso   1.000  C
  H17      1.0000 0.95500  0.77170  0.99730  Biso   1.000  H
  H18      1.0000 0.54500  0.22830  0.49730  Biso   1.000  H
  H19      1.0000 0.45500  0.72830  0.00270  Biso   1.000  H
  H20      1.0000 0.04500  0.27170  0.50270  Biso   1.000  H
  H21      1.0000 0.04500  0.22830  0.00270  Biso   1.000  H
  H22      1.0000 0.45500  0.77170  0.50270  Biso   1.000  H
  H23      1.0000 0.54500  0.27170  0.99730  Biso   1.000  H
  H24      1.0000 0.95500  0.72830  0.49730  Biso   1.000  H
  H25      1.0000 0.90720  0.61670  0.94840  Biso   1.000  H
  H26      1.0000 0.59280  0.38330  0.44840  Biso   1.000  H
  H27      1.0000 0.40720  0.88330  0.05160  Biso   1.000  H
  H28      1.0000 0.09280  0.11670  0.55160  Biso   1.000  H
  H29      1.0000 0.09280  0.38330  0.05160  Biso   1.000  H
  H30      1.0000 0.40720  0.61670  0.55160  Biso   1.000  H
  H31      1.0000 0.59280  0.11670  0.94840  Biso   1.000  H
  H32      1.0000 0.90720  0.88330  0.44840  Biso   1.000  H
  C25      1.0000 0.81730  0.84930  0.08020  Biso   1.000  C
  C26      1.0000 0.68270  0.15070  0.58020  Biso   1.000  C
  C27      1.0000 0.31730  0.65070  0.91980  Biso   1.000  C
  C28      1.0000 0.18270  0.34930  0.41980  Biso   1.000  C
  C29      1.0000 0.18270  0.15070  0.91980  Biso   1.000  C
  C30      1.0000 0.31730  0.84930  0.41980  Biso   1.000  C
  C31      1.0000 0.68270  0.34930  0.08020  Biso   1.000  C
  C32      1.0000 0.81730  0.65070  0.58020  Biso   1.000  C
  H33      1.0000 0.86250  0.89040  0.11110  Biso   1.000  H
  H34      1.0000 0.63750  0.10960  0.61110  Biso   1.000  H
  H35      1.0000 0.36250  0.60960  0.88890  Biso   1.000  H
  H36      1.0000 0.13750  0.39040  0.38890  Biso   1.000  H
  H37      1.0000 0.13750  0.10960  0.88890  Biso   1.000  H
  H38      1.0000 0.36250  0.89040  0.38890  Biso   1.000  H
  H39      1.0000 0.63750  0.39040  0.11110  Biso   1.000  H
  H40      1.0000 0.86250  0.60960  0.61110  Biso   1.000  H
  C33      1.0000 0.69490  0.78280  0.03500  Biso   1.000  C
  C34      1.0000 0.80510  0.21720  0.53500  Biso   1.000  C
  C35      1.0000 0.19490  0.71720  0.96500  Biso   1.000  C
  C36      1.0000 0.30510  0.28280  0.46500  Biso   1.000  C
  C37      1.0000 0.30510  0.21720  0.96500  Biso   1.000  C
  C38      1.0000 0.19490  0.78280  0.46500  Biso   1.000  C
  C39      1.0000 0.80510  0.28280  0.03500  Biso   1.000  C
  C40      1.0000 0.69490  0.71720  0.53500  Biso   1.000  C
  H41      1.0000 0.63500  0.77060  0.03120  Biso   1.000  H
  H42      1.0000 0.86500  0.22940  0.53120  Biso   1.000  H
  H43      1.0000 0.13500  0.72940  0.96880  Biso   1.000  H
  H44      1.0000 0.36500  0.27060  0.46880  Biso   1.000  H
  H45      1.0000 0.36500  0.22940  0.96880  Biso   1.000  H
  H46      1.0000 0.13500  0.77060  0.46880  Biso   1.000  H
  H47      1.0000 0.86500  0.27060  0.03120  Biso   1.000  H
  H48      1.0000 0.63500  0.72940  0.53120  Biso   1.000  H
  Cl1      1.0000 0.95009  0.02874  0.63791  Biso   1.000  Cl
  Cl2      1.0000 0.54991  0.97126  0.13791  Biso   1.000  Cl
  Cl3      1.0000 0.45009  0.47126  0.36209  Biso   1.000  Cl
  Cl4      1.0000 0.04991  0.52874  0.86209  Biso   1.000  Cl
  Cl5      1.0000 0.04991  0.97126  0.36209  Biso   1.000  Cl
  Cl6      1.0000 0.45009  0.02874  0.86209  Biso   1.000  Cl
  Cl7      1.0000 0.54991  0.52874  0.63791  Biso   1.000  Cl
  Cl8      1.0000 0.95009  0.47126  0.13791  Biso   1.000  Cl
  Cl9      1.0000 0.68924  0.93613  0.73715  Biso   1.000  Cl
  Cl10     1.0000 0.81076  0.06387  0.23715  Biso   1.000  Cl
  Cl11     1.0000 0.18924  0.56387  0.26285  Biso   1.000  Cl
  Cl12     1.0000 0.31076  0.43613  0.76285  Biso   1.000  Cl
  Cl13     1.0000 0.31076  0.06387  0.26285  Biso   1.000  Cl
  Cl14     1.0000 0.18924  0.93613  0.76285  Biso   1.000  Cl
  Cl15     1.0000 0.81076  0.43613  0.73715  Biso   1.000  Cl
  Cl16     1.0000 0.68924  0.56387  0.23715  Biso   1.000  Cl
  N1       1.0000 0.87150  0.01240  0.79580  Biso   1.000  N
  N2       1.0000 0.62850  0.98760  0.29580  Biso   1.000  N
  N3       1.0000 0.37150  0.48760  0.20420  Biso   1.000  N
  N4       1.0000 0.12850  0.51240  0.70420  Biso   1.000  N
  N5       1.0000 0.12850  0.98760  0.20420  Biso   1.000  N
  N6       1.0000 0.37150  0.01240  0.70420  Biso   1.000  N
  N7       1.0000 0.62850  0.51240  0.79580  Biso   1.000  N
  N8       1.0000 0.87150  0.48760  0.29580  Biso   1.000  N
  N9       1.0000 0.94950  0.04340  0.90269  Biso   1.000  N
  N10      1.0000 0.55050  0.95660  0.40269  Biso   1.000  N
  N11      1.0000 0.44950  0.45660  0.09731  Biso   1.000  N
  N12      1.0000 0.05050  0.54340  0.59731  Biso   1.000  N
  N13      1.0000 0.05050  0.95660  0.09731  Biso   1.000  N
  N14      1.0000 0.44950  0.04340  0.59731  Biso   1.000  N
  N15      1.0000 0.55050  0.54340  0.90269  Biso   1.000  N
  N16      1.0000 0.94950  0.45660  0.40269  Biso   1.000  N
  N17      1.0000 0.90460  0.87540  0.90173  Biso   1.000  N
  N18      1.0000 0.59540  0.12460  0.40173  Biso   1.000  N
  N19      1.0000 0.40460  0.62460  0.09827  Biso   1.000  N
  N20      1.0000 0.09540  0.37540  0.59827  Biso   1.000  N
  N21      1.0000 0.09540  0.12460  0.09827  Biso   1.000  N
  N22      1.0000 0.40460  0.87540  0.59827  Biso   1.000  N
  N23      1.0000 0.59540  0.37540  0.90173  Biso   1.000  N
  N24      1.0000 0.90460  0.62460  0.40173  Biso   1.000  N
  N25      1.0000 0.82660  0.77460  0.01074  Biso   1.000  N
  N26      1.0000 0.67340  0.22540  0.51074  Biso   1.000  N
  N27      1.0000 0.32660  0.72540  0.98926  Biso   1.000  N
  N28      1.0000 0.17340  0.27460  0.48926  Biso   1.000  N
  N29      1.0000 0.17340  0.22540  0.98926  Biso   1.000  N
  N30      1.0000 0.32660  0.77460  0.48926  Biso   1.000  N
  N31      1.0000 0.67340  0.27460  0.01074  Biso   1.000  N
  N32      1.0000 0.82660  0.72540  0.51074  Biso   1.000  N
  N33      1.0000 0.74760  0.73170  0.98043  Biso   1.000  N
  N34      1.0000 0.75240  0.26830  0.48043  Biso   1.000  N
  N35      1.0000 0.24760  0.76830  0.01957  Biso   1.000  N
  N36      1.0000 0.25240  0.23170  0.51957  Biso   1.000  N
  N37      1.0000 0.25240  0.26830  0.01957  Biso   1.000  N
  N38      1.0000 0.24760  0.73170  0.51957  Biso   1.000  N
  N39      1.0000 0.75240  0.23170  0.98043  Biso   1.000  N
  N40      1.0000 0.74760  0.76830  0.48043  Biso   1.000  N
  N41      1.0000 0.73470  0.85550  0.09795  Biso   1.000  N
  N42      1.0000 0.76530  0.14450  0.59795  Biso   1.000  N
  N43      1.0000 0.23470  0.64450  0.90205  Biso   1.000  N
  N44      1.0000 0.26530  0.35550  0.40205  Biso   1.000  N
  N45      1.0000 0.26530  0.14450  0.90205  Biso   1.000  N
  N46      1.0000 0.23470  0.85550  0.40205  Biso   1.000  N
  N47      1.0000 0.76530  0.35550  0.09795  Biso   1.000  N
  N48      1.0000 0.73470  0.64450  0.59795  Biso   1.000  N
