data_image0
_cell_length_a       8.1157
_cell_length_b       13.8441
_cell_length_c       7.6095
_cell_angle_alpha    90
_cell_angle_beta     100.066
_cell_angle_gamma    90

_symmetry_space_group_name_H-M    "P 1"
_symmetry_int_tables_number       1

loop_
  _symmetry_equiv_pos_as_xyz
  'x, y, z'

loop_
  _atom_site_label
  _atom_site_occupancy
  _atom_site_fract_x
  _atom_site_fract_y
  _atom_site_fract_z
  _atom_site_thermal_displace_type
  _atom_site_B_iso_or_equiv
  _atom_site_type_symbol
  Cu1      1.0000 0.00000  0.00000  0.00000  Biso   1.000  Cu
  Cu2      1.0000 0.00000  0.50000  0.50000  Biso   1.000  Cu
  C1       1.0000 0.29850  0.08090  0.23780  Biso   1.000  C
  C2       1.0000 0.70150  0.58090  0.26220  Biso   1.000  C
  C3       1.0000 0.70150  0.91910  0.76220  Biso   1.000  C
  C4       1.0000 0.29850  0.41910  0.73780  Biso   1.000  C
  H1       1.0000 0.31780  0.02210  0.29710  Biso   1.000  H
  H2       1.0000 0.68220  0.52210  0.20290  Biso   1.000  H
  H3       1.0000 0.68220  0.97790  0.70290  Biso   1.000  H
  H4       1.0000 0.31780  0.47790  0.79710  Biso   1.000  H
  C5       1.0000 0.19480  0.19370  0.06760  Biso   1.000  C
  C6       1.0000 0.80520  0.69370  0.43240  Biso   1.000  C
  C7       1.0000 0.80520  0.80630  0.93240  Biso   1.000  C
  C8       1.0000 0.19480  0.30630  0.56760  Biso   1.000  C
  H5       1.0000 0.12110  0.22750  0.98200  Biso   1.000  H
  H6       1.0000 0.87890  0.72750  0.51800  Biso   1.000  H
  H7       1.0000 0.87890  0.77250  0.01800  Biso   1.000  H
  H8       1.0000 0.12110  0.27250  0.48200  Biso   1.000  H
  C9       1.0000 0.56130  0.16540  0.38130  Biso   1.000  C
  C10      1.0000 0.43870  0.66540  0.11870  Biso   1.000  C
  C11      1.0000 0.43870  0.83460  0.61870  Biso   1.000  C
  C12      1.0000 0.56130  0.33460  0.88130  Biso   1.000  C
  H9       1.0000 0.60370  0.23080  0.37830  Biso   1.000  H
  H10      1.0000 0.39630  0.73080  0.12170  Biso   1.000  H
  H11      1.0000 0.39630  0.76920  0.62170  Biso   1.000  H
  H12      1.0000 0.60370  0.26920  0.87830  Biso   1.000  H
  H13      1.0000 0.55030  0.15060  0.50330  Biso   1.000  H
  H14      1.0000 0.44970  0.65060  0.99670  Biso   1.000  H
  H15      1.0000 0.44970  0.84940  0.49670  Biso   1.000  H
  H16      1.0000 0.55030  0.34940  0.00330  Biso   1.000  H
  C13      1.0000 0.78420  0.11220  0.21020  Biso   1.000  C
  C14      1.0000 0.21580  0.61220  0.28980  Biso   1.000  C
  C15      1.0000 0.21580  0.88780  0.78980  Biso   1.000  C
  C16      1.0000 0.78420  0.38780  0.71020  Biso   1.000  C
  H17      1.0000 0.80740  0.17130  0.16180  Biso   1.000  H
  H18      1.0000 0.19260  0.67130  0.33820  Biso   1.000  H
  H19      1.0000 0.19260  0.82870  0.83820  Biso   1.000  H
  H20      1.0000 0.80740  0.32870  0.66180  Biso   1.000  H
  C17      1.0000 0.78020  0.96470  0.27860  Biso   1.000  C
  C18      1.0000 0.21980  0.46470  0.22140  Biso   1.000  C
  C19      1.0000 0.21980  0.03530  0.72140  Biso   1.000  C
  C20      1.0000 0.78020  0.53530  0.77860  Biso   1.000  C
  H21      1.0000 0.80610  0.89920  0.28370  Biso   1.000  H
  H22      1.0000 0.19390  0.39920  0.21630  Biso   1.000  H
  H23      1.0000 0.19390  0.10080  0.71630  Biso   1.000  H
  H24      1.0000 0.80610  0.60080  0.78370  Biso   1.000  H
  N1       1.0000 0.16870  0.10076  0.11330  Biso   1.000  N
  N2       1.0000 0.83130  0.60076  0.38670  Biso   1.000  N
  N3       1.0000 0.83130  0.89924  0.88670  Biso   1.000  N
  N4       1.0000 0.16870  0.39924  0.61330  Biso   1.000  N
  N5       1.0000 0.33400  0.23153  0.15540  Biso   1.000  N
  N6       1.0000 0.66600  0.73153  0.34460  Biso   1.000  N
  N7       1.0000 0.66600  0.76847  0.84460  Biso   1.000  N
  N8       1.0000 0.33400  0.26847  0.65540  Biso   1.000  N
  N9       1.0000 0.39840  0.15824  0.26590  Biso   1.000  N
  N10      1.0000 0.60160  0.65824  0.23410  Biso   1.000  N
  N11      1.0000 0.60160  0.84176  0.73410  Biso   1.000  N
  N12      1.0000 0.39840  0.34176  0.76590  Biso   1.000  N
  N13      1.0000 0.67710  0.09845  0.32160  Biso   1.000  N
  N14      1.0000 0.32290  0.59845  0.17840  Biso   1.000  N
  N15      1.0000 0.32290  0.90155  0.67840  Biso   1.000  N
  N16      1.0000 0.67710  0.40155  0.82160  Biso   1.000  N
  N17      1.0000 0.85230  0.02867  0.17940  Biso   1.000  N
  N18      1.0000 0.14770  0.52867  0.32060  Biso   1.000  N
  N19      1.0000 0.14770  0.97133  0.82060  Biso   1.000  N
  N20      1.0000 0.85230  0.47133  0.67940  Biso   1.000  N
  N21      1.0000 0.67170  0.00289  0.36610  Biso   1.000  N
  N22      1.0000 0.32830  0.50289  0.13390  Biso   1.000  N
  N23      1.0000 0.32830  0.99711  0.63390  Biso   1.000  N
  N24      1.0000 0.67170  0.49711  0.86610  Biso   1.000  N
  Cl1      1.0000 0.15729  0.85537  0.22066  Biso   1.000  Cl
  Cl2      1.0000 0.84271  0.35537  0.27934  Biso   1.000  Cl
  Cl3      1.0000 0.84271  0.14463  0.77934  Biso   1.000  Cl
  Cl4      1.0000 0.15729  0.64463  0.72066  Biso   1.000  Cl
