data_image0
_cell_length_a       12.383
_cell_length_b       7.286
_cell_length_c       12.981
_cell_angle_alpha    90
_cell_angle_beta     102.825
_cell_angle_gamma    90

_symmetry_space_group_name_H-M    "P 1"
_symmetry_int_tables_number       1

loop_
  _symmetry_equiv_pos_as_xyz
  'x, y, z'

loop_
  _atom_site_label
  _atom_site_occupancy
  _atom_site_fract_x
  _atom_site_fract_y
  _atom_site_fract_z
  _atom_site_thermal_displace_type
  _atom_site_B_iso_or_equiv
  _atom_site_type_symbol
  Cu1      1.0000 0.93873  0.57808  0.79977  Biso   1.000  Cu
  Cu2      1.0000 0.06127  0.07808  0.70023  Biso   1.000  Cu
  Cu3      1.0000 0.06127  0.42192  0.20023  Biso   1.000  Cu
  Cu4      1.0000 0.93873  0.92192  0.29977  Biso   1.000  Cu
  N1       1.0000 0.77540  0.57740  0.77340  Biso   1.000  N
  N2       1.0000 0.22460  0.07740  0.72660  Biso   1.000  N
  N3       1.0000 0.22460  0.42260  0.22660  Biso   1.000  N
  N4       1.0000 0.77540  0.92260  0.27340  Biso   1.000  N
  N5       1.0000 0.59900  0.60580  0.75720  Biso   1.000  N
  N6       1.0000 0.40100  0.10580  0.74280  Biso   1.000  N
  N7       1.0000 0.40100  0.39420  0.24280  Biso   1.000  N
  N8       1.0000 0.59900  0.89420  0.25720  Biso   1.000  N
  C1       1.0000 0.69490  0.56870  0.82440  Biso   1.000  C
  C2       1.0000 0.30510  0.06870  0.67560  Biso   1.000  C
  C3       1.0000 0.30510  0.43130  0.17560  Biso   1.000  C
  C4       1.0000 0.69490  0.93130  0.32440  Biso   1.000  C
  H1       1.0000 0.70360  0.54050  0.89730  Biso   1.000  H
  H2       1.0000 0.29640  0.04050  0.60270  Biso   1.000  H
  H3       1.0000 0.29640  0.45950  0.10270  Biso   1.000  H
  H4       1.0000 0.70360  0.95950  0.39730  Biso   1.000  H
  N9       1.0000 0.61544  0.63670  0.65720  Biso   1.000  N
  N10      1.0000 0.38456  0.13670  0.84280  Biso   1.000  N
  N11      1.0000 0.38456  0.36330  0.34280  Biso   1.000  N
  N12      1.0000 0.61544  0.86330  0.15720  Biso   1.000  N
  C5       1.0000 0.72380  0.61700  0.67220  Biso   1.000  C
  C6       1.0000 0.27620  0.11700  0.82780  Biso   1.000  C
  C7       1.0000 0.27620  0.38300  0.32780  Biso   1.000  C
  C8       1.0000 0.72380  0.88300  0.17220  Biso   1.000  C
  C9       1.0000 0.79660  0.63440  0.59400  Biso   1.000  C
  C10      1.0000 0.20340  0.13440  0.90600  Biso   1.000  C
  C11      1.0000 0.20340  0.36560  0.40600  Biso   1.000  C
  C12      1.0000 0.79660  0.86560  0.09400  Biso   1.000  C
  O1       1.0000 0.90015  0.62130  0.63946  Biso   1.000  O
  O2       1.0000 0.09985  0.12130  0.86054  Biso   1.000  O
  O3       1.0000 0.09985  0.37870  0.36054  Biso   1.000  O
  O4       1.0000 0.90015  0.87870  0.13946  Biso   1.000  O
  O5       1.0000 0.75853  0.65560  0.49902  Biso   1.000  O
  O6       1.0000 0.24147  0.15560  0.00098  Biso   1.000  O
  O7       1.0000 0.24147  0.34440  0.50098  Biso   1.000  O
  O8       1.0000 0.75853  0.84440  0.99902  Biso   1.000  O
  O9       1.0000 0.09061  0.59230  0.79051  Biso   1.000  O
  O10      1.0000 0.90939  0.09230  0.70949  Biso   1.000  O
  O11      1.0000 0.90939  0.40770  0.20949  Biso   1.000  O
  O12      1.0000 0.09061  0.90770  0.29051  Biso   1.000  O
  O13      1.0000 0.17700  0.63200  0.96090  Biso   1.000  O
  O14      1.0000 0.82300  0.13200  0.53910  Biso   1.000  O
  O15      1.0000 0.82300  0.36800  0.03910  Biso   1.000  O
  O16      1.0000 0.17700  0.86800  0.46090  Biso   1.000  O
  C13      1.0000 0.28640  0.62220  0.83280  Biso   1.000  C
  C14      1.0000 0.71360  0.12220  0.66720  Biso   1.000  C
  C15      1.0000 0.71360  0.37780  0.16720  Biso   1.000  C
  C16      1.0000 0.28640  0.87780  0.33280  Biso   1.000  C
  C17      1.0000 0.17640  0.61670  0.86610  Biso   1.000  C
  C18      1.0000 0.82360  0.11670  0.63390  Biso   1.000  C
  C19      1.0000 0.82360  0.38330  0.13390  Biso   1.000  C
  C20      1.0000 0.17640  0.88330  0.36610  Biso   1.000  C
  C21      1.0000 0.38200  0.66070  0.90950  Biso   1.000  C
  C22      1.0000 0.61800  0.16070  0.59050  Biso   1.000  C
  C23      1.0000 0.61800  0.33930  0.09050  Biso   1.000  C
  C24      1.0000 0.38200  0.83930  0.40950  Biso   1.000  C
  H5       1.0000 0.37660  0.68710  0.97980  Biso   1.000  H
  H6       1.0000 0.62340  0.18710  0.52020  Biso   1.000  H
  H7       1.0000 0.62340  0.31290  0.02020  Biso   1.000  H
  H8       1.0000 0.37660  0.81290  0.47980  Biso   1.000  H
  C25      1.0000 0.48520  0.66050  0.88340  Biso   1.000  C
  C26      1.0000 0.51480  0.16050  0.61660  Biso   1.000  C
  C27      1.0000 0.51480  0.33950  0.11660  Biso   1.000  C
  C28      1.0000 0.48520  0.83950  0.38340  Biso   1.000  C
  H9       1.0000 0.55020  0.69000  0.93500  Biso   1.000  H
  H10      1.0000 0.44980  0.19000  0.56500  Biso   1.000  H
  H11      1.0000 0.44980  0.31000  0.06500  Biso   1.000  H
  H12      1.0000 0.55020  0.81000  0.43500  Biso   1.000  H
  C29      1.0000 0.39750  0.58220  0.70270  Biso   1.000  C
  C30      1.0000 0.60250  0.08220  0.79730  Biso   1.000  C
  C31      1.0000 0.60250  0.41780  0.29730  Biso   1.000  C
  C32      1.0000 0.39750  0.91780  0.20270  Biso   1.000  C
  H13      1.0000 0.40320  0.55520  0.63250  Biso   1.000  H
  H14      1.0000 0.59680  0.05520  0.86750  Biso   1.000  H
  H15      1.0000 0.59680  0.44480  0.36750  Biso   1.000  H
  H16      1.0000 0.40320  0.94480  0.13250  Biso   1.000  H
  C33      1.0000 0.29410  0.58840  0.72980  Biso   1.000  C
  C34      1.0000 0.70590  0.08840  0.77020  Biso   1.000  C
  C35      1.0000 0.70590  0.41160  0.27020  Biso   1.000  C
  C36      1.0000 0.29410  0.91160  0.22980  Biso   1.000  C
  H17      1.0000 0.22860  0.56910  0.67680  Biso   1.000  H
  H18      1.0000 0.77140  0.06910  0.82320  Biso   1.000  H
  H19      1.0000 0.77140  0.43090  0.32320  Biso   1.000  H
  H20      1.0000 0.22860  0.93090  0.17680  Biso   1.000  H
  C37      1.0000 0.49150  0.61680  0.78140  Biso   1.000  C
  C38      1.0000 0.50850  0.11680  0.71860  Biso   1.000  C
  C39      1.0000 0.50850  0.38320  0.21860  Biso   1.000  C
  C40      1.0000 0.49150  0.88320  0.28140  Biso   1.000  C
  O17      1.0000 0.94140  0.82400  0.89760  Biso   1.000  O
  O18      1.0000 0.05860  0.32400  0.60240  Biso   1.000  O
  O19      1.0000 0.05860  0.17600  0.10240  Biso   1.000  O
  O20      1.0000 0.94140  0.67600  0.39760  Biso   1.000  O
  O21      1.0000 0.95380  0.37850  0.90350  Biso   1.000  O
  O22      1.0000 0.04620  0.87850  0.59650  Biso   1.000  O
  O23      1.0000 0.04620  0.62150  0.09650  Biso   1.000  O
  O24      1.0000 0.95380  0.12150  0.40350  Biso   1.000  O
  H21      1.0000 0.99100  0.29100  0.88600  Biso   1.000  H
  H22      1.0000 0.00900  0.79100  0.61400  Biso   1.000  H
  H23      1.0000 0.00900  0.70900  0.11400  Biso   1.000  H
  H24      1.0000 0.99100  0.20900  0.38600  Biso   1.000  H
  H25      1.0000 0.91500  0.37200  0.95000  Biso   1.000  H
  H26      1.0000 0.08500  0.87200  0.55000  Biso   1.000  H
  H27      1.0000 0.08500  0.62800  0.05000  Biso   1.000  H
  H28      1.0000 0.91500  0.12800  0.45000  Biso   1.000  H
  H29      1.0000 0.89100  0.84700  0.93000  Biso   1.000  H
  H30      1.0000 0.10900  0.34700  0.57000  Biso   1.000  H
  H31      1.0000 0.10900  0.15300  0.07000  Biso   1.000  H
  H32      1.0000 0.89100  0.65300  0.43000  Biso   1.000  H
  H33      1.0000 0.97600  0.91400  0.88300  Biso   1.000  H
  H34      1.0000 0.02400  0.41400  0.61700  Biso   1.000  H
  H35      1.0000 0.02400  0.08600  0.11700  Biso   1.000  H
  H36      1.0000 0.97600  0.58600  0.38300  Biso   1.000  H
