data_image0
_cell_length_a       20.687
_cell_length_b       9.37
_cell_length_c       11.422
_cell_angle_alpha    90
_cell_angle_beta     110.14
_cell_angle_gamma    90

_symmetry_space_group_name_H-M    "P 1"
_symmetry_int_tables_number       1

loop_
  _symmetry_equiv_pos_as_xyz
  'x, y, z'

loop_
  _atom_site_label
  _atom_site_occupancy
  _atom_site_fract_x
  _atom_site_fract_y
  _atom_site_fract_z
  _atom_site_thermal_displace_type
  _atom_site_B_iso_or_equiv
  _atom_site_type_symbol
  Cu1      1.0000 0.00000  0.20778  0.00000  Biso   1.000  Cu
  Cu2      1.0000 0.50000  0.70778  0.00000  Biso   1.000  Cu
  O1       1.0000 0.03040  0.73680  0.23980  Biso   1.000  O
  O2       1.0000 0.96960  0.73680  0.76020  Biso   1.000  O
  O3       1.0000 0.53040  0.23680  0.23980  Biso   1.000  O
  O4       1.0000 0.46960  0.23680  0.76020  Biso   1.000  O
  N1       1.0000 0.07180  0.36290  0.07700  Biso   1.000  N
  N2       1.0000 0.92820  0.36290  0.92300  Biso   1.000  N
  N3       1.0000 0.57180  0.86290  0.07700  Biso   1.000  N
  N4       1.0000 0.42820  0.86290  0.92300  Biso   1.000  N
  C1       1.0000 0.10680  0.56180  0.21380  Biso   1.000  C
  C2       1.0000 0.89320  0.56180  0.78620  Biso   1.000  C
  C3       1.0000 0.60680  0.06180  0.21380  Biso   1.000  C
  C4       1.0000 0.39320  0.06180  0.78620  Biso   1.000  C
  C5       1.0000 0.05720  0.47050  0.14770  Biso   1.000  C
  C6       1.0000 0.94280  0.47050  0.85230  Biso   1.000  C
  C7       1.0000 0.55720  0.97050  0.14770  Biso   1.000  C
  C8       1.0000 0.44280  0.97050  0.85230  Biso   1.000  C
  H1       1.0000 0.01280  0.47980  0.14950  Biso   1.000  H
  H2       1.0000 0.98720  0.47980  0.85050  Biso   1.000  H
  H3       1.0000 0.51280  0.97980  0.14950  Biso   1.000  H
  H4       1.0000 0.48720  0.97980  0.85050  Biso   1.000  H
  C9       1.0000 0.13590  0.35650  0.07310  Biso   1.000  C
  C10      1.0000 0.86410  0.35650  0.92690  Biso   1.000  C
  C11      1.0000 0.63590  0.85650  0.07310  Biso   1.000  C
  C12      1.0000 0.36410  0.85650  0.92690  Biso   1.000  C
  H5       1.0000 0.14520  0.28880  0.02150  Biso   1.000  H
  H6       1.0000 0.85480  0.28880  0.97850  Biso   1.000  H
  H7       1.0000 0.64520  0.78880  0.02150  Biso   1.000  H
  H8       1.0000 0.35480  0.78880  0.97850  Biso   1.000  H
  C13      1.0000 0.18750  0.44290  0.13990  Biso   1.000  C
  C14      1.0000 0.81250  0.44290  0.86010  Biso   1.000  C
  C15      1.0000 0.68750  0.94290  0.13990  Biso   1.000  C
  C16      1.0000 0.31250  0.94290  0.86010  Biso   1.000  C
  H9       1.0000 0.23120  0.43460  0.13440  Biso   1.000  H
  H10      1.0000 0.76880  0.43460  0.86560  Biso   1.000  H
  H11      1.0000 0.73120  0.93460  0.13440  Biso   1.000  H
  H12      1.0000 0.26880  0.93460  0.86560  Biso   1.000  H
  C17      1.0000 0.17420  0.54480  0.21700  Biso   1.000  C
  C18      1.0000 0.82580  0.54480  0.78300  Biso   1.000  C
  C19      1.0000 0.67420  0.04480  0.21700  Biso   1.000  C
  C20      1.0000 0.32580  0.04480  0.78300  Biso   1.000  C
  H13      1.0000 0.20960  0.60050  0.26960  Biso   1.000  H
  H14      1.0000 0.79040  0.60050  0.73040  Biso   1.000  H
  H15      1.0000 0.70960  0.10050  0.26960  Biso   1.000  H
  H16      1.0000 0.29040  0.10050  0.73040  Biso   1.000  H
  C21      1.0000 0.08660  0.67920  0.28610  Biso   1.000  C
  C22      1.0000 0.91340  0.67920  0.71390  Biso   1.000  C
  C23      1.0000 0.58660  0.17920  0.28610  Biso   1.000  C
  C24      1.0000 0.41340  0.17920  0.71390  Biso   1.000  C
  O5       1.0000 0.22520  0.73140  0.98010  Biso   1.000  O
  O6       1.0000 0.77480  0.73140  0.01990  Biso   1.000  O
  O7       1.0000 0.72520  0.23140  0.98010  Biso   1.000  O
  O8       1.0000 0.27480  0.23140  0.01990  Biso   1.000  O
  N5       1.0000 0.07230  0.05360  0.06880  Biso   1.000  N
  N6       1.0000 0.92770  0.05360  0.93120  Biso   1.000  N
  N7       1.0000 0.57230  0.55360  0.06880  Biso   1.000  N
  N8       1.0000 0.42770  0.55360  0.93120  Biso   1.000  N
  C25      1.0000 0.14540  0.87400  0.03200  Biso   1.000  C
  C26      1.0000 0.85460  0.87400  0.96800  Biso   1.000  C
  C27      1.0000 0.64540  0.37400  0.03200  Biso   1.000  C
  C28      1.0000 0.35460  0.37400  0.96800  Biso   1.000  C
  C29      1.0000 0.08730  0.95680  0.99480  Biso   1.000  C
  C30      1.0000 0.91270  0.95680  0.00520  Biso   1.000  C
  C31      1.0000 0.58730  0.45680  0.99480  Biso   1.000  C
  C32      1.0000 0.41270  0.45680  0.00520  Biso   1.000  C
  H17      1.0000 0.05650  0.94560  0.91390  Biso   1.000  H
  H18      1.0000 0.94350  0.94560  0.08610  Biso   1.000  H
  H19      1.0000 0.55650  0.44560  0.91390  Biso   1.000  H
  H20      1.0000 0.44350  0.44560  0.08610  Biso   1.000  H
  C33      1.0000 0.11610  0.06570  0.18620  Biso   1.000  C
  C34      1.0000 0.88390  0.06570  0.81380  Biso   1.000  C
  C35      1.0000 0.61610  0.56570  0.18620  Biso   1.000  C
  C36      1.0000 0.38390  0.56570  0.81380  Biso   1.000  C
  H21      1.0000 0.10530  0.12900  0.23930  Biso   1.000  H
  H22      1.0000 0.89470  0.12900  0.76070  Biso   1.000  H
  H23      1.0000 0.60530  0.62900  0.23930  Biso   1.000  H
  H24      1.0000 0.39470  0.62900  0.76070  Biso   1.000  H
  C37      1.0000 0.17660  0.98910  0.23210  Biso   1.000  C
  C38      1.0000 0.82340  0.98910  0.76790  Biso   1.000  C
  C39      1.0000 0.67660  0.48910  0.23210  Biso   1.000  C
  C40      1.0000 0.32340  0.48910  0.76790  Biso   1.000  C
  H25      1.0000 0.20640  0.00210  0.31360  Biso   1.000  H
  H26      1.0000 0.79360  0.00210  0.68640  Biso   1.000  H
  H27      1.0000 0.70640  0.50210  0.31360  Biso   1.000  H
  H28      1.0000 0.29360  0.50210  0.68640  Biso   1.000  H
  C41      1.0000 0.19140  0.89470  0.15530  Biso   1.000  C
  C42      1.0000 0.80860  0.89470  0.84470  Biso   1.000  C
  C43      1.0000 0.69140  0.39470  0.15530  Biso   1.000  C
  C44      1.0000 0.30860  0.39470  0.84470  Biso   1.000  C
  H29      1.0000 0.23220  0.84280  0.18380  Biso   1.000  H
  H30      1.0000 0.76780  0.84280  0.81620  Biso   1.000  H
  H31      1.0000 0.73220  0.34280  0.18380  Biso   1.000  H
  H32      1.0000 0.26780  0.34280  0.81620  Biso   1.000  H
  C45      1.0000 0.16560  0.76830  0.95290  Biso   1.000  C
  C46      1.0000 0.83440  0.76830  0.04710  Biso   1.000  C
  C47      1.0000 0.66560  0.26830  0.95290  Biso   1.000  C
  C48      1.0000 0.33440  0.26830  0.04710  Biso   1.000  C
  N9       1.0000 0.13290  0.71060  0.39820  Biso   1.000  N
  N10      1.0000 0.86710  0.71060  0.60180  Biso   1.000  N
  N11      1.0000 0.63290  0.21060  0.39820  Biso   1.000  N
  N12      1.0000 0.36710  0.21060  0.60180  Biso   1.000  N
  H33      1.0000 0.17060  0.66260  0.42390  Biso   1.000  H
  H34      1.0000 0.82940  0.66260  0.57610  Biso   1.000  H
  H35      1.0000 0.67060  0.16260  0.42390  Biso   1.000  H
  H36      1.0000 0.32940  0.16260  0.57610  Biso   1.000  H
  N13      1.0000 0.11470  0.71280  0.85690  Biso   1.000  N
  N14      1.0000 0.88530  0.71280  0.14310  Biso   1.000  N
  N15      1.0000 0.61470  0.21280  0.85690  Biso   1.000  N
  N16      1.0000 0.38530  0.21280  0.14310  Biso   1.000  N
  H37      1.0000 0.07320  0.74000  0.84440  Biso   1.000  H
  H38      1.0000 0.92680  0.74000  0.15560  Biso   1.000  H
  H39      1.0000 0.57320  0.24000  0.84440  Biso   1.000  H
  H40      1.0000 0.42680  0.24000  0.15560  Biso   1.000  H
  C49      1.0000 0.12240  0.82070  0.47720  Biso   1.000  C
  C50      1.0000 0.87760  0.82070  0.52280  Biso   1.000  C
  C51      1.0000 0.62240  0.32070  0.47720  Biso   1.000  C
  C52      1.0000 0.37760  0.32070  0.52280  Biso   1.000  C
  H41      1.0000 0.08860  0.88730  0.42580  Biso   1.000  H
  H42      1.0000 0.91140  0.88730  0.57420  Biso   1.000  H
  H43      1.0000 0.58860  0.38730  0.42580  Biso   1.000  H
  H44      1.0000 0.41140  0.38730  0.57420  Biso   1.000  H
  H45      1.0000 0.16520  0.87250  0.51370  Biso   1.000  H
  H46      1.0000 0.83480  0.87250  0.48630  Biso   1.000  H
  H47      1.0000 0.66520  0.37250  0.51370  Biso   1.000  H
  H48      1.0000 0.33480  0.37250  0.48630  Biso   1.000  H
  C53      1.0000 0.09910  0.77100  0.57900  Biso   1.000  C
  C54      1.0000 0.90090  0.77100  0.42100  Biso   1.000  C
  C55      1.0000 0.59910  0.27100  0.57900  Biso   1.000  C
  C56      1.0000 0.40090  0.27100  0.42100  Biso   1.000  C
  H49      1.0000 0.05620  0.71960  0.54420  Biso   1.000  H
  H50      1.0000 0.94380  0.71960  0.45580  Biso   1.000  H
  H51      1.0000 0.55620  0.21960  0.54420  Biso   1.000  H
  H52      1.0000 0.44380  0.21960  0.45580  Biso   1.000  H
  H53      1.0000 0.09050  0.85370  0.62350  Biso   1.000  H
  H54      1.0000 0.90950  0.85370  0.37650  Biso   1.000  H
  H55      1.0000 0.59050  0.35370  0.62350  Biso   1.000  H
  H56      1.0000 0.40950  0.35370  0.37650  Biso   1.000  H
  C57      1.0000 0.15250  0.67470  0.67210  Biso   1.000  C
  C58      1.0000 0.84750  0.67470  0.32790  Biso   1.000  C
  C59      1.0000 0.65250  0.17470  0.67210  Biso   1.000  C
  C60      1.0000 0.34750  0.17470  0.32790  Biso   1.000  C
  H57      1.0000 0.19370  0.73010  0.71340  Biso   1.000  H
  H58      1.0000 0.80630  0.73010  0.28660  Biso   1.000  H
  H59      1.0000 0.69370  0.23010  0.71340  Biso   1.000  H
  H60      1.0000 0.30630  0.23010  0.28660  Biso   1.000  H
  H61      1.0000 0.16490  0.59870  0.62620  Biso   1.000  H
  H62      1.0000 0.83510  0.59870  0.37380  Biso   1.000  H
  H63      1.0000 0.66490  0.09870  0.62620  Biso   1.000  H
  H64      1.0000 0.33510  0.09870  0.37380  Biso   1.000  H
  C61      1.0000 0.14300  0.77300  0.61600  Biso   1.000  C
  C62      1.0000 0.85700  0.77300  0.38400  Biso   1.000  C
  C63      1.0000 0.64300  0.27300  0.61600  Biso   1.000  C
  C64      1.0000 0.35700  0.27300  0.38400  Biso   1.000  C
  H65      1.0000 0.18930  0.73400  0.64330  Biso   1.000  H
  H66      1.0000 0.81070  0.73400  0.35670  Biso   1.000  H
  H67      1.0000 0.68930  0.23400  0.64330  Biso   1.000  H
  H68      1.0000 0.31070  0.23400  0.35670  Biso   1.000  H
  H69      1.0000 0.14250  0.85430  0.66730  Biso   1.000  H
  H70      1.0000 0.85750  0.85430  0.33270  Biso   1.000  H
  H71      1.0000 0.64250  0.35430  0.66730  Biso   1.000  H
  H72      1.0000 0.35750  0.35430  0.33270  Biso   1.000  H
  C65      1.0000 0.09700  0.66800  0.62900  Biso   1.000  C
  C66      1.0000 0.90300  0.66800  0.37100  Biso   1.000  C
  C67      1.0000 0.59700  0.16800  0.62900  Biso   1.000  C
  C68      1.0000 0.40300  0.16800  0.37100  Biso   1.000  C
  H73      1.0000 0.09310  0.59090  0.57030  Biso   1.000  H
  H74      1.0000 0.90690  0.59090  0.42970  Biso   1.000  H
  H75      1.0000 0.59310  0.09090  0.57030  Biso   1.000  H
  H76      1.0000 0.40690  0.09090  0.42970  Biso   1.000  H
  H77      1.0000 0.05170  0.70950  0.61200  Biso   1.000  H
  H78      1.0000 0.94830  0.70950  0.38800  Biso   1.000  H
  H79      1.0000 0.55170  0.20950  0.61200  Biso   1.000  H
  H80      1.0000 0.44830  0.20950  0.38800  Biso   1.000  H
  C69      1.0000 0.12710  0.60750  0.77250  Biso   1.000  C
  C70      1.0000 0.87290  0.60750  0.22750  Biso   1.000  C
  C71      1.0000 0.62710  0.10750  0.77250  Biso   1.000  C
  C72      1.0000 0.37290  0.10750  0.22750  Biso   1.000  C
  H81      1.0000 0.08480  0.55560  0.73130  Biso   1.000  H
  H82      1.0000 0.91520  0.55560  0.26870  Biso   1.000  H
  H83      1.0000 0.58480  0.05560  0.73130  Biso   1.000  H
  H84      1.0000 0.41520  0.05560  0.26870  Biso   1.000  H
  H85      1.0000 0.16120  0.53960  0.82100  Biso   1.000  H
  H86      1.0000 0.83880  0.53960  0.17900  Biso   1.000  H
  H87      1.0000 0.66120  0.03960  0.82100  Biso   1.000  H
  H88      1.0000 0.33880  0.03960  0.17900  Biso   1.000  H
  O9       1.0000 0.97160  0.21300  0.19200  Biso   1.000  O
  O10      1.0000 0.02840  0.21300  0.80800  Biso   1.000  O
  O11      1.0000 0.47160  0.71300  0.19200  Biso   1.000  O
  O12      1.0000 0.52840  0.71300  0.80800  Biso   1.000  O
  O13      1.0000 0.34070  0.62180  0.17190  Biso   1.000  O
  O14      1.0000 0.65930  0.62180  0.82810  Biso   1.000  O
  O15      1.0000 0.84070  0.12180  0.17190  Biso   1.000  O
  O16      1.0000 0.15930  0.12180  0.82810  Biso   1.000  O
