data_image0
_cell_length_a       20.77
_cell_length_b       9.325
_cell_length_c       11.425
_cell_angle_alpha    90
_cell_angle_beta     110.63
_cell_angle_gamma    90

_symmetry_space_group_name_H-M    "P 1"
_symmetry_int_tables_number       1

loop_
  _symmetry_equiv_pos_as_xyz
  'x, y, z'

loop_
  _atom_site_label
  _atom_site_occupancy
  _atom_site_fract_x
  _atom_site_fract_y
  _atom_site_fract_z
  _atom_site_thermal_displace_type
  _atom_site_B_iso_or_equiv
  _atom_site_type_symbol
  Cu1      1.0000 0.00000  0.45966  0.50000  Biso   1.000  Cu
  Cu2      1.0000 0.50000  0.95966  0.50000  Biso   1.000  Cu
  O1       1.0000 0.02814  0.46520  0.30930  Biso   1.000  O
  O2       1.0000 0.97186  0.46520  0.69070  Biso   1.000  O
  O3       1.0000 0.52814  0.96520  0.30930  Biso   1.000  O
  O4       1.0000 0.47186  0.96520  0.69070  Biso   1.000  O
  O5       1.0000 0.15800  0.37500  0.32470  Biso   1.000  O
  O6       1.0000 0.84200  0.37500  0.67530  Biso   1.000  O
  O7       1.0000 0.65800  0.87500  0.32470  Biso   1.000  O
  O8       1.0000 0.34200  0.87500  0.67530  Biso   1.000  O
  O9       1.0000 0.03075  0.99150  0.74050  Biso   1.000  O
  O10      1.0000 0.96925  0.99150  0.25950  Biso   1.000  O
  O11      1.0000 0.53075  0.49150  0.74050  Biso   1.000  O
  O12      1.0000 0.46925  0.49150  0.25950  Biso   1.000  O
  N1       1.0000 0.07170  0.61530  0.57820  Biso   1.000  N
  N2       1.0000 0.92830  0.61530  0.42180  Biso   1.000  N
  N3       1.0000 0.57170  0.11530  0.57820  Biso   1.000  N
  N4       1.0000 0.42830  0.11530  0.42180  Biso   1.000  N
  C1       1.0000 0.10730  0.81620  0.71650  Biso   1.000  C
  C2       1.0000 0.89270  0.81620  0.28350  Biso   1.000  C
  C3       1.0000 0.60730  0.31620  0.71650  Biso   1.000  C
  C4       1.0000 0.39270  0.31620  0.28350  Biso   1.000  C
  C5       1.0000 0.05820  0.72100  0.64590  Biso   1.000  C
  C6       1.0000 0.94180  0.72100  0.35410  Biso   1.000  C
  C7       1.0000 0.55820  0.22100  0.64590  Biso   1.000  C
  C8       1.0000 0.44180  0.22100  0.35410  Biso   1.000  C
  H1       1.0000 0.01350  0.73050  0.64520  Biso   1.000  H
  H2       1.0000 0.98650  0.73050  0.35480  Biso   1.000  H
  H3       1.0000 0.51350  0.23050  0.64520  Biso   1.000  H
  H4       1.0000 0.48650  0.23050  0.35480  Biso   1.000  H
  C9       1.0000 0.13590  0.60760  0.57520  Biso   1.000  C
  C10      1.0000 0.86410  0.60760  0.42480  Biso   1.000  C
  C11      1.0000 0.63590  0.10760  0.57520  Biso   1.000  C
  C12      1.0000 0.36410  0.10760  0.42480  Biso   1.000  C
  H5       1.0000 0.14530  0.53890  0.52440  Biso   1.000  H
  H6       1.0000 0.85470  0.53890  0.47560  Biso   1.000  H
  H7       1.0000 0.64530  0.03890  0.52440  Biso   1.000  H
  H8       1.0000 0.35470  0.03890  0.47560  Biso   1.000  H
  C13      1.0000 0.18790  0.69700  0.64390  Biso   1.000  C
  C14      1.0000 0.81210  0.69700  0.35610  Biso   1.000  C
  C15      1.0000 0.68790  0.19700  0.64390  Biso   1.000  C
  C16      1.0000 0.31210  0.19700  0.35610  Biso   1.000  C
  H9       1.0000 0.23180  0.68760  0.64020  Biso   1.000  H
  H10      1.0000 0.76820  0.68760  0.35980  Biso   1.000  H
  H11      1.0000 0.73180  0.18760  0.64020  Biso   1.000  H
  H12      1.0000 0.26820  0.18760  0.35980  Biso   1.000  H
  C17      1.0000 0.17480  0.80060  0.71820  Biso   1.000  C
  C18      1.0000 0.82520  0.80060  0.28180  Biso   1.000  C
  C19      1.0000 0.67480  0.30060  0.71820  Biso   1.000  C
  C20      1.0000 0.32520  0.30060  0.28180  Biso   1.000  C
  H13      1.0000 0.21000  0.85910  0.76850  Biso   1.000  H
  H14      1.0000 0.79000  0.85910  0.23150  Biso   1.000  H
  H15      1.0000 0.71000  0.35910  0.76850  Biso   1.000  H
  H16      1.0000 0.29000  0.35910  0.23150  Biso   1.000  H
  C21      1.0000 0.08710  0.93230  0.78740  Biso   1.000  C
  C22      1.0000 0.91290  0.93230  0.21260  Biso   1.000  C
  C23      1.0000 0.58710  0.43230  0.78740  Biso   1.000  C
  C24      1.0000 0.41290  0.43230  0.21260  Biso   1.000  C
  O13      1.0000 0.22661  0.98400  0.48160  Biso   1.000  O
  O14      1.0000 0.77339  0.98400  0.51840  Biso   1.000  O
  O15      1.0000 0.72661  0.48400  0.48160  Biso   1.000  O
  O16      1.0000 0.27339  0.48400  0.51840  Biso   1.000  O
  N5       1.0000 0.07300  0.30540  0.56880  Biso   1.000  N
  N6       1.0000 0.92700  0.30540  0.43120  Biso   1.000  N
  N7       1.0000 0.57300  0.80540  0.56880  Biso   1.000  N
  N8       1.0000 0.42700  0.80540  0.43120  Biso   1.000  N
  C25      1.0000 0.14620  0.12570  0.53460  Biso   1.000  C
  C26      1.0000 0.85380  0.12570  0.46540  Biso   1.000  C
  C27      1.0000 0.64620  0.62570  0.53460  Biso   1.000  C
  C28      1.0000 0.35380  0.62570  0.46540  Biso   1.000  C
  C29      1.0000 0.08680  0.20900  0.49520  Biso   1.000  C
  C30      1.0000 0.91320  0.20900  0.50480  Biso   1.000  C
  C31      1.0000 0.58680  0.70900  0.49520  Biso   1.000  C
  C32      1.0000 0.41320  0.70900  0.50480  Biso   1.000  C
  H17      1.0000 0.94440  0.19670  0.58560  Biso   1.000  H
  H18      1.0000 0.05560  0.19670  0.41440  Biso   1.000  H
  H19      1.0000 0.44440  0.69670  0.58560  Biso   1.000  H
  H20      1.0000 0.55560  0.69670  0.41440  Biso   1.000  H
  C33      1.0000 0.88390  0.31730  0.31140  Biso   1.000  C
  C34      1.0000 0.11610  0.31730  0.68860  Biso   1.000  C
  C35      1.0000 0.38390  0.81730  0.31140  Biso   1.000  C
  C36      1.0000 0.61610  0.81730  0.68860  Biso   1.000  C
  H21      1.0000 0.89550  0.37900  0.25800  Biso   1.000  H
  H22      1.0000 0.10450  0.37900  0.74200  Biso   1.000  H
  H23      1.0000 0.39550  0.87900  0.25800  Biso   1.000  H
  H24      1.0000 0.60450  0.87900  0.74200  Biso   1.000  H
  C37      1.0000 0.82310  0.24070  0.26560  Biso   1.000  C
  C38      1.0000 0.17690  0.24070  0.73440  Biso   1.000  C
  C39      1.0000 0.32310  0.74070  0.26560  Biso   1.000  C
  C40      1.0000 0.67690  0.74070  0.73440  Biso   1.000  C
  H25      1.0000 0.79370  0.25250  0.18330  Biso   1.000  H
  H26      1.0000 0.20630  0.25250  0.81670  Biso   1.000  H
  H27      1.0000 0.29370  0.75250  0.18330  Biso   1.000  H
  H28      1.0000 0.70630  0.75250  0.81670  Biso   1.000  H
  C41      1.0000 0.80710  0.14730  0.34370  Biso   1.000  C
  C42      1.0000 0.19290  0.14730  0.65630  Biso   1.000  C
  C43      1.0000 0.30710  0.64730  0.34370  Biso   1.000  C
  C44      1.0000 0.69290  0.64730  0.65630  Biso   1.000  C
  H29      1.0000 0.76540  0.09840  0.31600  Biso   1.000  H
  H30      1.0000 0.23460  0.09840  0.68400  Biso   1.000  H
  H31      1.0000 0.26540  0.59840  0.31600  Biso   1.000  H
  H32      1.0000 0.73460  0.59840  0.68400  Biso   1.000  H
  C45      1.0000 0.16520  0.01980  0.45490  Biso   1.000  C
  C46      1.0000 0.83480  0.01980  0.54510  Biso   1.000  C
  C47      1.0000 0.66520  0.51980  0.45490  Biso   1.000  C
  C48      1.0000 0.33480  0.51980  0.54510  Biso   1.000  C
  N9       1.0000 0.13200  0.96580  0.89920  Biso   1.000  N
  N10      1.0000 0.86800  0.96580  0.10080  Biso   1.000  N
  N11      1.0000 0.63200  0.46580  0.89920  Biso   1.000  N
  N12      1.0000 0.36800  0.46580  0.10080  Biso   1.000  N
  H33      1.0000 0.17000  0.91860  0.92630  Biso   1.000  H
  H34      1.0000 0.83000  0.91860  0.07370  Biso   1.000  H
  H35      1.0000 0.67000  0.41860  0.92630  Biso   1.000  H
  H36      1.0000 0.33000  0.41860  0.07370  Biso   1.000  H
  N13      1.0000 0.11504  0.96530  0.35770  Biso   1.000  N
  N14      1.0000 0.88496  0.96530  0.64230  Biso   1.000  N
  N15      1.0000 0.61504  0.46530  0.35770  Biso   1.000  N
  N16      1.0000 0.38496  0.46530  0.64230  Biso   1.000  N
  H37      1.0000 0.92630  0.99440  0.65650  Biso   1.000  H
  H38      1.0000 0.07370  0.99440  0.34350  Biso   1.000  H
  H39      1.0000 0.42630  0.49440  0.65650  Biso   1.000  H
  H40      1.0000 0.57370  0.49440  0.34350  Biso   1.000  H
  C49      1.0000 0.12070  0.07860  0.97930  Biso   1.000  C
  C50      1.0000 0.87930  0.07860  0.02070  Biso   1.000  C
  C51      1.0000 0.62070  0.57860  0.97930  Biso   1.000  C
  C52      1.0000 0.37930  0.57860  0.02070  Biso   1.000  C
  H41      1.0000 0.15750  0.14840  0.99720  Biso   1.000  H
  H42      1.0000 0.84250  0.14840  0.00280  Biso   1.000  H
  H43      1.0000 0.65750  0.64840  0.99720  Biso   1.000  H
  H44      1.0000 0.34250  0.64840  0.00280  Biso   1.000  H
  H45      1.0000 0.07780  0.12740  0.93430  Biso   1.000  H
  H46      1.0000 0.92220  0.12740  0.06570  Biso   1.000  H
  H47      1.0000 0.57780  0.62740  0.93430  Biso   1.000  H
  H48      1.0000 0.42220  0.62740  0.06570  Biso   1.000  H
  C53      1.0000 0.11780  0.02440  0.09670  Biso   1.000  C
  C54      1.0000 0.88220  0.02440  0.90330  Biso   1.000  C
  C55      1.0000 0.61780  0.52440  0.09670  Biso   1.000  C
  C56      1.0000 0.38220  0.52440  0.90330  Biso   1.000  C
  H49      1.0000 0.14530  0.09460  0.15600  Biso   1.000  H
  H50      1.0000 0.85470  0.09460  0.84400  Biso   1.000  H
  H51      1.0000 0.64530  0.59460  0.15600  Biso   1.000  H
  H52      1.0000 0.35470  0.59460  0.84400  Biso   1.000  H
  H53      1.0000 0.07070  0.04590  0.08840  Biso   1.000  H
  H54      1.0000 0.92930  0.04590  0.91160  Biso   1.000  H
  H55      1.0000 0.57070  0.54590  0.08840  Biso   1.000  H
  H56      1.0000 0.42930  0.54590  0.91160  Biso   1.000  H
  C57      1.0000 0.12860  0.91960  0.15760  Biso   1.000  C
  C58      1.0000 0.87140  0.91960  0.84240  Biso   1.000  C
  C59      1.0000 0.62860  0.41960  0.15760  Biso   1.000  C
  C60      1.0000 0.37140  0.41960  0.84240  Biso   1.000  C
  H57      1.0000 0.17580  0.89960  0.16560  Biso   1.000  H
  H58      1.0000 0.82420  0.89960  0.83440  Biso   1.000  H
  H59      1.0000 0.67580  0.39960  0.16560  Biso   1.000  H
  H60      1.0000 0.32420  0.39960  0.83440  Biso   1.000  H
  H61      1.0000 0.10160  0.85010  0.09690  Biso   1.000  H
  H62      1.0000 0.89840  0.85010  0.90310  Biso   1.000  H
  H63      1.0000 0.60160  0.35010  0.09690  Biso   1.000  H
  H64      1.0000 0.39840  0.35010  0.90310  Biso   1.000  H
  C61      1.0000 0.12650  0.85810  0.27320  Biso   1.000  C
  C62      1.0000 0.87350  0.85810  0.72680  Biso   1.000  C
  C63      1.0000 0.62650  0.35810  0.27320  Biso   1.000  C
  C64      1.0000 0.37350  0.35810  0.72680  Biso   1.000  C
  H65      1.0000 0.91000  0.78720  0.74690  Biso   1.000  H
  H66      1.0000 0.09000  0.78720  0.25310  Biso   1.000  H
  H67      1.0000 0.41000  0.28720  0.74690  Biso   1.000  H
  H68      1.0000 0.59000  0.28720  0.25310  Biso   1.000  H
  H69      1.0000 0.83030  0.80910  0.68410  Biso   1.000  H
  H70      1.0000 0.16970  0.80910  0.31590  Biso   1.000  H
  H71      1.0000 0.33030  0.30910  0.68410  Biso   1.000  H
  H72      1.0000 0.66970  0.30910  0.31590  Biso   1.000  H
  Cl1      1.0000 0.33775  0.03661  0.99634  Biso   1.000  Cl
  Cl2      1.0000 0.66225  0.03661  0.00366  Biso   1.000  Cl
  Cl3      1.0000 0.83775  0.53661  0.99634  Biso   1.000  Cl
  Cl4      1.0000 0.16225  0.53661  0.00366  Biso   1.000  Cl
  O17      1.0000 0.30000  0.16400  0.00910  Biso   1.000  O
  O18      1.0000 0.70000  0.16400  0.99090  Biso   1.000  O
  O19      1.0000 0.80000  0.66400  0.00910  Biso   1.000  O
  O20      1.0000 0.20000  0.66400  0.99090  Biso   1.000  O
  O21      1.0000 0.34200  0.05080  0.87940  Biso   1.000  O
  O22      1.0000 0.65800  0.05080  0.12060  Biso   1.000  O
  O23      1.0000 0.84200  0.55080  0.87940  Biso   1.000  O
  O24      1.0000 0.15800  0.55080  0.12060  Biso   1.000  O
  O25      1.0000 0.40120  0.03500  0.08930  Biso   1.000  O
  O26      1.0000 0.59880  0.03500  0.91070  Biso   1.000  O
  O27      1.0000 0.90120  0.53500  0.08930  Biso   1.000  O
  O28      1.0000 0.09880  0.53500  0.91070  Biso   1.000  O
  O29      1.0000 0.29780  0.91840  0.00520  Biso   1.000  O
  O30      1.0000 0.70220  0.91840  0.99480  Biso   1.000  O
  O31      1.0000 0.79780  0.41840  0.00520  Biso   1.000  O
  O32      1.0000 0.20220  0.41840  0.99480  Biso   1.000  O
