data_image0
_cell_length_a       8.019
_cell_length_b       11.857
_cell_length_c       12.088
_cell_angle_alpha    70.49
_cell_angle_beta     80.08
_cell_angle_gamma    81.3

_symmetry_space_group_name_H-M    "P 1"
_symmetry_int_tables_number       1

loop_
  _symmetry_equiv_pos_as_xyz
  'x, y, z'

loop_
  _atom_site_label
  _atom_site_occupancy
  _atom_site_fract_x
  _atom_site_fract_y
  _atom_site_fract_z
  _atom_site_thermal_displace_type
  _atom_site_B_iso_or_equiv
  _atom_site_type_symbol
  Cu1      1.0000 0.50000  0.00000  0.50000  Biso   1.000  Cu
  O1       1.0000 0.04510  0.80110  0.68850  Biso   1.000  O
  O2       1.0000 0.95490  0.19890  0.31150  Biso   1.000  O
  H1       1.0000 0.00200  0.80800  0.74300  Biso   1.000  H
  H2       1.0000 0.99800  0.19200  0.25700  Biso   1.000  H
  H3       1.0000 0.08100  0.73600  0.68800  Biso   1.000  H
  H4       1.0000 0.91900  0.26400  0.31200  Biso   1.000  H
  O3       1.0000 0.78930  0.03510  0.49830  Biso   1.000  O
  O4       1.0000 0.21070  0.96490  0.50170  Biso   1.000  O
  H5       1.0000 0.81300  0.04700  0.55700  Biso   1.000  H
  H6       1.0000 0.18700  0.95300  0.44300  Biso   1.000  H
  H7       1.0000 0.84100  0.08000  0.43900  Biso   1.000  H
  H8       1.0000 0.15900  0.92000  0.56100  Biso   1.000  H
  Cl1      1.0000 0.82278  0.18987  0.72688  Biso   1.000  Cl
  Cl2      1.0000 0.17722  0.81013  0.27312  Biso   1.000  Cl
  O5       1.0000 0.85520  0.29640  0.65020  Biso   1.000  O
  O6       1.0000 0.14480  0.70360  0.34980  Biso   1.000  O
  O7       1.0000 0.89810  0.16370  0.83250  Biso   1.000  O
  O8       1.0000 0.10190  0.83630  0.16750  Biso   1.000  O
  O9       1.0000 0.90040  0.09630  0.67860  Biso   1.000  O
  O10      1.0000 0.09960  0.90370  0.32140  Biso   1.000  O
  O11      1.0000 0.64790  0.17930  0.76160  Biso   1.000  O
  O12      1.0000 0.35210  0.82070  0.23840  Biso   1.000  O
  N1       1.0000 0.54500  0.03170  0.31920  Biso   1.000  N
  N2       1.0000 0.45500  0.96830  0.68080  Biso   1.000  N
  O13      1.0000 0.16230  0.18510  0.10750  Biso   1.000  O
  O14      1.0000 0.83770  0.81490  0.89250  Biso   1.000  O
  C1       1.0000 0.45340  0.11380  0.12700  Biso   1.000  C
  C2       1.0000 0.54660  0.88620  0.87300  Biso   1.000  C
  C3       1.0000 0.42520  0.08590  0.24930  Biso   1.000  C
  C4       1.0000 0.57480  0.91410  0.75070  Biso   1.000  C
  H9       1.0000 0.31720  0.10600  0.28430  Biso   1.000  H
  H10      1.0000 0.68280  0.89400  0.71570  Biso   1.000  H
  C5       1.0000 0.70140  0.00180  0.26700  Biso   1.000  C
  C6       1.0000 0.29860  0.99820  0.73300  Biso   1.000  C
  H11      1.0000 0.78660  0.96450  0.31440  Biso   1.000  H
  H12      1.0000 0.21340  0.03550  0.68560  Biso   1.000  H
  C7       1.0000 0.73890  0.02470  0.14650  Biso   1.000  C
  C8       1.0000 0.26110  0.97530  0.85350  Biso   1.000  C
  H13      1.0000 0.84730  0.00220  0.11370  Biso   1.000  H
  H14      1.0000 0.15270  0.99780  0.88630  Biso   1.000  H
  C9       1.0000 0.61470  0.08110  0.07500  Biso   1.000  C
  C10      1.0000 0.38530  0.91890  0.92500  Biso   1.000  C
  H15      1.0000 0.63780  0.09720  0.99350  Biso   1.000  H
  H16      1.0000 0.36220  0.90280  0.00650  Biso   1.000  H
  C11      1.0000 0.30970  0.17930  0.05810  Biso   1.000  C
  C12      1.0000 0.69030  0.82070  0.94190  Biso   1.000  C
  O15      1.0000 0.21730  0.57870  0.66410  Biso   1.000  O
  O16      1.0000 0.78270  0.42130  0.33590  Biso   1.000  O
  N3       1.0000 0.58380  0.81690  0.53440  Biso   1.000  N
  N4       1.0000 0.41620  0.18310  0.46560  Biso   1.000  N
  C13      1.0000 0.51090  0.61340  0.60560  Biso   1.000  C
  C14      1.0000 0.48910  0.38660  0.39440  Biso   1.000  C
  C15      1.0000 0.46930  0.73590  0.57270  Biso   1.000  C
  C16      1.0000 0.53070  0.26410  0.42730  Biso   1.000  C
  H17      1.0000 0.35450  0.76440  0.57720  Biso   1.000  H
  H18      1.0000 0.64550  0.23560  0.42280  Biso   1.000  H
  C17      1.0000 0.75070  0.77340  0.52720  Biso   1.000  C
  C18      1.0000 0.24930  0.22660  0.47280  Biso   1.000  C
  H19      1.0000 0.83280  0.82750  0.50200  Biso   1.000  H
  H20      1.0000 0.16720  0.17250  0.49800  Biso   1.000  H
  C19      1.0000 0.80290  0.65220  0.55570  Biso   1.000  C
  C20      1.0000 0.19710  0.34780  0.44430  Biso   1.000  C
  H21      1.0000 0.91830  0.62550  0.54900  Biso   1.000  H
  H22      1.0000 0.08170  0.37450  0.45100  Biso   1.000  H
  C21      1.0000 0.68380  0.57090  0.59420  Biso   1.000  C
  C22      1.0000 0.31620  0.42910  0.40580  Biso   1.000  C
  H23      1.0000 0.71730  0.48880  0.61250  Biso   1.000  H
  H24      1.0000 0.28270  0.51120  0.38750  Biso   1.000  H
  C23      1.0000 0.36670  0.53360  0.65540  Biso   1.000  C
  C24      1.0000 0.63330  0.46640  0.34460  Biso   1.000  C
  N5       1.0000 0.34940  0.23220  0.94130  Biso   1.000  N
  N6       1.0000 0.65060  0.76780  0.05870  Biso   1.000  N
  H25      1.0000 0.45250  0.22310  0.90870  Biso   1.000  H
  H26      1.0000 0.54750  0.77690  0.09130  Biso   1.000  H
  N7       1.0000 0.40760  0.41470  0.69040  Biso   1.000  N
  N8       1.0000 0.59240  0.58530  0.30960  Biso   1.000  N
  H27      1.0000 0.51300  0.38660  0.68490  Biso   1.000  H
  H28      1.0000 0.48700  0.61340  0.31510  Biso   1.000  H
  C25      1.0000 0.21940  0.30500  0.86880  Biso   1.000  C
  C26      1.0000 0.78060  0.69500  0.13120  Biso   1.000  C
  H29      1.0000 0.18990  0.38040  0.88600  Biso   1.000  H
  H30      1.0000 0.81010  0.61960  0.11400  Biso   1.000  H
  H31      1.0000 0.11790  0.26310  0.89010  Biso   1.000  H
  H32      1.0000 0.88210  0.73690  0.10990  Biso   1.000  H
  C27      1.0000 0.27630  0.33150  0.73790  Biso   1.000  C
  C28      1.0000 0.72370  0.66850  0.26210  Biso   1.000  C
  H33      1.0000 0.31940  0.25650  0.72250  Biso   1.000  H
  H34      1.0000 0.68060  0.74350  0.27750  Biso   1.000  H
  H35      1.0000 0.17830  0.36510  0.69600  Biso   1.000  H
  H36      1.0000 0.82170  0.63490  0.30400  Biso   1.000  H
  C29      1.0000 0.80680  0.49690  0.90820  Biso   1.000  C
  C30      1.0000 0.19320  0.50310  0.09180  Biso   1.000  C
  H37      1.0000 0.91030  0.51130  0.86040  Biso   1.000  H
  H38      1.0000 0.08970  0.48870  0.13960  Biso   1.000  H
  C31      1.0000 0.79870  0.39750  0.01300  Biso   1.000  C
  C32      1.0000 0.20130  0.60250  0.98700  Biso   1.000  C
  H39      1.0000 0.89700  0.34730  0.03390  Biso   1.000  H
  H40      1.0000 0.10300  0.65270  0.96610  Biso   1.000  H
  C33      1.0000 0.64680  0.37480  0.08410  Biso   1.000  C
  C34      1.0000 0.35320  0.62520  0.91590  Biso   1.000  C
  H41      1.0000 0.64260  0.30970  0.15330  Biso   1.000  H
  H42      1.0000 0.35740  0.69030  0.84670  Biso   1.000  H
  C35      1.0000 0.66490  0.57140  0.87650  Biso   1.000  C
  C36      1.0000 0.33510  0.42860  0.12350  Biso   1.000  C
  H43      1.0000 0.67250  0.63730  0.80800  Biso   1.000  H
  H44      1.0000 0.32750  0.36270  0.19200  Biso   1.000  H
  C37      1.0000 0.49580  0.45040  0.05250  Biso   1.000  C
  C38      1.0000 0.50420  0.54960  0.94750  Biso   1.000  C
