data_image0
_cell_length_a       9.5913
_cell_length_b       21.013
_cell_length_c       12.284
_cell_angle_alpha    90
_cell_angle_beta     101.78
_cell_angle_gamma    90

_symmetry_space_group_name_H-M    "P 1"
_symmetry_int_tables_number       1

loop_
  _symmetry_equiv_pos_as_xyz
  'x, y, z'

loop_
  _atom_site_label
  _atom_site_occupancy
  _atom_site_fract_x
  _atom_site_fract_y
  _atom_site_fract_z
  _atom_site_thermal_displace_type
  _atom_site_B_iso_or_equiv
  _atom_site_type_symbol
  Cu1      1.0000 0.50000  0.50000  0.50000  Biso   1.000  Cu
  Cu2      1.0000 0.00000  0.00000  0.50000  Biso   1.000  Cu
  Cl1      1.0000 0.09930  0.50000  0.32040  Biso   1.000  Cl
  Cl2      1.0000 0.59930  0.00000  0.32040  Biso   1.000  Cl
  Cl3      1.0000 0.90070  0.50000  0.67960  Biso   1.000  Cl
  Cl4      1.0000 0.40070  0.00000  0.67960  Biso   1.000  Cl
  C1       1.0000 0.73770  0.50000  0.95830  Biso   1.000  C
  C2       1.0000 0.23770  0.00000  0.95830  Biso   1.000  C
  C3       1.0000 0.26230  0.50000  0.04170  Biso   1.000  C
  C4       1.0000 0.76230  0.00000  0.04170  Biso   1.000  C
  H1       1.0000 0.81000  0.50000  0.91230  Biso   1.000  H
  H2       1.0000 0.31000  0.00000  0.91230  Biso   1.000  H
  H3       1.0000 0.19000  0.50000  0.08770  Biso   1.000  H
  H4       1.0000 0.69000  0.00000  0.08770  Biso   1.000  H
  Cl5      1.0000 0.57210  0.50000  0.87470  Biso   1.000  Cl
  Cl6      1.0000 0.07210  0.00000  0.87470  Biso   1.000  Cl
  Cl7      1.0000 0.42790  0.50000  0.12530  Biso   1.000  Cl
  Cl8      1.0000 0.92790  0.00000  0.12530  Biso   1.000  Cl
  Cl9      1.0000 0.75380  0.43050  0.03860  Biso   1.000  Cl
  Cl10     1.0000 0.25380  0.93050  0.03860  Biso   1.000  Cl
  Cl11     1.0000 0.24620  0.43050  0.96140  Biso   1.000  Cl
  Cl12     1.0000 0.74620  0.93050  0.96140  Biso   1.000  Cl
  Cl13     1.0000 0.24620  0.56950  0.96140  Biso   1.000  Cl
  Cl14     1.0000 0.74620  0.06950  0.96140  Biso   1.000  Cl
  Cl15     1.0000 0.75380  0.56950  0.03860  Biso   1.000  Cl
  Cl16     1.0000 0.25380  0.06950  0.03860  Biso   1.000  Cl
  O1       1.0000 0.97470  0.50000  0.36020  Biso   1.000  O
  O2       1.0000 0.47470  0.00000  0.36020  Biso   1.000  O
  O3       1.0000 0.02530  0.50000  0.63980  Biso   1.000  O
  O4       1.0000 0.52530  0.00000  0.63980  Biso   1.000  O
  O5       1.0000 0.10810  0.55440  0.25090  Biso   1.000  O
  O6       1.0000 0.60810  0.05440  0.25090  Biso   1.000  O
  O7       1.0000 0.89190  0.55440  0.74910  Biso   1.000  O
  O8       1.0000 0.39190  0.05440  0.74910  Biso   1.000  O
  O9       1.0000 0.89190  0.44560  0.74910  Biso   1.000  O
  O10      1.0000 0.39190  0.94560  0.74910  Biso   1.000  O
  O11      1.0000 0.10810  0.44560  0.25090  Biso   1.000  O
  O12      1.0000 0.60810  0.94560  0.25090  Biso   1.000  O
  O13      1.0000 0.22440  0.50000  0.40320  Biso   1.000  O
  O14      1.0000 0.72440  0.00000  0.40320  Biso   1.000  O
  O15      1.0000 0.77560  0.50000  0.59680  Biso   1.000  O
  O16      1.0000 0.27560  0.00000  0.59680  Biso   1.000  O
  O17      1.0000 0.75270  0.71700  0.15780  Biso   1.000  O
  O18      1.0000 0.25270  0.21700  0.15780  Biso   1.000  O
  O19      1.0000 0.24730  0.71700  0.84220  Biso   1.000  O
  O20      1.0000 0.74730  0.21700  0.84220  Biso   1.000  O
  O21      1.0000 0.24730  0.28300  0.84220  Biso   1.000  O
  O22      1.0000 0.74730  0.78300  0.84220  Biso   1.000  O
  O23      1.0000 0.75270  0.28300  0.15780  Biso   1.000  O
  O24      1.0000 0.25270  0.78300  0.15780  Biso   1.000  O
  N1       1.0000 0.54250  0.56840  0.39570  Biso   1.000  N
  N2       1.0000 0.04250  0.06840  0.39570  Biso   1.000  N
  N3       1.0000 0.45750  0.56840  0.60430  Biso   1.000  N
  N4       1.0000 0.95750  0.06840  0.60430  Biso   1.000  N
  N5       1.0000 0.45750  0.43160  0.60430  Biso   1.000  N
  N6       1.0000 0.95750  0.93160  0.60430  Biso   1.000  N
  N7       1.0000 0.54250  0.43160  0.39570  Biso   1.000  N
  N8       1.0000 0.04250  0.93160  0.39570  Biso   1.000  N
  C5       1.0000 0.67170  0.57850  0.37350  Biso   1.000  C
  C6       1.0000 0.17170  0.07850  0.37350  Biso   1.000  C
  C7       1.0000 0.32830  0.57850  0.62650  Biso   1.000  C
  C8       1.0000 0.82830  0.07850  0.62650  Biso   1.000  C
  C9       1.0000 0.32830  0.42150  0.62650  Biso   1.000  C
  C10      1.0000 0.82830  0.92150  0.62650  Biso   1.000  C
  C11      1.0000 0.67170  0.42150  0.37350  Biso   1.000  C
  C12      1.0000 0.17170  0.92150  0.37350  Biso   1.000  C
  H5       1.0000 0.74710  0.55330  0.40920  Biso   1.000  H
  H6       1.0000 0.24710  0.05330  0.40920  Biso   1.000  H
  H7       1.0000 0.25290  0.55330  0.59080  Biso   1.000  H
  H8       1.0000 0.75290  0.05330  0.59080  Biso   1.000  H
  H9       1.0000 0.25290  0.44670  0.59080  Biso   1.000  H
  H10      1.0000 0.75290  0.94670  0.59080  Biso   1.000  H
  H11      1.0000 0.74710  0.44670  0.40920  Biso   1.000  H
  H12      1.0000 0.24710  0.94670  0.40920  Biso   1.000  H
  C13      1.0000 0.59360  0.66260  0.24730  Biso   1.000  C
  C14      1.0000 0.09360  0.16260  0.24730  Biso   1.000  C
  C15      1.0000 0.40640  0.66260  0.75270  Biso   1.000  C
  C16      1.0000 0.90640  0.16260  0.75270  Biso   1.000  C
  C17      1.0000 0.40640  0.33740  0.75270  Biso   1.000  C
  C18      1.0000 0.90640  0.83740  0.75270  Biso   1.000  C
  C19      1.0000 0.59360  0.33740  0.24730  Biso   1.000  C
  C20      1.0000 0.09360  0.83740  0.24730  Biso   1.000  C
  C21      1.0000 0.45790  0.65250  0.26900  Biso   1.000  C
  C22      1.0000 0.95790  0.15250  0.26900  Biso   1.000  C
  C23      1.0000 0.54210  0.65250  0.73100  Biso   1.000  C
  C24      1.0000 0.04210  0.15250  0.73100  Biso   1.000  C
  C25      1.0000 0.54210  0.34750  0.73100  Biso   1.000  C
  C26      1.0000 0.04210  0.84750  0.73100  Biso   1.000  C
  C27      1.0000 0.45790  0.34750  0.26900  Biso   1.000  C
  C28      1.0000 0.95790  0.84750  0.26900  Biso   1.000  C
  H13      1.0000 0.38130  0.67710  0.23380  Biso   1.000  H
  H14      1.0000 0.88130  0.17710  0.23380  Biso   1.000  H
  H15      1.0000 0.61870  0.67710  0.76620  Biso   1.000  H
  H16      1.0000 0.11870  0.17710  0.76620  Biso   1.000  H
  H17      1.0000 0.61870  0.32290  0.76620  Biso   1.000  H
  H18      1.0000 0.11870  0.82290  0.76620  Biso   1.000  H
  H19      1.0000 0.38130  0.32290  0.23380  Biso   1.000  H
  H20      1.0000 0.88130  0.82290  0.23380  Biso   1.000  H
  C29      1.0000 0.43920  0.60640  0.34240  Biso   1.000  C
  C30      1.0000 0.93920  0.10640  0.34240  Biso   1.000  C
  C31      1.0000 0.56080  0.60640  0.65760  Biso   1.000  C
  C32      1.0000 0.06080  0.10640  0.65760  Biso   1.000  C
  C33      1.0000 0.56080  0.39360  0.65760  Biso   1.000  C
  C34      1.0000 0.06080  0.89360  0.65760  Biso   1.000  C
  C35      1.0000 0.43920  0.39360  0.34240  Biso   1.000  C
  C36      1.0000 0.93920  0.89360  0.34240  Biso   1.000  C
  H21      1.0000 0.34830  0.60090  0.35630  Biso   1.000  H
  H22      1.0000 0.84830  0.10090  0.35630  Biso   1.000  H
  H23      1.0000 0.65170  0.60090  0.64370  Biso   1.000  H
  H24      1.0000 0.15170  0.10090  0.64370  Biso   1.000  H
  H25      1.0000 0.65170  0.39910  0.64370  Biso   1.000  H
  H26      1.0000 0.15170  0.89910  0.64370  Biso   1.000  H
  H27      1.0000 0.34830  0.39910  0.35630  Biso   1.000  H
  H28      1.0000 0.84830  0.89910  0.35630  Biso   1.000  H
  C37      1.0000 0.69840  0.62430  0.30030  Biso   1.000  C
  C38      1.0000 0.19840  0.12430  0.30030  Biso   1.000  C
  C39      1.0000 0.30160  0.62430  0.69970  Biso   1.000  C
  C40      1.0000 0.80160  0.12430  0.69970  Biso   1.000  C
  C41      1.0000 0.30160  0.37570  0.69970  Biso   1.000  C
  C42      1.0000 0.80160  0.87570  0.69970  Biso   1.000  C
  C43      1.0000 0.69840  0.37570  0.30030  Biso   1.000  C
  C44      1.0000 0.19840  0.87570  0.30030  Biso   1.000  C
  H29      1.0000 0.79010  0.62890  0.28720  Biso   1.000  H
  H30      1.0000 0.29010  0.12890  0.28720  Biso   1.000  H
  H31      1.0000 0.20990  0.62890  0.71280  Biso   1.000  H
  H32      1.0000 0.70990  0.12890  0.71280  Biso   1.000  H
  H33      1.0000 0.20990  0.37110  0.71280  Biso   1.000  H
  H34      1.0000 0.70990  0.87110  0.71280  Biso   1.000  H
  H35      1.0000 0.79010  0.37110  0.28720  Biso   1.000  H
  H36      1.0000 0.29010  0.87110  0.28720  Biso   1.000  H
  C45      1.0000 0.62810  0.71380  0.17090  Biso   1.000  C
  C46      1.0000 0.12810  0.21380  0.17090  Biso   1.000  C
  C47      1.0000 0.37190  0.71380  0.82910  Biso   1.000  C
  C48      1.0000 0.87190  0.21380  0.82910  Biso   1.000  C
  C49      1.0000 0.37190  0.28620  0.82910  Biso   1.000  C
  C50      1.0000 0.87190  0.78620  0.82910  Biso   1.000  C
  C51      1.0000 0.62810  0.28620  0.17090  Biso   1.000  C
  C52      1.0000 0.12810  0.78620  0.17090  Biso   1.000  C
  N9       1.0000 0.52760  0.75360  0.12450  Biso   1.000  N
  N10      1.0000 0.02760  0.25360  0.12450  Biso   1.000  N
  N11      1.0000 0.47240  0.75360  0.87550  Biso   1.000  N
  N12      1.0000 0.97240  0.25360  0.87550  Biso   1.000  N
  N13      1.0000 0.47240  0.24640  0.87550  Biso   1.000  N
  N14      1.0000 0.97240  0.74640  0.87550  Biso   1.000  N
  N15      1.0000 0.52760  0.24640  0.12450  Biso   1.000  N
  N16      1.0000 0.02760  0.74640  0.12450  Biso   1.000  N
  H37      1.0000 0.44320  0.74780  0.13630  Biso   1.000  H
  H38      1.0000 0.94320  0.24780  0.13630  Biso   1.000  H
  H39      1.0000 0.55680  0.74780  0.86370  Biso   1.000  H
  H40      1.0000 0.05680  0.24780  0.86370  Biso   1.000  H
  H41      1.0000 0.55680  0.25220  0.86370  Biso   1.000  H
  H42      1.0000 0.05680  0.75220  0.86370  Biso   1.000  H
  H43      1.0000 0.44320  0.25220  0.13630  Biso   1.000  H
  H44      1.0000 0.94320  0.75220  0.13630  Biso   1.000  H
  C53      1.0000 0.55020  0.80650  0.05460  Biso   1.000  C
  C54      1.0000 0.05020  0.30650  0.05460  Biso   1.000  C
  C55      1.0000 0.44980  0.80650  0.94540  Biso   1.000  C
  C56      1.0000 0.94980  0.30650  0.94540  Biso   1.000  C
  C57      1.0000 0.44980  0.19350  0.94540  Biso   1.000  C
  C58      1.0000 0.94980  0.69350  0.94540  Biso   1.000  C
  C59      1.0000 0.55020  0.19350  0.05460  Biso   1.000  C
  C60      1.0000 0.05020  0.69350  0.05460  Biso   1.000  C
  H45      1.0000 0.64690  0.80490  0.04250  Biso   1.000  H
  H46      1.0000 0.14690  0.30490  0.04250  Biso   1.000  H
  H47      1.0000 0.35310  0.80490  0.95750  Biso   1.000  H
  H48      1.0000 0.85310  0.30490  0.95750  Biso   1.000  H
  H49      1.0000 0.35310  0.19510  0.95750  Biso   1.000  H
  H50      1.0000 0.85310  0.69510  0.95750  Biso   1.000  H
  H51      1.0000 0.64690  0.19510  0.04250  Biso   1.000  H
  H52      1.0000 0.14690  0.69510  0.04250  Biso   1.000  H
  H53      1.0000 0.53940  0.84600  0.09300  Biso   1.000  H
  H54      1.0000 0.03940  0.34600  0.09300  Biso   1.000  H
  H55      1.0000 0.46060  0.84600  0.90700  Biso   1.000  H
  H56      1.0000 0.96060  0.34600  0.90700  Biso   1.000  H
  H57      1.0000 0.46060  0.15400  0.90700  Biso   1.000  H
  H58      1.0000 0.96060  0.65400  0.90700  Biso   1.000  H
  H59      1.0000 0.53940  0.15400  0.09300  Biso   1.000  H
  H60      1.0000 0.03940  0.65400  0.09300  Biso   1.000  H
