data_image0
_cell_length_a       21.296
_cell_length_b       9.382
_cell_length_c       18.803
_cell_angle_alpha    90
_cell_angle_beta     90
_cell_angle_gamma    90

_symmetry_space_group_name_H-M    "P 1"
_symmetry_int_tables_number       1

loop_
  _symmetry_equiv_pos_as_xyz
  'x, y, z'

loop_
  _atom_site_label
  _atom_site_occupancy
  _atom_site_fract_x
  _atom_site_fract_y
  _atom_site_fract_z
  _atom_site_thermal_displace_type
  _atom_site_B_iso_or_equiv
  _atom_site_type_symbol
  Cu1      1.0000 0.88791  0.01883  0.88200  Biso   1.000  Cu
  Cu2      1.0000 0.11209  0.98117  0.38200  Biso   1.000  Cu
  Cu3      1.0000 0.38791  0.98117  0.88200  Biso   1.000  Cu
  Cu4      1.0000 0.61209  0.01883  0.38200  Biso   1.000  Cu
  O1       1.0000 0.90340  0.33870  0.65340  Biso   1.000  O
  O2       1.0000 0.09660  0.66130  0.15340  Biso   1.000  O
  O3       1.0000 0.40340  0.66130  0.65340  Biso   1.000  O
  O4       1.0000 0.59660  0.33870  0.15340  Biso   1.000  O
  O5       1.0000 0.85280  0.04960  0.01910  Biso   1.000  O
  O6       1.0000 0.14720  0.95040  0.51910  Biso   1.000  O
  O7       1.0000 0.35280  0.95040  0.01910  Biso   1.000  O
  O8       1.0000 0.64720  0.04960  0.51910  Biso   1.000  O
  O9       1.0000 0.92410  0.99550  0.76450  Biso   1.000  O
  O10      1.0000 0.07590  0.00450  0.26450  Biso   1.000  O
  O11      1.0000 0.42410  0.00450  0.76450  Biso   1.000  O
  O12      1.0000 0.57590  0.99550  0.26450  Biso   1.000  O
  O13      1.0000 0.90320  0.49600  0.02130  Biso   1.000  O
  O14      1.0000 0.09680  0.50400  0.52130  Biso   1.000  O
  O15      1.0000 0.40320  0.50400  0.02130  Biso   1.000  O
  O16      1.0000 0.59680  0.49600  0.52130  Biso   1.000  O
  N1       1.0000 0.95100  0.86700  0.91520  Biso   1.000  N
  N2       1.0000 0.04900  0.13300  0.41520  Biso   1.000  N
  N3       1.0000 0.45100  0.13300  0.91520  Biso   1.000  N
  N4       1.0000 0.54900  0.86700  0.41520  Biso   1.000  N
  C1       1.0000 0.97670  0.67870  0.99460  Biso   1.000  C
  C2       1.0000 0.02330  0.32130  0.49460  Biso   1.000  C
  C3       1.0000 0.47670  0.32130  0.99460  Biso   1.000  C
  C4       1.0000 0.52330  0.67870  0.49460  Biso   1.000  C
  C5       1.0000 0.93380  0.76600  0.96110  Biso   1.000  C
  C6       1.0000 0.06620  0.23400  0.46110  Biso   1.000  C
  C7       1.0000 0.43380  0.23400  0.96110  Biso   1.000  C
  C8       1.0000 0.56620  0.76600  0.46110  Biso   1.000  C
  H1       1.0000 0.89130  0.75380  0.97090  Biso   1.000  H
  H2       1.0000 0.10870  0.24620  0.47090  Biso   1.000  H
  H3       1.0000 0.39130  0.24620  0.97090  Biso   1.000  H
  H4       1.0000 0.60870  0.75380  0.47090  Biso   1.000  H
  C9       1.0000 0.01330  0.88160  0.90110  Biso   1.000  C
  C10      1.0000 0.98670  0.11840  0.40110  Biso   1.000  C
  C11      1.0000 0.51330  0.11840  0.90110  Biso   1.000  C
  C12      1.0000 0.48670  0.88160  0.40110  Biso   1.000  C
  H5       1.0000 0.02590  0.95120  0.86890  Biso   1.000  H
  H6       1.0000 0.97410  0.04880  0.36890  Biso   1.000  H
  H7       1.0000 0.52590  0.04880  0.86890  Biso   1.000  H
  H8       1.0000 0.47410  0.95120  0.36890  Biso   1.000  H
  C13      1.0000 0.05710  0.79990  0.93170  Biso   1.000  C
  C14      1.0000 0.94290  0.20010  0.43170  Biso   1.000  C
  C15      1.0000 0.55710  0.20010  0.93170  Biso   1.000  C
  C16      1.0000 0.44290  0.79990  0.43170  Biso   1.000  C
  H9       1.0000 0.09900  0.81240  0.91960  Biso   1.000  H
  H10      1.0000 0.90100  0.18760  0.41960  Biso   1.000  H
  H11      1.0000 0.59900  0.18760  0.91960  Biso   1.000  H
  H12      1.0000 0.40100  0.81240  0.41960  Biso   1.000  H
  C17      1.0000 0.04090  0.69790  0.98070  Biso   1.000  C
  C18      1.0000 0.95910  0.30210  0.48070  Biso   1.000  C
  C19      1.0000 0.54090  0.30210  0.98070  Biso   1.000  C
  C20      1.0000 0.45910  0.69790  0.48070  Biso   1.000  C
  H13      1.0000 0.07130  0.64360  0.00370  Biso   1.000  H
  H14      1.0000 0.92870  0.35640  0.50370  Biso   1.000  H
  H15      1.0000 0.57130  0.35640  0.00370  Biso   1.000  H
  H16      1.0000 0.42870  0.64360  0.50370  Biso   1.000  H
  C21      1.0000 0.95280  0.55830  0.03740  Biso   1.000  C
  C22      1.0000 0.04720  0.44170  0.53740  Biso   1.000  C
  C23      1.0000 0.45280  0.44170  0.03740  Biso   1.000  C
  C24      1.0000 0.54720  0.55830  0.53740  Biso   1.000  C
  O17      1.0000 0.92470  0.45010  0.30060  Biso   1.000  O
  O18      1.0000 0.07530  0.54990  0.80060  Biso   1.000  O
  O19      1.0000 0.42470  0.54990  0.30060  Biso   1.000  O
  O20      1.0000 0.57530  0.45010  0.80060  Biso   1.000  O
  N5       1.0000 0.05060  0.82140  0.40030  Biso   1.000  N
  N6       1.0000 0.94940  0.17860  0.90030  Biso   1.000  N
  N7       1.0000 0.55060  0.17860  0.40030  Biso   1.000  N
  N8       1.0000 0.44940  0.82140  0.90030  Biso   1.000  N
  C25      1.0000 0.99060  0.62530  0.35460  Biso   1.000  C
  C26      1.0000 0.00940  0.37470  0.85460  Biso   1.000  C
  C27      1.0000 0.49060  0.37470  0.35460  Biso   1.000  C
  C28      1.0000 0.50940  0.62530  0.85460  Biso   1.000  C
  C29      1.0000 0.03720  0.72150  0.34960  Biso   1.000  C
  C30      1.0000 0.96280  0.27850  0.84960  Biso   1.000  C
  C31      1.0000 0.53720  0.27850  0.34960  Biso   1.000  C
  C32      1.0000 0.46280  0.72150  0.84960  Biso   1.000  C
  H17      1.0000 0.06210  0.71980  0.30900  Biso   1.000  H
  H18      1.0000 0.93790  0.28020  0.80900  Biso   1.000  H
  H19      1.0000 0.56210  0.28020  0.30900  Biso   1.000  H
  H20      1.0000 0.43790  0.71980  0.80900  Biso   1.000  H
  C33      1.0000 0.01340  0.81650  0.45770  Biso   1.000  C
  C34      1.0000 0.98660  0.18350  0.95770  Biso   1.000  C
  C35      1.0000 0.51340  0.18350  0.45770  Biso   1.000  C
  C36      1.0000 0.48660  0.81650  0.95770  Biso   1.000  C
  H21      1.0000 0.02100  0.88270  0.49350  Biso   1.000  H
  H22      1.0000 0.97900  0.11730  0.99350  Biso   1.000  H
  H23      1.0000 0.52100  0.11730  0.49350  Biso   1.000  H
  H24      1.0000 0.47900  0.88270  0.99350  Biso   1.000  H
  C37      1.0000 0.96580  0.72320  0.46810  Biso   1.000  C
  C38      1.0000 0.03420  0.27680  0.96810  Biso   1.000  C
  C39      1.0000 0.46580  0.27680  0.46810  Biso   1.000  C
  C40      1.0000 0.53420  0.72320  0.96810  Biso   1.000  C
  H25      1.0000 0.94320  0.72230  0.51040  Biso   1.000  H
  H26      1.0000 0.05680  0.27770  0.01040  Biso   1.000  H
  H27      1.0000 0.44320  0.27770  0.51040  Biso   1.000  H
  H28      1.0000 0.55680  0.72230  0.01040  Biso   1.000  H
  C41      1.0000 0.95220  0.63230  0.41530  Biso   1.000  C
  C42      1.0000 0.04780  0.36770  0.91530  Biso   1.000  C
  C43      1.0000 0.45220  0.36770  0.41530  Biso   1.000  C
  C44      1.0000 0.54780  0.63230  0.91530  Biso   1.000  C
  H29      1.0000 0.91720  0.57350  0.41880  Biso   1.000  H
  H30      1.0000 0.08280  0.42650  0.91880  Biso   1.000  H
  H31      1.0000 0.41720  0.42650  0.41880  Biso   1.000  H
  H32      1.0000 0.58280  0.57350  0.91880  Biso   1.000  H
  C45      1.0000 0.97560  0.51190  0.30030  Biso   1.000  C
  C46      1.0000 0.02440  0.48810  0.80030  Biso   1.000  C
  C47      1.0000 0.47560  0.48810  0.30030  Biso   1.000  C
  C48      1.0000 0.52440  0.51190  0.80030  Biso   1.000  C
  N9       1.0000 0.98360  0.52070  0.09700  Biso   1.000  N
  N10      1.0000 0.01640  0.47930  0.59700  Biso   1.000  N
  N11      1.0000 0.48360  0.47930  0.09700  Biso   1.000  N
  N12      1.0000 0.51640  0.52070  0.59700  Biso   1.000  N
  H33      1.0000 0.01670  0.56710  0.10900  Biso   1.000  H
  H34      1.0000 0.98330  0.43290  0.60900  Biso   1.000  H
  H35      1.0000 0.51670  0.43290  0.10900  Biso   1.000  H
  H36      1.0000 0.48330  0.56710  0.60900  Biso   1.000  H
  N13      1.0000 0.01880  0.48120  0.25270  Biso   1.000  N
  N14      1.0000 0.98120  0.51880  0.75270  Biso   1.000  N
  N15      1.0000 0.51880  0.51880  0.25270  Biso   1.000  N
  N16      1.0000 0.48120  0.48120  0.75270  Biso   1.000  N
  H37      1.0000 0.05340  0.52860  0.25270  Biso   1.000  H
  H38      1.0000 0.94660  0.47140  0.75270  Biso   1.000  H
  H39      1.0000 0.55340  0.47140  0.25270  Biso   1.000  H
  H40      1.0000 0.44660  0.52860  0.75270  Biso   1.000  H
  C49      1.0000 0.96200  0.40270  0.14210  Biso   1.000  C
  C50      1.0000 0.03800  0.59730  0.64210  Biso   1.000  C
  C51      1.0000 0.46200  0.59730  0.14210  Biso   1.000  C
  C52      1.0000 0.53800  0.40270  0.64210  Biso   1.000  C
  H41      1.0000 0.95480  0.31930  0.11280  Biso   1.000  H
  H42      1.0000 0.04520  0.68070  0.61280  Biso   1.000  H
  H43      1.0000 0.45480  0.68070  0.11280  Biso   1.000  H
  H44      1.0000 0.54520  0.31930  0.61280  Biso   1.000  H
  H45      1.0000 0.92250  0.42860  0.16430  Biso   1.000  H
  H46      1.0000 0.07750  0.57140  0.66430  Biso   1.000  H
  H47      1.0000 0.42250  0.57140  0.16430  Biso   1.000  H
  H48      1.0000 0.57750  0.42860  0.66430  Biso   1.000  H
  C53      1.0000 0.00970  0.36710  0.19920  Biso   1.000  C
  C54      1.0000 0.99030  0.63290  0.69920  Biso   1.000  C
  C55      1.0000 0.50970  0.63290  0.19920  Biso   1.000  C
  C56      1.0000 0.49030  0.36710  0.69920  Biso   1.000  C
  H49      1.0000 0.99630  0.28100  0.22340  Biso   1.000  H
  H50      1.0000 0.00370  0.71900  0.72340  Biso   1.000  H
  H51      1.0000 0.49630  0.71900  0.22340  Biso   1.000  H
  H52      1.0000 0.50370  0.28100  0.72340  Biso   1.000  H
  H53      1.0000 0.04970  0.34720  0.17660  Biso   1.000  H
  H54      1.0000 0.95030  0.65280  0.67660  Biso   1.000  H
  H55      1.0000 0.54970  0.65280  0.17660  Biso   1.000  H
  H56      1.0000 0.45030  0.34720  0.67660  Biso   1.000  H
  O21      1.0000 0.67160  0.46210  0.96950  Biso   1.000  O
  O22      1.0000 0.32840  0.53790  0.46950  Biso   1.000  O
  O23      1.0000 0.17160  0.53790  0.96950  Biso   1.000  O
  O24      1.0000 0.82840  0.46210  0.46950  Biso   1.000  O
  N17      1.0000 0.82050  0.16710  0.85950  Biso   1.000  N
  N18      1.0000 0.17950  0.83290  0.35950  Biso   1.000  N
  N19      1.0000 0.32050  0.83290  0.85950  Biso   1.000  N
  N20      1.0000 0.67950  0.16710  0.35950  Biso   1.000  N
  C57      1.0000 0.74890  0.33890  0.90270  Biso   1.000  C
  C58      1.0000 0.25110  0.66110  0.40270  Biso   1.000  C
  C59      1.0000 0.24890  0.66110  0.90270  Biso   1.000  C
  C60      1.0000 0.75110  0.33890  0.40270  Biso   1.000  C
  C61      1.0000 0.80320  0.26220  0.90910  Biso   1.000  C
  C62      1.0000 0.19680  0.73780  0.40910  Biso   1.000  C
  C63      1.0000 0.30320  0.73780  0.90910  Biso   1.000  C
  C64      1.0000 0.69680  0.26220  0.40910  Biso   1.000  C
  H57      1.0000 0.82880  0.27630  0.94860  Biso   1.000  H
  H58      1.0000 0.17120  0.72370  0.44860  Biso   1.000  H
  H59      1.0000 0.32880  0.72370  0.94860  Biso   1.000  H
  H60      1.0000 0.67120  0.27630  0.44860  Biso   1.000  H
  C65      1.0000 0.78220  0.14730  0.80210  Biso   1.000  C
  C66      1.0000 0.21780  0.85270  0.30210  Biso   1.000  C
  C67      1.0000 0.28220  0.85270  0.80210  Biso   1.000  C
  C68      1.0000 0.71780  0.14730  0.30210  Biso   1.000  C
  H61      1.0000 0.79320  0.07900  0.76850  Biso   1.000  H
  H62      1.0000 0.20680  0.92100  0.26850  Biso   1.000  H
  H63      1.0000 0.29320  0.92100  0.76850  Biso   1.000  H
  H64      1.0000 0.70680  0.07900  0.26850  Biso   1.000  H
  C69      1.0000 0.72830  0.22370  0.79210  Biso   1.000  C
  C70      1.0000 0.27170  0.77630  0.29210  Biso   1.000  C
  C71      1.0000 0.22830  0.77630  0.79210  Biso   1.000  C
  C72      1.0000 0.77170  0.22370  0.29210  Biso   1.000  C
  H65      1.0000 0.70460  0.21330  0.75090  Biso   1.000  H
  H66      1.0000 0.29540  0.78670  0.25090  Biso   1.000  H
  H67      1.0000 0.20460  0.78670  0.75090  Biso   1.000  H
  H68      1.0000 0.79540  0.21330  0.25090  Biso   1.000  H
  C73      1.0000 0.71020  0.31690  0.84520  Biso   1.000  C
  C74      1.0000 0.28980  0.68310  0.34520  Biso   1.000  C
  C75      1.0000 0.21020  0.68310  0.84520  Biso   1.000  C
  C76      1.0000 0.78980  0.31690  0.34520  Biso   1.000  C
  H69      1.0000 0.67200  0.36450  0.84200  Biso   1.000  H
  H70      1.0000 0.32800  0.63550  0.34200  Biso   1.000  H
  H71      1.0000 0.17200  0.63550  0.84200  Biso   1.000  H
  H72      1.0000 0.82800  0.36450  0.34200  Biso   1.000  H
  C77      1.0000 0.72820  0.43360  0.96130  Biso   1.000  C
  C78      1.0000 0.27180  0.56640  0.46130  Biso   1.000  C
  C79      1.0000 0.22820  0.56640  0.96130  Biso   1.000  C
  C80      1.0000 0.77180  0.43360  0.46130  Biso   1.000  C
  O25      1.0000 0.66750  0.52220  0.22880  Biso   1.000  O
  O26      1.0000 0.33250  0.47780  0.72880  Biso   1.000  O
  O27      1.0000 0.16750  0.47780  0.22880  Biso   1.000  O
  O28      1.0000 0.83250  0.52220  0.72880  Biso   1.000  O
  N21      1.0000 0.67940  0.86720  0.36910  Biso   1.000  N
  N22      1.0000 0.32060  0.13280  0.86910  Biso   1.000  N
  N23      1.0000 0.17940  0.13280  0.36910  Biso   1.000  N
  N24      1.0000 0.82060  0.86720  0.86910  Biso   1.000  N
  C81      1.0000 0.72600  0.68400  0.29900  Biso   1.000  C
  C82      1.0000 0.27400  0.31600  0.79900  Biso   1.000  C
  C83      1.0000 0.22600  0.31600  0.29900  Biso   1.000  C
  C84      1.0000 0.77400  0.68400  0.79900  Biso   1.000  C
  C85      1.0000 0.67570  0.76730  0.31770  Biso   1.000  C
  C86      1.0000 0.32430  0.23270  0.81770  Biso   1.000  C
  C87      1.0000 0.17570  0.23270  0.31770  Biso   1.000  C
  C88      1.0000 0.82430  0.76730  0.81770  Biso   1.000  C
  H73      1.0000 0.63780  0.75440  0.29410  Biso   1.000  H
  H74      1.0000 0.36220  0.24560  0.79410  Biso   1.000  H
  H75      1.0000 0.13780  0.24560  0.29410  Biso   1.000  H
  H76      1.0000 0.86220  0.75440  0.79410  Biso   1.000  H
  C89      1.0000 0.73390  0.87700  0.40680  Biso   1.000  C
  C90      1.0000 0.26610  0.12300  0.90680  Biso   1.000  C
  C91      1.0000 0.23390  0.12300  0.40680  Biso   1.000  C
  C92      1.0000 0.76610  0.87700  0.90680  Biso   1.000  C
  H77      1.0000 0.73690  0.94180  0.44400  Biso   1.000  H
  H78      1.0000 0.26310  0.05820  0.94400  Biso   1.000  H
  H79      1.0000 0.23690  0.05820  0.44400  Biso   1.000  H
  H80      1.0000 0.76310  0.94180  0.94400  Biso   1.000  H
  C93      1.0000 0.78450  0.79240  0.39040  Biso   1.000  C
  C94      1.0000 0.21550  0.20760  0.89040  Biso   1.000  C
  C95      1.0000 0.28450  0.20760  0.39040  Biso   1.000  C
  C96      1.0000 0.71550  0.79240  0.89040  Biso   1.000  C
  H81      1.0000 0.82120  0.80150  0.41680  Biso   1.000  H
  H82      1.0000 0.17880  0.19850  0.91680  Biso   1.000  H
  H83      1.0000 0.32120  0.19850  0.41680  Biso   1.000  H
  H84      1.0000 0.67880  0.80150  0.91680  Biso   1.000  H
  C97      1.0000 0.78230  0.69520  0.33640  Biso   1.000  C
  C98      1.0000 0.21770  0.30480  0.83640  Biso   1.000  C
  C99      1.0000 0.28230  0.30480  0.33640  Biso   1.000  C
  C100     1.0000 0.71770  0.69520  0.83640  Biso   1.000  C
  H85      1.0000 0.81690  0.63900  0.32510  Biso   1.000  H
  H86      1.0000 0.18310  0.36100  0.82510  Biso   1.000  H
  H87      1.0000 0.31690  0.36100  0.32510  Biso   1.000  H
  H88      1.0000 0.68310  0.63900  0.82510  Biso   1.000  H
  C101     1.0000 0.71720  0.58510  0.23720  Biso   1.000  C
  C102     1.0000 0.28280  0.41490  0.73720  Biso   1.000  C
  C103     1.0000 0.21720  0.41490  0.23720  Biso   1.000  C
  C104     1.0000 0.78280  0.58510  0.73720  Biso   1.000  C
  N25      1.0000 0.77300  0.49390  0.00330  Biso   1.000  N
  N26      1.0000 0.22700  0.50610  0.50330  Biso   1.000  N
  N27      1.0000 0.27300  0.50610  0.00330  Biso   1.000  N
  N28      1.0000 0.72700  0.49390  0.50330  Biso   1.000  N
  H89      1.0000 0.81170  0.48280  0.99130  Biso   1.000  H
  H90      1.0000 0.18830  0.51720  0.49130  Biso   1.000  H
  H91      1.0000 0.31170  0.51720  0.99130  Biso   1.000  H
  H92      1.0000 0.68830  0.48280  0.49130  Biso   1.000  H
  N29      1.0000 0.76780  0.56630  0.19590  Biso   1.000  N
  N30      1.0000 0.23220  0.43370  0.69590  Biso   1.000  N
  N31      1.0000 0.26780  0.43370  0.19590  Biso   1.000  N
  N32      1.0000 0.73220  0.56630  0.69590  Biso   1.000  N
  H93      1.0000 0.80180  0.60890  0.20850  Biso   1.000  H
  H94      1.0000 0.19820  0.39110  0.70850  Biso   1.000  H
  H95      1.0000 0.30180  0.39110  0.20850  Biso   1.000  H
  H96      1.0000 0.69820  0.60890  0.70850  Biso   1.000  H
  C105     1.0000 0.75980  0.57520  0.06660  Biso   1.000  C
  C106     1.0000 0.24020  0.42480  0.56660  Biso   1.000  C
  C107     1.0000 0.25980  0.42480  0.06660  Biso   1.000  C
  C108     1.0000 0.74020  0.57520  0.56660  Biso   1.000  C
  H97      1.0000 0.78720  0.65770  0.06880  Biso   1.000  H
  H98      1.0000 0.21280  0.34230  0.56880  Biso   1.000  H
  H99      1.0000 0.28720  0.34230  0.06880  Biso   1.000  H
  H100     1.0000 0.71280  0.65770  0.56880  Biso   1.000  H
  H101     1.0000 0.71670  0.60850  0.06570  Biso   1.000  H
  H102     1.0000 0.28330  0.39150  0.56570  Biso   1.000  H
  H103     1.0000 0.21670  0.39150  0.06570  Biso   1.000  H
  H104     1.0000 0.78330  0.60850  0.56570  Biso   1.000  H
  C109     1.0000 0.77040  0.48070  0.13190  Biso   1.000  C
  C110     1.0000 0.22960  0.51930  0.63190  Biso   1.000  C
  C111     1.0000 0.27040  0.51930  0.13190  Biso   1.000  C
  C112     1.0000 0.72960  0.48070  0.63190  Biso   1.000  C
  H105     1.0000 0.81100  0.43440  0.12850  Biso   1.000  H
  H106     1.0000 0.18900  0.56560  0.62850  Biso   1.000  H
  H107     1.0000 0.31100  0.56560  0.12850  Biso   1.000  H
  H108     1.0000 0.68900  0.43440  0.62850  Biso   1.000  H
  H109     1.0000 0.73840  0.40720  0.13380  Biso   1.000  H
  H110     1.0000 0.26160  0.59280  0.63380  Biso   1.000  H
  H111     1.0000 0.23840  0.59280  0.13380  Biso   1.000  H
  H112     1.0000 0.76160  0.40720  0.63380  Biso   1.000  H
  P1       1.0000 0.82634  0.98380  0.58991  Biso   1.000  P
  P2       1.0000 0.17366  0.01620  0.08991  Biso   1.000  P
  P3       1.0000 0.32634  0.01620  0.58991  Biso   1.000  P
  P4       1.0000 0.67366  0.98380  0.08991  Biso   1.000  P
  F1       1.0000 0.75820  0.92430  0.57560  Biso   1.000  F
  F2       1.0000 0.24180  0.07570  0.07560  Biso   1.000  F
  F3       1.0000 0.25820  0.07570  0.57560  Biso   1.000  F
  F4       1.0000 0.74180  0.92430  0.07560  Biso   1.000  F
  F5       1.0000 0.89310  0.04130  0.59590  Biso   1.000  F
  F6       1.0000 0.10690  0.95870  0.09590  Biso   1.000  F
  F7       1.0000 0.39310  0.95870  0.59590  Biso   1.000  F
  F8       1.0000 0.60690  0.04130  0.09590  Biso   1.000  F
  F9       1.0000 0.84990  0.85460  0.55430  Biso   1.000  F
  F10      1.0000 0.15010  0.14540  0.05430  Biso   1.000  F
  F11      1.0000 0.34990  0.14540  0.55430  Biso   1.000  F
  F12      1.0000 0.65010  0.85460  0.05430  Biso   1.000  F
  F13      1.0000 0.82430  0.91840  0.66270  Biso   1.000  F
  F14      1.0000 0.17570  0.08160  0.16270  Biso   1.000  F
  F15      1.0000 0.32430  0.08160  0.66270  Biso   1.000  F
  F16      1.0000 0.67570  0.91840  0.16270  Biso   1.000  F
  F17      1.0000 0.82590  0.05700  0.52120  Biso   1.000  F
  F18      1.0000 0.17410  0.94300  0.02120  Biso   1.000  F
  F19      1.0000 0.32590  0.94300  0.52120  Biso   1.000  F
  F20      1.0000 0.67410  0.05700  0.02120  Biso   1.000  F
  F21      1.0000 0.79770  0.11570  0.62220  Biso   1.000  F
  F22      1.0000 0.20230  0.88430  0.12220  Biso   1.000  F
  F23      1.0000 0.29770  0.88430  0.62220  Biso   1.000  F
  F24      1.0000 0.70230  0.11570  0.12220  Biso   1.000  F
  P5       1.0000 0.59213  0.89300  0.69780  Biso   1.000  P
  P6       1.0000 0.40787  0.10700  0.19780  Biso   1.000  P
  P7       1.0000 0.09213  0.10700  0.69780  Biso   1.000  P
  P8       1.0000 0.90787  0.89300  0.19780  Biso   1.000  P
  F25      1.0000 0.66160  0.94000  0.70150  Biso   1.000  F
  F26      1.0000 0.33840  0.06000  0.20150  Biso   1.000  F
  F27      1.0000 0.16160  0.06000  0.70150  Biso   1.000  F
  F28      1.0000 0.83840  0.94000  0.20150  Biso   1.000  F
  F29      1.0000 0.52440  0.83570  0.69790  Biso   1.000  F
  F30      1.0000 0.47560  0.16430  0.19790  Biso   1.000  F
  F31      1.0000 0.02440  0.16430  0.69790  Biso   1.000  F
  F32      1.0000 0.97560  0.83570  0.19790  Biso   1.000  F
  F33      1.0000 0.59680  0.85600  0.62150  Biso   1.000  F
  F34      1.0000 0.40320  0.14400  0.12150  Biso   1.000  F
  F35      1.0000 0.09680  0.14400  0.62150  Biso   1.000  F
  F36      1.0000 0.90320  0.85600  0.12150  Biso   1.000  F
  F37      1.0000 0.57410  0.04210  0.68560  Biso   1.000  F
  F38      1.0000 0.42590  0.95790  0.18560  Biso   1.000  F
  F39      1.0000 0.07410  0.95790  0.68560  Biso   1.000  F
  F40      1.0000 0.92590  0.04210  0.18560  Biso   1.000  F
  F41      1.0000 0.61010  0.74230  0.71150  Biso   1.000  F
  F42      1.0000 0.38990  0.25770  0.21150  Biso   1.000  F
  F43      1.0000 0.11010  0.25770  0.71150  Biso   1.000  F
  F44      1.0000 0.88990  0.74230  0.21150  Biso   1.000  F
  F45      1.0000 0.58500  0.92000  0.77640  Biso   1.000  F
  F46      1.0000 0.41500  0.08000  0.27640  Biso   1.000  F
  F47      1.0000 0.08500  0.08000  0.77640  Biso   1.000  F
  F48      1.0000 0.91500  0.92000  0.27640  Biso   1.000  F
