data_image0
_cell_length_a       11.787
_cell_length_b       15.941
_cell_length_c       16.312
_cell_angle_alpha    65.77
_cell_angle_beta     75.63
_cell_angle_gamma    86.96

_symmetry_space_group_name_H-M    "P 1"
_symmetry_int_tables_number       1

loop_
  _symmetry_equiv_pos_as_xyz
  'x, y, z'

loop_
  _atom_site_label
  _atom_site_occupancy
  _atom_site_fract_x
  _atom_site_fract_y
  _atom_site_fract_z
  _atom_site_thermal_displace_type
  _atom_site_B_iso_or_equiv
  _atom_site_type_symbol
  Cu1      1.0000 0.35556  0.67219  0.21366  Biso   1.000  Cu
  Cu2      1.0000 0.64444  0.32781  0.78634  Biso   1.000  Cu
  P1       1.0000 0.85145  0.54678  0.31723  Biso   1.000  P
  P2       1.0000 0.14855  0.45322  0.68277  Biso   1.000  P
  O1       1.0000 0.49590  0.74400  0.24560  Biso   1.000  O
  O2       1.0000 0.50410  0.25600  0.75440  Biso   1.000  O
  O3       1.0000 0.20380  0.59130  0.17890  Biso   1.000  O
  O4       1.0000 0.79620  0.40870  0.82110  Biso   1.000  O
  N1       1.0000 0.32710  0.79030  0.11040  Biso   1.000  N
  N2       1.0000 0.67290  0.20970  0.88960  Biso   1.000  N
  C1       1.0000 0.30590  0.79000  0.03310  Biso   1.000  C
  C2       1.0000 0.69410  0.21000  0.96690  Biso   1.000  C
  H1       1.0000 0.29630  0.73380  0.03010  Biso   1.000  H
  H2       1.0000 0.70370  0.26620  0.96990  Biso   1.000  H
  C3       1.0000 0.29800  0.87110  0.95750  Biso   1.000  C
  C4       1.0000 0.70200  0.12890  0.04250  Biso   1.000  C
  H3       1.0000 0.28080  0.86920  0.90560  Biso   1.000  H
  H4       1.0000 0.71920  0.13080  0.09440  Biso   1.000  H
  C5       1.0000 0.31640  0.95650  0.96080  Biso   1.000  C
  C6       1.0000 0.68360  0.04350  0.03920  Biso   1.000  C
  C7       1.0000 0.33780  0.95520  0.04050  Biso   1.000  C
  C8       1.0000 0.66220  0.04480  0.95950  Biso   1.000  C
  H5       1.0000 0.34940  0.01010  0.04530  Biso   1.000  H
  H6       1.0000 0.65060  0.98990  0.95470  Biso   1.000  H
  C9       1.0000 0.34180  0.87240  0.11250  Biso   1.000  C
  C10      1.0000 0.65820  0.12760  0.88750  Biso   1.000  C
  H7       1.0000 0.35540  0.87300  0.16600  Biso   1.000  H
  H8       1.0000 0.64460  0.12700  0.83400  Biso   1.000  H
  C11      1.0000 0.31140  0.04830  0.88230  Biso   1.000  C
  C12      1.0000 0.68860  0.95170  0.11770  Biso   1.000  C
  O5       1.0000 0.35630  0.11580  0.88060  Biso   1.000  O
  O6       1.0000 0.64370  0.88420  0.11940  Biso   1.000  O
  N3       1.0000 0.37210  0.54820  0.31440  Biso   1.000  N
  N4       1.0000 0.62790  0.45180  0.68560  Biso   1.000  N
  C13      1.0000 0.27750  0.49010  0.36930  Biso   1.000  C
  C14      1.0000 0.72250  0.50990  0.63070  Biso   1.000  C
  H9       1.0000 0.20480  0.50620  0.35670  Biso   1.000  H
  H10      1.0000 0.79520  0.49380  0.64330  Biso   1.000  H
  C15      1.0000 0.28380  0.40970  0.44190  Biso   1.000  C
  C16      1.0000 0.71620  0.59030  0.55810  Biso   1.000  C
  H11      1.0000 0.21690  0.37140  0.47750  Biso   1.000  H
  H12      1.0000 0.78310  0.62860  0.52250  Biso   1.000  H
  C17      1.0000 0.39380  0.38480  0.46280  Biso   1.000  C
  C18      1.0000 0.60620  0.61520  0.53720  Biso   1.000  C
  C19      1.0000 0.48790  0.44380  0.40980  Biso   1.000  C
  C20      1.0000 0.51210  0.55620  0.59020  Biso   1.000  C
  H13      1.0000 0.56030  0.43050  0.42390  Biso   1.000  H
  H14      1.0000 0.43970  0.56950  0.57610  Biso   1.000  H
  C21      1.0000 0.47790  0.52350  0.33510  Biso   1.000  C
  C22      1.0000 0.52210  0.47650  0.66490  Biso   1.000  C
  H15      1.0000 0.54460  0.56140  0.29780  Biso   1.000  H
  H16      1.0000 0.45540  0.43860  0.70220  Biso   1.000  H
  C23      1.0000 0.40510  0.29890  0.54420  Biso   1.000  C
  C24      1.0000 0.59490  0.70110  0.45580  Biso   1.000  C
  O7       1.0000 0.48800  0.29670  0.57900  Biso   1.000  O
  O8       1.0000 0.51200  0.70330  0.42100  Biso   1.000  O
  N5       1.0000 0.26120  0.04860  0.81750  Biso   1.000  N
  N6       1.0000 0.73880  0.95140  0.18250  Biso   1.000  N
  H17      1.0000 0.23460  0.99730  0.82200  Biso   1.000  H
  H18      1.0000 0.76540  0.00270  0.17800  Biso   1.000  H
  N7       1.0000 0.33080  0.22690  0.57290  Biso   1.000  N
  N8       1.0000 0.66920  0.77310  0.42710  Biso   1.000  N
  H19      1.0000 0.27640  0.23190  0.54470  Biso   1.000  H
  H20      1.0000 0.72360  0.76810  0.45530  Biso   1.000  H
  C25      1.0000 0.25010  0.13400  0.73870  Biso   1.000  C
  C26      1.0000 0.74990  0.86600  0.26130  Biso   1.000  C
  H21      1.0000 0.26390  0.18650  0.75130  Biso   1.000  H
  H22      1.0000 0.73610  0.81350  0.24870  Biso   1.000  H
  H23      1.0000 0.17110  0.13570  0.73070  Biso   1.000  H
  H24      1.0000 0.82890  0.86430  0.26930  Biso   1.000  H
  C27      1.0000 0.33780  0.14020  0.65000  Biso   1.000  C
  C28      1.0000 0.66220  0.85980  0.35000  Biso   1.000  C
  H25      1.0000 0.41660  0.13530  0.65910  Biso   1.000  H
  H26      1.0000 0.58340  0.86470  0.34090  Biso   1.000  H
  H27      1.0000 0.32150  0.08940  0.63570  Biso   1.000  H
  H28      1.0000 0.67850  0.91060  0.36430  Biso   1.000  H
  N9       1.0000 0.48910  0.64870  0.11840  Biso   1.000  N
  N10      1.0000 0.51090  0.35130  0.88160  Biso   1.000  N
  C29      1.0000 0.56510  0.71520  0.05770  Biso   1.000  C
  C30      1.0000 0.43490  0.28480  0.94230  Biso   1.000  C
  H29      1.0000 0.55890  0.77170  0.06190  Biso   1.000  H
  H30      1.0000 0.44110  0.22830  0.93810  Biso   1.000  H
  C31      1.0000 0.65270  0.70850  0.98850  Biso   1.000  C
  C32      1.0000 0.34730  0.29150  0.01150  Biso   1.000  C
  H31      1.0000 0.70620  0.75780  0.94920  Biso   1.000  H
  H32      1.0000 0.29380  0.24220  0.05080  Biso   1.000  H
  C33      1.0000 0.65960  0.62600  0.97860  Biso   1.000  C
  C34      1.0000 0.34040  0.37400  0.02140  Biso   1.000  C
  C35      1.0000 0.58310  0.55610  0.04070  Biso   1.000  C
  C36      1.0000 0.41690  0.44390  0.95930  Biso   1.000  C
  H33      1.0000 0.58760  0.49890  0.03780  Biso   1.000  H
  H34      1.0000 0.41240  0.50110  0.96220  Biso   1.000  H
  C37      1.0000 0.49680  0.56970  0.10960  Biso   1.000  C
  C38      1.0000 0.50320  0.43030  0.89040  Biso   1.000  C
  H35      1.0000 0.44290  0.52140  0.15080  Biso   1.000  H
  H36      1.0000 0.55710  0.47860  0.84920  Biso   1.000  H
  C39      1.0000 0.74660  0.61110  0.89990  Biso   1.000  C
  C40      1.0000 0.25340  0.38890  0.10010  Biso   1.000  C
  O9       1.0000 0.74600  0.53630  0.89550  Biso   1.000  O
  O10      1.0000 0.25400  0.46370  0.10450  Biso   1.000  O
  N11      1.0000 0.22850  0.69920  0.30930  Biso   1.000  N
  N12      1.0000 0.77150  0.30080  0.69070  Biso   1.000  N
  C41      1.0000 0.12440  0.72620  0.29590  Biso   1.000  C
  C42      1.0000 0.87560  0.27380  0.70410  Biso   1.000  C
  H37      1.0000 0.11000  0.73600  0.23910  Biso   1.000  H
  H38      1.0000 0.89000  0.26400  0.76090  Biso   1.000  H
  C43      1.0000 0.03670  0.74050  0.36020  Biso   1.000  C
  C44      1.0000 0.96330  0.25950  0.63980  Biso   1.000  C
  H39      1.0000 0.96400  0.75730  0.34770  Biso   1.000  H
  H40      1.0000 0.03600  0.24270  0.65230  Biso   1.000  H
  C45      1.0000 0.05630  0.72990  0.44480  Biso   1.000  C
  C46      1.0000 0.94370  0.27010  0.55520  Biso   1.000  C
  C47      1.0000 0.16550  0.70180  0.45790  Biso   1.000  C
  C48      1.0000 0.83450  0.29820  0.54210  Biso   1.000  C
  H41      1.0000 0.18330  0.69270  0.51340  Biso   1.000  H
  H42      1.0000 0.81670  0.30730  0.48660  Biso   1.000  H
  C49      1.0000 0.24800  0.68730  0.39050  Biso   1.000  C
  C50      1.0000 0.75200  0.31270  0.60950  Biso   1.000  C
  H43      1.0000 0.32080  0.66830  0.40150  Biso   1.000  H
  H44      1.0000 0.67920  0.33170  0.59850  Biso   1.000  H
  C51      1.0000 0.95760  0.74560  0.51480  Biso   1.000  C
  C52      1.0000 0.04240  0.25440  0.48520  Biso   1.000  C
  O11      1.0000 0.87580  0.79040  0.49340  Biso   1.000  O
  O12      1.0000 0.12420  0.20960  0.50660  Biso   1.000  O
  N13      1.0000 0.82470  0.67900  0.84090  Biso   1.000  N
  N14      1.0000 0.17530  0.32100  0.15910  Biso   1.000  N
  H45      1.0000 0.82370  0.72940  0.84840  Biso   1.000  H
  H46      1.0000 0.17630  0.27060  0.15160  Biso   1.000  H
  N15      1.0000 0.96400  0.70370  0.60210  Biso   1.000  N
  N16      1.0000 0.03600  0.29630  0.39790  Biso   1.000  N
  H47      1.0000 0.02310  0.67090  0.61370  Biso   1.000  H
  H48      1.0000 0.97690  0.32910  0.38630  Biso   1.000  H
  C53      1.0000 0.91220  0.67150  0.76390  Biso   1.000  C
  C54      1.0000 0.08780  0.32850  0.23610  Biso   1.000  C
  H49      1.0000 0.98520  0.70300  0.75530  Biso   1.000  H
  H50      1.0000 0.01480  0.29700  0.24470  Biso   1.000  H
  H51      1.0000 0.92680  0.60720  0.77840  Biso   1.000  H
  H52      1.0000 0.07320  0.39280  0.22160  Biso   1.000  H
  C55      1.0000 0.87480  0.71000  0.68160  Biso   1.000  C
  C56      1.0000 0.12520  0.29000  0.31840  Biso   1.000  C
  H53      1.0000 0.85940  0.77420  0.66760  Biso   1.000  H
  H54      1.0000 0.14060  0.22580  0.33240  Biso   1.000  H
  H55      1.0000 0.80210  0.67810  0.69010  Biso   1.000  H
  H56      1.0000 0.19790  0.32190  0.30990  Biso   1.000  H
  F1       1.0000 0.82100  0.63620  0.33100  Biso   1.000  F
  F2       1.0000 0.17900  0.36380  0.66900  Biso   1.000  F
  F3       1.0000 0.88550  0.45380  0.30630  Biso   1.000  F
  F4       1.0000 0.11450  0.54620  0.69370  Biso   1.000  F
  F5       1.0000 0.95190  0.59980  0.22890  Biso   1.000  F
  F6       1.0000 0.04810  0.40020  0.77110  Biso   1.000  F
  F7       1.0000 0.76770  0.56440  0.25340  Biso   1.000  F
  F8       1.0000 0.23230  0.43560  0.74660  Biso   1.000  F
  F9       1.0000 0.75230  0.49090  0.40730  Biso   1.000  F
  F10      1.0000 0.24770  0.50910  0.59270  Biso   1.000  F
  F11      1.0000 0.93610  0.52600  0.38280  Biso   1.000  F
  F12      1.0000 0.06390  0.47400  0.61720  Biso   1.000  F
