data_image0
_cell_length_a       7.949
_cell_length_b       12.001
_cell_length_c       12.05
_cell_angle_alpha    68.69
_cell_angle_beta     79.83
_cell_angle_gamma    80.23

_symmetry_space_group_name_H-M    "P 1"
_symmetry_int_tables_number       1

loop_
  _symmetry_equiv_pos_as_xyz
  'x, y, z'

loop_
  _atom_site_label
  _atom_site_occupancy
  _atom_site_fract_x
  _atom_site_fract_y
  _atom_site_fract_z
  _atom_site_thermal_displace_type
  _atom_site_B_iso_or_equiv
  _atom_site_type_symbol
  Cu1      1.0000 0.00000  0.50000  0.50000  Biso   1.000  Cu
  Cl1      1.0000 0.68514  0.31362  0.27883  Biso   1.000  Cl
  Cl2      1.0000 0.31486  0.68638  0.72117  Biso   1.000  Cl
  O1       1.0000 0.60360  0.40490  0.32420  Biso   1.000  O
  O2       1.0000 0.39640  0.59510  0.67580  Biso   1.000  O
  O3       1.0000 0.61180  0.32190  0.18030  Biso   1.000  O
  O4       1.0000 0.38820  0.67810  0.81970  Biso   1.000  O
  O5       1.0000 0.66060  0.20800  0.36620  Biso   1.000  O
  O6       1.0000 0.33940  0.79200  0.63380  Biso   1.000  O
  O7       1.0000 0.86030  0.32670  0.24500  Biso   1.000  O
  O8       1.0000 0.13970  0.67330  0.75500  Biso   1.000  O
  O9       1.0000 0.29150  0.53220  0.49630  Biso   1.000  O
  O10      1.0000 0.70850  0.46780  0.50370  Biso   1.000  O
  O11      1.0000 0.54950  0.30250  0.69190  Biso   1.000  O
  O12      1.0000 0.45050  0.69750  0.30810  Biso   1.000  O
  N1       1.0000 0.91470  0.68230  0.46360  Biso   1.000  N
  N2       1.0000 0.08530  0.31770  0.53640  Biso   1.000  N
  O13      1.0000 0.28450  0.91610  0.33250  Biso   1.000  O
  O14      1.0000 0.71550  0.08390  0.66750  Biso   1.000  O
  C1       1.0000 0.98780  0.88630  0.38950  Biso   1.000  C
  C2       1.0000 0.01220  0.11370  0.61050  Biso   1.000  C
  C3       1.0000 0.03200  0.76390  0.42870  Biso   1.000  C
  C4       1.0000 0.96800  0.23610  0.57130  Biso   1.000  C
  H1       1.0000 0.14790  0.73480  0.43180  Biso   1.000  H
  H2       1.0000 0.85210  0.26520  0.56820  Biso   1.000  H
  C5       1.0000 0.74540  0.72910  0.46320  Biso   1.000  C
  C6       1.0000 0.25460  0.27090  0.53680  Biso   1.000  C
  H3       1.0000 0.66190  0.67650  0.48750  Biso   1.000  H
  H4       1.0000 0.33810  0.32350  0.51250  Biso   1.000  H
  C7       1.0000 0.69290  0.85200  0.42800  Biso   1.000  C
  C8       1.0000 0.30710  0.14800  0.57200  Biso   1.000  C
  H5       1.0000 0.57640  0.88010  0.43040  Biso   1.000  H
  H6       1.0000 0.42360  0.11990  0.56960  Biso   1.000  H
  C9       1.0000 0.81490  0.93260  0.38910  Biso   1.000  C
  C10      1.0000 0.18510  0.06740  0.61090  Biso   1.000  C
  H7       1.0000 0.78210  0.01520  0.36350  Biso   1.000  H
  H8       1.0000 0.21790  0.98480  0.63650  Biso   1.000  H
  C11      1.0000 0.13420  0.96250  0.34560  Biso   1.000  C
  C12      1.0000 0.86580  0.03750  0.65440  Biso   1.000  C
  N3       1.0000 0.09690  0.08260  0.31810  Biso   1.000  N
  N4       1.0000 0.90310  0.91740  0.68190  Biso   1.000  N
  H9       1.0000 0.99120  0.11240  0.32750  Biso   1.000  H
  H10      1.0000 0.00880  0.88760  0.67250  Biso   1.000  H
  N5       1.0000 0.15830  0.26410  0.06480  Biso   1.000  N
  N6       1.0000 0.84170  0.73590  0.93520  Biso   1.000  N
  H11      1.0000 0.05530  0.27700  0.09790  Biso   1.000  H
  H12      1.0000 0.94470  0.72300  0.90210  Biso   1.000  H
  C13      1.0000 0.22970  0.16310  0.27330  Biso   1.000  C
  C14      1.0000 0.77030  0.83690  0.72670  Biso   1.000  C
  H13      1.0000 0.32730  0.12680  0.31780  Biso   1.000  H
  H14      1.0000 0.67270  0.87320  0.68220  Biso   1.000  H
  H15      1.0000 0.18580  0.23780  0.28780  Biso   1.000  H
  H16      1.0000 0.81420  0.76220  0.71220  Biso   1.000  H
  C15      1.0000 0.29060  0.19140  0.14020  Biso   1.000  C
  C16      1.0000 0.70940  0.80860  0.85980  Biso   1.000  C
  H17      1.0000 0.39120  0.23430  0.11890  Biso   1.000  H
  H18      1.0000 0.60880  0.76570  0.88110  Biso   1.000  H
  H19      1.0000 0.32430  0.11650  0.12430  Biso   1.000  H
  H20      1.0000 0.67570  0.88350  0.87570  Biso   1.000  H
  N7       1.0000 0.95750  0.46580  0.68170  Biso   1.000  N
  N8       1.0000 0.04250  0.53420  0.31830  Biso   1.000  N
  C17      1.0000 0.05180  0.37960  0.87750  Biso   1.000  C
  C18      1.0000 0.94820  0.62040  0.12250  Biso   1.000  C
  C19      1.0000 0.07780  0.40780  0.75380  Biso   1.000  C
  C20      1.0000 0.92220  0.59220  0.24620  Biso   1.000  C
  H21      1.0000 0.18580  0.38480  0.71910  Biso   1.000  H
  H22      1.0000 0.81420  0.61520  0.28090  Biso   1.000  H
  C21      1.0000 0.80140  0.50010  0.73190  Biso   1.000  C
  C22      1.0000 0.19860  0.49990  0.26810  Biso   1.000  C
  H23      1.0000 0.71590  0.54000  0.68290  Biso   1.000  H
  H24      1.0000 0.28410  0.46000  0.31710  Biso   1.000  H
  C23      1.0000 0.76520  0.47820  0.85230  Biso   1.000  C
  C24      1.0000 0.23480  0.52180  0.14770  Biso   1.000  C
  H25      1.0000 0.65710  0.50460  0.88420  Biso   1.000  H
  H26      1.0000 0.34290  0.49540  0.11580  Biso   1.000  H
  C25      1.0000 0.88900  0.41660  0.92700  Biso   1.000  C
  C26      1.0000 0.11100  0.58340  0.07300  Biso   1.000  C
  H27      1.0000 0.86430  0.40000  0.00940  Biso   1.000  H
  H28      1.0000 0.13570  0.60000  0.99060  Biso   1.000  H
  C27      1.0000 0.19420  0.30990  0.94770  Biso   1.000  C
  C28      1.0000 0.80580  0.69010  0.05230  Biso   1.000  C
  O15      1.0000 0.34110  0.29720  0.89870  Biso   1.000  O
  O16      1.0000 0.65890  0.70280  0.10130  Biso   1.000  O
  C29      1.0000 0.22200  0.03100  0.91200  Biso   1.000  C
  C30      1.0000 0.77800  0.96900  0.08800  Biso   1.000  C
  C31      1.0000 0.13300  0.87450  0.09670  Biso   1.000  C
  C32      1.0000 0.86700  0.12550  0.90330  Biso   1.000  C
  C33      1.0000 0.25900  0.92090  0.00300  Biso   1.000  C
  C34      1.0000 0.74100  0.07910  0.99700  Biso   1.000  C
  C35      1.0000 0.08100  0.97700  0.99500  Biso   1.000  C
  C36      1.0000 0.91900  0.02300  0.00500  Biso   1.000  C
  C37      1.0000 0.03500  0.07800  0.90830  Biso   1.000  C
  C38      1.0000 0.96500  0.92200  0.09170  Biso   1.000  C
