data_image0
_cell_length_a       19.6
_cell_length_b       22.02
_cell_length_c       10.26
_cell_angle_alpha    90
_cell_angle_beta     90
_cell_angle_gamma    90

_symmetry_space_group_name_H-M    "P 1"
_symmetry_int_tables_number       1

loop_
  _symmetry_equiv_pos_as_xyz
  'x, y, z'

loop_
  _atom_site_label
  _atom_site_occupancy
  _atom_site_fract_x
  _atom_site_fract_y
  _atom_site_fract_z
  _atom_site_thermal_displace_type
  _atom_site_B_iso_or_equiv
  _atom_site_type_symbol
  Cu1      1.0000 0.50000  0.25000  0.25000  Biso   1.000  Cu
  Cu2      1.0000 0.00000  0.75000  0.25000  Biso   1.000  Cu
  Cu3      1.0000 0.50000  0.75000  0.75000  Biso   1.000  Cu
  Cu4      1.0000 0.00000  0.25000  0.75000  Biso   1.000  Cu
  N1       1.0000 0.07400  0.75483  0.11230  Biso   1.000  N
  N2       1.0000 0.57400  0.25483  0.11230  Biso   1.000  N
  N3       1.0000 0.42600  0.24517  0.11230  Biso   1.000  N
  N4       1.0000 0.57400  0.24517  0.38770  Biso   1.000  N
  N5       1.0000 0.92600  0.75483  0.38770  Biso   1.000  N
  N6       1.0000 0.92600  0.74517  0.11230  Biso   1.000  N
  N7       1.0000 0.07400  0.74517  0.38770  Biso   1.000  N
  N8       1.0000 0.42600  0.25483  0.38770  Biso   1.000  N
  N9       1.0000 0.92600  0.24517  0.88770  Biso   1.000  N
  N10      1.0000 0.42600  0.74517  0.88770  Biso   1.000  N
  N11      1.0000 0.57400  0.75483  0.88770  Biso   1.000  N
  N12      1.0000 0.42600  0.75483  0.61230  Biso   1.000  N
  N13      1.0000 0.07400  0.24517  0.61230  Biso   1.000  N
  N14      1.0000 0.07400  0.25483  0.88770  Biso   1.000  N
  N15      1.0000 0.92600  0.25483  0.61230  Biso   1.000  N
  N16      1.0000 0.57400  0.74517  0.61230  Biso   1.000  N
  C1       1.0000 0.17320  0.80480  0.03210  Biso   1.000  C
  C2       1.0000 0.67320  0.30480  0.03210  Biso   1.000  C
  C3       1.0000 0.32680  0.19520  0.03210  Biso   1.000  C
  C4       1.0000 0.67320  0.19520  0.46790  Biso   1.000  C
  C5       1.0000 0.82680  0.80480  0.46790  Biso   1.000  C
  C6       1.0000 0.82680  0.69520  0.03210  Biso   1.000  C
  C7       1.0000 0.17320  0.69520  0.46790  Biso   1.000  C
  C8       1.0000 0.32680  0.30480  0.46790  Biso   1.000  C
  C9       1.0000 0.82680  0.19520  0.96790  Biso   1.000  C
  C10      1.0000 0.32680  0.69520  0.96790  Biso   1.000  C
  C11      1.0000 0.67320  0.80480  0.96790  Biso   1.000  C
  C12      1.0000 0.32680  0.80480  0.53210  Biso   1.000  C
  C13      1.0000 0.17320  0.19520  0.53210  Biso   1.000  C
  C14      1.0000 0.17320  0.30480  0.96790  Biso   1.000  C
  C15      1.0000 0.82680  0.30480  0.53210  Biso   1.000  C
  C16      1.0000 0.67320  0.69520  0.53210  Biso   1.000  C
  C17      1.0000 0.12320  0.79670  0.12460  Biso   1.000  C
  C18      1.0000 0.62320  0.29670  0.12460  Biso   1.000  C
  C19      1.0000 0.37680  0.20330  0.12460  Biso   1.000  C
  C20      1.0000 0.62320  0.20330  0.37540  Biso   1.000  C
  C21      1.0000 0.87680  0.79670  0.37540  Biso   1.000  C
  C22      1.0000 0.87680  0.70330  0.12460  Biso   1.000  C
  C23      1.0000 0.12320  0.70330  0.37540  Biso   1.000  C
  C24      1.0000 0.37680  0.29670  0.37540  Biso   1.000  C
  C25      1.0000 0.87680  0.20330  0.87540  Biso   1.000  C
  C26      1.0000 0.37680  0.70330  0.87540  Biso   1.000  C
  C27      1.0000 0.62320  0.79670  0.87540  Biso   1.000  C
  C28      1.0000 0.37680  0.79670  0.62460  Biso   1.000  C
  C29      1.0000 0.12320  0.20330  0.62460  Biso   1.000  C
  C30      1.0000 0.12320  0.29670  0.87540  Biso   1.000  C
  C31      1.0000 0.87680  0.29670  0.62460  Biso   1.000  C
  C32      1.0000 0.62320  0.70330  0.62460  Biso   1.000  C
  H1       1.0000 0.12360  0.82110  0.19840  Biso   1.000  H
  H2       1.0000 0.62360  0.32110  0.19840  Biso   1.000  H
  H3       1.0000 0.37640  0.17890  0.19840  Biso   1.000  H
  H4       1.0000 0.62360  0.17890  0.30160  Biso   1.000  H
  H5       1.0000 0.87640  0.82110  0.30160  Biso   1.000  H
  H6       1.0000 0.87640  0.67890  0.19840  Biso   1.000  H
  H7       1.0000 0.12360  0.67890  0.30160  Biso   1.000  H
  H8       1.0000 0.37640  0.32110  0.30160  Biso   1.000  H
  H9       1.0000 0.87640  0.17890  0.80160  Biso   1.000  H
  H10      1.0000 0.37640  0.67890  0.80160  Biso   1.000  H
  H11      1.0000 0.62360  0.82110  0.80160  Biso   1.000  H
  H12      1.0000 0.37640  0.82110  0.69840  Biso   1.000  H
  H13      1.0000 0.12360  0.17890  0.69840  Biso   1.000  H
  H14      1.0000 0.12360  0.32110  0.80160  Biso   1.000  H
  H15      1.0000 0.87640  0.32110  0.69840  Biso   1.000  H
  H16      1.0000 0.62360  0.67890  0.69840  Biso   1.000  H
  C33      1.0000 0.07460  0.71940  0.00750  Biso   1.000  C
  C34      1.0000 0.57460  0.21940  0.00750  Biso   1.000  C
  C35      1.0000 0.42540  0.28060  0.00750  Biso   1.000  C
  C36      1.0000 0.57460  0.28060  0.49250  Biso   1.000  C
  C37      1.0000 0.92540  0.71940  0.49250  Biso   1.000  C
  C38      1.0000 0.92540  0.78060  0.00750  Biso   1.000  C
  C39      1.0000 0.07460  0.78060  0.49250  Biso   1.000  C
  C40      1.0000 0.42540  0.21940  0.49250  Biso   1.000  C
  C41      1.0000 0.92540  0.28060  0.99250  Biso   1.000  C
  C42      1.0000 0.42540  0.78060  0.99250  Biso   1.000  C
  C43      1.0000 0.57460  0.71940  0.99250  Biso   1.000  C
  C44      1.0000 0.42540  0.71940  0.50750  Biso   1.000  C
  C45      1.0000 0.07460  0.28060  0.50750  Biso   1.000  C
  C46      1.0000 0.07460  0.21940  0.99250  Biso   1.000  C
  C47      1.0000 0.92540  0.21940  0.50750  Biso   1.000  C
  C48      1.0000 0.57460  0.78060  0.50750  Biso   1.000  C
  H17      1.0000 0.04070  0.69010  0.99870  Biso   1.000  H
  H18      1.0000 0.54070  0.19010  0.99870  Biso   1.000  H
  H19      1.0000 0.45930  0.30990  0.99870  Biso   1.000  H
  H20      1.0000 0.54070  0.30990  0.50130  Biso   1.000  H
  H21      1.0000 0.95930  0.69010  0.50130  Biso   1.000  H
  H22      1.0000 0.95930  0.80990  0.99870  Biso   1.000  H
  H23      1.0000 0.04070  0.80990  0.50130  Biso   1.000  H
  H24      1.0000 0.45930  0.19010  0.50130  Biso   1.000  H
  H25      1.0000 0.95930  0.30990  0.00130  Biso   1.000  H
  H26      1.0000 0.45930  0.80990  0.00130  Biso   1.000  H
  H27      1.0000 0.54070  0.69010  0.00130  Biso   1.000  H
  H28      1.0000 0.45930  0.69010  0.49870  Biso   1.000  H
  H29      1.0000 0.04070  0.30990  0.49870  Biso   1.000  H
  H30      1.0000 0.04070  0.19010  0.00130  Biso   1.000  H
  H31      1.0000 0.95930  0.19010  0.49870  Biso   1.000  H
  H32      1.0000 0.54070  0.80990  0.49870  Biso   1.000  H
  C49      1.0000 0.12350  0.72430  0.91120  Biso   1.000  C
  C50      1.0000 0.62350  0.22430  0.91120  Biso   1.000  C
  C51      1.0000 0.37650  0.27570  0.91120  Biso   1.000  C
  C52      1.0000 0.62350  0.27570  0.58880  Biso   1.000  C
  C53      1.0000 0.87650  0.72430  0.58880  Biso   1.000  C
  C54      1.0000 0.87650  0.77570  0.91120  Biso   1.000  C
  C55      1.0000 0.12350  0.77570  0.58880  Biso   1.000  C
  C56      1.0000 0.37650  0.22430  0.58880  Biso   1.000  C
  C57      1.0000 0.87650  0.27570  0.08880  Biso   1.000  C
  C58      1.0000 0.37650  0.77570  0.08880  Biso   1.000  C
  C59      1.0000 0.62350  0.72430  0.08880  Biso   1.000  C
  C60      1.0000 0.37650  0.72430  0.41120  Biso   1.000  C
  C61      1.0000 0.12350  0.27570  0.41120  Biso   1.000  C
  C62      1.0000 0.12350  0.22430  0.08880  Biso   1.000  C
  C63      1.0000 0.87650  0.22430  0.41120  Biso   1.000  C
  C64      1.0000 0.62350  0.77570  0.41120  Biso   1.000  C
  H33      1.0000 0.12280  0.69840  0.83960  Biso   1.000  H
  H34      1.0000 0.62280  0.19840  0.83960  Biso   1.000  H
  H35      1.0000 0.37720  0.30160  0.83960  Biso   1.000  H
  H36      1.0000 0.62280  0.30160  0.66040  Biso   1.000  H
  H37      1.0000 0.87720  0.69840  0.66040  Biso   1.000  H
  H38      1.0000 0.87720  0.80160  0.83960  Biso   1.000  H
  H39      1.0000 0.12280  0.80160  0.66040  Biso   1.000  H
  H40      1.0000 0.37720  0.19840  0.66040  Biso   1.000  H
  H41      1.0000 0.87720  0.30160  0.16040  Biso   1.000  H
  H42      1.0000 0.37720  0.80160  0.16040  Biso   1.000  H
  H43      1.0000 0.62280  0.69840  0.16040  Biso   1.000  H
  H44      1.0000 0.37720  0.69840  0.33960  Biso   1.000  H
  H45      1.0000 0.12280  0.30160  0.33960  Biso   1.000  H
  H46      1.0000 0.12280  0.19840  0.16040  Biso   1.000  H
  H47      1.0000 0.87720  0.19840  0.33960  Biso   1.000  H
  H48      1.0000 0.62280  0.80160  0.33960  Biso   1.000  H
  C65      1.0000 0.17350  0.76840  0.92300  Biso   1.000  C
  C66      1.0000 0.67350  0.26840  0.92300  Biso   1.000  C
  C67      1.0000 0.32650  0.23160  0.92300  Biso   1.000  C
  C68      1.0000 0.67350  0.23160  0.57700  Biso   1.000  C
  C69      1.0000 0.82650  0.76840  0.57700  Biso   1.000  C
  C70      1.0000 0.82650  0.73160  0.92300  Biso   1.000  C
  C71      1.0000 0.17350  0.73160  0.57700  Biso   1.000  C
  C72      1.0000 0.32650  0.26840  0.57700  Biso   1.000  C
  C73      1.0000 0.82650  0.23160  0.07700  Biso   1.000  C
  C74      1.0000 0.32650  0.73160  0.07700  Biso   1.000  C
  C75      1.0000 0.67350  0.76840  0.07700  Biso   1.000  C
  C76      1.0000 0.32650  0.76840  0.42300  Biso   1.000  C
  C77      1.0000 0.17350  0.23160  0.42300  Biso   1.000  C
  C78      1.0000 0.17350  0.26840  0.07700  Biso   1.000  C
  C79      1.0000 0.82650  0.26840  0.42300  Biso   1.000  C
  C80      1.0000 0.67350  0.73160  0.42300  Biso   1.000  C
  H49      1.0000 0.20650  0.77330  0.85870  Biso   1.000  H
  H50      1.0000 0.70650  0.27330  0.85870  Biso   1.000  H
  H51      1.0000 0.29350  0.22670  0.85870  Biso   1.000  H
  H52      1.0000 0.70650  0.22670  0.64130  Biso   1.000  H
  H53      1.0000 0.79350  0.77330  0.64130  Biso   1.000  H
  H54      1.0000 0.79350  0.72670  0.85870  Biso   1.000  H
  H55      1.0000 0.20650  0.72670  0.64130  Biso   1.000  H
  H56      1.0000 0.29350  0.27330  0.64130  Biso   1.000  H
  H57      1.0000 0.79350  0.22670  0.14130  Biso   1.000  H
  H58      1.0000 0.29350  0.72670  0.14130  Biso   1.000  H
  H59      1.0000 0.70650  0.77330  0.14130  Biso   1.000  H
  H60      1.0000 0.29350  0.77330  0.35870  Biso   1.000  H
  H61      1.0000 0.20650  0.22670  0.35870  Biso   1.000  H
  H62      1.0000 0.20650  0.27330  0.14130  Biso   1.000  H
  H63      1.0000 0.79350  0.27330  0.35870  Biso   1.000  H
  H64      1.0000 0.70650  0.72670  0.35870  Biso   1.000  H
  C81      1.0000 0.22740  0.85280  0.05870  Biso   1.000  C
  C82      1.0000 0.72740  0.35280  0.05870  Biso   1.000  C
  C83      1.0000 0.27260  0.14720  0.05870  Biso   1.000  C
  C84      1.0000 0.72740  0.14720  0.44130  Biso   1.000  C
  C85      1.0000 0.77260  0.85280  0.44130  Biso   1.000  C
  C86      1.0000 0.77260  0.64720  0.05870  Biso   1.000  C
  C87      1.0000 0.22740  0.64720  0.44130  Biso   1.000  C
  C88      1.0000 0.27260  0.35280  0.44130  Biso   1.000  C
  C89      1.0000 0.77260  0.14720  0.94130  Biso   1.000  C
  C90      1.0000 0.27260  0.64720  0.94130  Biso   1.000  C
  C91      1.0000 0.72740  0.85280  0.94130  Biso   1.000  C
  C92      1.0000 0.27260  0.85280  0.55870  Biso   1.000  C
  C93      1.0000 0.22740  0.14720  0.55870  Biso   1.000  C
  C94      1.0000 0.22740  0.35280  0.94130  Biso   1.000  C
  C95      1.0000 0.77260  0.35280  0.55870  Biso   1.000  C
  C96      1.0000 0.72740  0.64720  0.55870  Biso   1.000  C
  O1       1.0000 0.24400  0.86299  0.17140  Biso   1.000  O
  O2       1.0000 0.74400  0.36299  0.17140  Biso   1.000  O
  O3       1.0000 0.25600  0.13701  0.17140  Biso   1.000  O
  O4       1.0000 0.74400  0.13701  0.32860  Biso   1.000  O
  O5       1.0000 0.75600  0.86299  0.32860  Biso   1.000  O
  O6       1.0000 0.75600  0.63701  0.17140  Biso   1.000  O
  O7       1.0000 0.24400  0.63701  0.32860  Biso   1.000  O
  O8       1.0000 0.25600  0.36299  0.32860  Biso   1.000  O
  O9       1.0000 0.75600  0.13701  0.82860  Biso   1.000  O
  O10      1.0000 0.25600  0.63701  0.82860  Biso   1.000  O
  O11      1.0000 0.74400  0.86299  0.82860  Biso   1.000  O
  O12      1.0000 0.25600  0.86299  0.67140  Biso   1.000  O
  O13      1.0000 0.24400  0.13701  0.67140  Biso   1.000  O
  O14      1.0000 0.24400  0.36299  0.82860  Biso   1.000  O
  O15      1.0000 0.75600  0.36299  0.67140  Biso   1.000  O
  O16      1.0000 0.74400  0.63701  0.67140  Biso   1.000  O
  N17      1.0000 0.25510  0.87900  0.95540  Biso   1.000  N
  N18      1.0000 0.75510  0.37900  0.95540  Biso   1.000  N
  N19      1.0000 0.24490  0.12100  0.95540  Biso   1.000  N
  N20      1.0000 0.75510  0.12100  0.54460  Biso   1.000  N
  N21      1.0000 0.74490  0.87900  0.54460  Biso   1.000  N
  N22      1.0000 0.74490  0.62100  0.95540  Biso   1.000  N
  N23      1.0000 0.25510  0.62100  0.54460  Biso   1.000  N
  N24      1.0000 0.24490  0.37900  0.54460  Biso   1.000  N
  N25      1.0000 0.74490  0.12100  0.04460  Biso   1.000  N
  N26      1.0000 0.24490  0.62100  0.04460  Biso   1.000  N
  N27      1.0000 0.75510  0.87900  0.04460  Biso   1.000  N
  N28      1.0000 0.24490  0.87900  0.45540  Biso   1.000  N
  N29      1.0000 0.25510  0.12100  0.45540  Biso   1.000  N
  N30      1.0000 0.25510  0.37900  0.04460  Biso   1.000  N
  N31      1.0000 0.74490  0.37900  0.45540  Biso   1.000  N
  N32      1.0000 0.75510  0.62100  0.45540  Biso   1.000  N
  H65      1.0000 0.24290  0.86690  0.87930  Biso   1.000  H
  H66      1.0000 0.74290  0.36690  0.87930  Biso   1.000  H
  H67      1.0000 0.25710  0.13310  0.87930  Biso   1.000  H
  H68      1.0000 0.74290  0.13310  0.62070  Biso   1.000  H
  H69      1.0000 0.75710  0.86690  0.62070  Biso   1.000  H
  H70      1.0000 0.75710  0.63310  0.87930  Biso   1.000  H
  H71      1.0000 0.24290  0.63310  0.62070  Biso   1.000  H
  H72      1.0000 0.25710  0.36690  0.62070  Biso   1.000  H
  H73      1.0000 0.75710  0.13310  0.12070  Biso   1.000  H
  H74      1.0000 0.25710  0.63310  0.12070  Biso   1.000  H
  H75      1.0000 0.74290  0.86690  0.12070  Biso   1.000  H
  H76      1.0000 0.25710  0.86690  0.37930  Biso   1.000  H
  H77      1.0000 0.24290  0.13310  0.37930  Biso   1.000  H
  H78      1.0000 0.24290  0.36690  0.12070  Biso   1.000  H
  H79      1.0000 0.75710  0.36690  0.37930  Biso   1.000  H
  H80      1.0000 0.74290  0.63310  0.37930  Biso   1.000  H
  C97      1.0000 0.30510  0.92720  0.96520  Biso   1.000  C
  C98      1.0000 0.80510  0.42720  0.96520  Biso   1.000  C
  C99      1.0000 0.19490  0.07280  0.96520  Biso   1.000  C
  C100     1.0000 0.80510  0.07280  0.53480  Biso   1.000  C
  C101     1.0000 0.69490  0.92720  0.53480  Biso   1.000  C
  C102     1.0000 0.69490  0.57280  0.96520  Biso   1.000  C
  C103     1.0000 0.30510  0.57280  0.53480  Biso   1.000  C
  C104     1.0000 0.19490  0.42720  0.53480  Biso   1.000  C
  C105     1.0000 0.69490  0.07280  0.03480  Biso   1.000  C
  C106     1.0000 0.19490  0.57280  0.03480  Biso   1.000  C
  C107     1.0000 0.80510  0.92720  0.03480  Biso   1.000  C
  C108     1.0000 0.19490  0.92720  0.46520  Biso   1.000  C
  C109     1.0000 0.30510  0.07280  0.46520  Biso   1.000  C
  C110     1.0000 0.30510  0.42720  0.03480  Biso   1.000  C
  C111     1.0000 0.69490  0.42720  0.46520  Biso   1.000  C
  C112     1.0000 0.80510  0.57280  0.46520  Biso   1.000  C
  H81      1.0000 0.32630  0.93320  0.88080  Biso   1.000  H
  H82      1.0000 0.82630  0.43320  0.88080  Biso   1.000  H
  H83      1.0000 0.17370  0.06680  0.88080  Biso   1.000  H
  H84      1.0000 0.82630  0.06680  0.61920  Biso   1.000  H
  H85      1.0000 0.67370  0.93320  0.61920  Biso   1.000  H
  H86      1.0000 0.67370  0.56680  0.88080  Biso   1.000  H
  H87      1.0000 0.32630  0.56680  0.61920  Biso   1.000  H
  H88      1.0000 0.17370  0.43320  0.61920  Biso   1.000  H
  H89      1.0000 0.67370  0.06680  0.11920  Biso   1.000  H
  H90      1.0000 0.17370  0.56680  0.11920  Biso   1.000  H
  H91      1.0000 0.82630  0.93320  0.11920  Biso   1.000  H
  H92      1.0000 0.17370  0.93320  0.38080  Biso   1.000  H
  H93      1.0000 0.32630  0.06680  0.38080  Biso   1.000  H
  H94      1.0000 0.32630  0.43320  0.11920  Biso   1.000  H
  H95      1.0000 0.67370  0.43320  0.38080  Biso   1.000  H
  H96      1.0000 0.82630  0.56680  0.38080  Biso   1.000  H
  H97      1.0000 0.34040  0.91520  0.02620  Biso   1.000  H
  H98      1.0000 0.84040  0.41520  0.02620  Biso   1.000  H
  H99      1.0000 0.15960  0.08480  0.02620  Biso   1.000  H
  H100     1.0000 0.84040  0.08480  0.47380  Biso   1.000  H
  H101     1.0000 0.65960  0.91520  0.47380  Biso   1.000  H
  H102     1.0000 0.65960  0.58480  0.02620  Biso   1.000  H
  H103     1.0000 0.34040  0.58480  0.47380  Biso   1.000  H
  H104     1.0000 0.15960  0.41520  0.47380  Biso   1.000  H
  H105     1.0000 0.65960  0.08480  0.97380  Biso   1.000  H
  H106     1.0000 0.15960  0.58480  0.97380  Biso   1.000  H
  H107     1.0000 0.84040  0.91520  0.97380  Biso   1.000  H
  H108     1.0000 0.15960  0.91520  0.52620  Biso   1.000  H
  H109     1.0000 0.34040  0.08480  0.52620  Biso   1.000  H
  H110     1.0000 0.34040  0.41520  0.97380  Biso   1.000  H
  H111     1.0000 0.65960  0.41520  0.52620  Biso   1.000  H
  H112     1.0000 0.84040  0.58480  0.52620  Biso   1.000  H
  C113     1.0000 0.27320  0.98810  0.01130  Biso   1.000  C
  C114     1.0000 0.77320  0.48810  0.01130  Biso   1.000  C
  C115     1.0000 0.22680  0.01190  0.01130  Biso   1.000  C
  C116     1.0000 0.77320  0.01190  0.48870  Biso   1.000  C
  C117     1.0000 0.72680  0.98810  0.48870  Biso   1.000  C
  C118     1.0000 0.72680  0.51190  0.01130  Biso   1.000  C
  C119     1.0000 0.27320  0.51190  0.48870  Biso   1.000  C
  C120     1.0000 0.22680  0.48810  0.48870  Biso   1.000  C
  C121     1.0000 0.72680  0.01190  0.98870  Biso   1.000  C
  C122     1.0000 0.22680  0.51190  0.98870  Biso   1.000  C
  C123     1.0000 0.77320  0.98810  0.98870  Biso   1.000  C
  C124     1.0000 0.22680  0.98810  0.51130  Biso   1.000  C
  C125     1.0000 0.27320  0.01190  0.51130  Biso   1.000  C
  C126     1.0000 0.27320  0.48810  0.98870  Biso   1.000  C
  C127     1.0000 0.72680  0.48810  0.51130  Biso   1.000  C
  C128     1.0000 0.77320  0.51190  0.51130  Biso   1.000  C
  H113     1.0000 0.28470  0.98810  0.10320  Biso   1.000  H
  H114     1.0000 0.78470  0.48810  0.10320  Biso   1.000  H
  H115     1.0000 0.21530  0.01190  0.10320  Biso   1.000  H
  H116     1.0000 0.78470  0.01190  0.39680  Biso   1.000  H
  H117     1.0000 0.71530  0.98810  0.39680  Biso   1.000  H
  H118     1.0000 0.71530  0.51190  0.10320  Biso   1.000  H
  H119     1.0000 0.28470  0.51190  0.39680  Biso   1.000  H
  H120     1.0000 0.21530  0.48810  0.39680  Biso   1.000  H
  H121     1.0000 0.71530  0.01190  0.89680  Biso   1.000  H
  H122     1.0000 0.21530  0.51190  0.89680  Biso   1.000  H
  H123     1.0000 0.78470  0.98810  0.89680  Biso   1.000  H
  H124     1.0000 0.21530  0.98810  0.60320  Biso   1.000  H
  H125     1.0000 0.28470  0.01190  0.60320  Biso   1.000  H
  H126     1.0000 0.28470  0.48810  0.89680  Biso   1.000  H
  H127     1.0000 0.71530  0.48810  0.60320  Biso   1.000  H
  H128     1.0000 0.78470  0.51190  0.60320  Biso   1.000  H
  H129     1.0000 0.30390  0.01750  0.97260  Biso   1.000  H
  H130     1.0000 0.80390  0.51750  0.97260  Biso   1.000  H
  H131     1.0000 0.19610  0.98250  0.97260  Biso   1.000  H
  H132     1.0000 0.80390  0.98250  0.52740  Biso   1.000  H
  H133     1.0000 0.69610  0.01750  0.52740  Biso   1.000  H
  H134     1.0000 0.69610  0.48250  0.97260  Biso   1.000  H
  H135     1.0000 0.30390  0.48250  0.52740  Biso   1.000  H
  H136     1.0000 0.19610  0.51750  0.52740  Biso   1.000  H
  H137     1.0000 0.69610  0.98250  0.02740  Biso   1.000  H
  H138     1.0000 0.19610  0.48250  0.02740  Biso   1.000  H
  H139     1.0000 0.80390  0.01750  0.02740  Biso   1.000  H
  H140     1.0000 0.19610  0.01750  0.47260  Biso   1.000  H
  H141     1.0000 0.30390  0.98250  0.47260  Biso   1.000  H
  H142     1.0000 0.30390  0.51750  0.02740  Biso   1.000  H
  H143     1.0000 0.69610  0.51750  0.47260  Biso   1.000  H
  H144     1.0000 0.80390  0.48250  0.47260  Biso   1.000  H
  C129     1.0000 0.27750  0.98670  0.91760  Biso   1.000  C
  C130     1.0000 0.77750  0.48670  0.91760  Biso   1.000  C
  C131     1.0000 0.22250  0.01330  0.91760  Biso   1.000  C
  C132     1.0000 0.77750  0.01330  0.58240  Biso   1.000  C
  C133     1.0000 0.72250  0.98670  0.58240  Biso   1.000  C
  C134     1.0000 0.72250  0.51330  0.91760  Biso   1.000  C
  C135     1.0000 0.27750  0.51330  0.58240  Biso   1.000  C
  C136     1.0000 0.22250  0.48670  0.58240  Biso   1.000  C
  C137     1.0000 0.72250  0.01330  0.08240  Biso   1.000  C
  C138     1.0000 0.22250  0.51330  0.08240  Biso   1.000  C
  C139     1.0000 0.77750  0.98670  0.08240  Biso   1.000  C
  C140     1.0000 0.22250  0.98670  0.41760  Biso   1.000  C
  C141     1.0000 0.27750  0.01330  0.41760  Biso   1.000  C
  C142     1.0000 0.27750  0.48670  0.08240  Biso   1.000  C
  C143     1.0000 0.72250  0.48670  0.41760  Biso   1.000  C
  C144     1.0000 0.77750  0.51330  0.41760  Biso   1.000  C
  H145     1.0000 0.30780  0.01600  0.95780  Biso   1.000  H
  H146     1.0000 0.80780  0.51600  0.95780  Biso   1.000  H
  H147     1.0000 0.19220  0.98400  0.95780  Biso   1.000  H
  H148     1.0000 0.80780  0.98400  0.54220  Biso   1.000  H
  H149     1.0000 0.69220  0.01600  0.54220  Biso   1.000  H
  H150     1.0000 0.69220  0.48400  0.95780  Biso   1.000  H
  H151     1.0000 0.30780  0.48400  0.54220  Biso   1.000  H
  H152     1.0000 0.19220  0.51600  0.54220  Biso   1.000  H
  H153     1.0000 0.69220  0.98400  0.04220  Biso   1.000  H
  H154     1.0000 0.19220  0.48400  0.04220  Biso   1.000  H
  H155     1.0000 0.80780  0.01600  0.04220  Biso   1.000  H
  H156     1.0000 0.19220  0.01600  0.45780  Biso   1.000  H
  H157     1.0000 0.30780  0.98400  0.45780  Biso   1.000  H
  H158     1.0000 0.30780  0.51600  0.04220  Biso   1.000  H
  H159     1.0000 0.69220  0.51600  0.45780  Biso   1.000  H
  H160     1.0000 0.80780  0.48400  0.45780  Biso   1.000  H
  H161     1.0000 0.28990  0.98660  0.82610  Biso   1.000  H
  H162     1.0000 0.78990  0.48660  0.82610  Biso   1.000  H
  H163     1.0000 0.21010  0.01340  0.82610  Biso   1.000  H
  H164     1.0000 0.78990  0.01340  0.67390  Biso   1.000  H
  H165     1.0000 0.71010  0.98660  0.67390  Biso   1.000  H
  H166     1.0000 0.71010  0.51340  0.82610  Biso   1.000  H
  H167     1.0000 0.28990  0.51340  0.67390  Biso   1.000  H
  H168     1.0000 0.21010  0.48660  0.67390  Biso   1.000  H
  H169     1.0000 0.71010  0.01340  0.17390  Biso   1.000  H
  H170     1.0000 0.21010  0.51340  0.17390  Biso   1.000  H
  H171     1.0000 0.78990  0.98660  0.17390  Biso   1.000  H
  H172     1.0000 0.21010  0.98660  0.32610  Biso   1.000  H
  H173     1.0000 0.28990  0.01340  0.32610  Biso   1.000  H
  H174     1.0000 0.28990  0.48660  0.17390  Biso   1.000  H
  H175     1.0000 0.71010  0.48660  0.32610  Biso   1.000  H
  H176     1.0000 0.78990  0.51340  0.32610  Biso   1.000  H
  O17      1.0000 0.50000  0.13910  0.25000  Biso   1.000  O
  O18      1.0000 0.00000  0.63910  0.25000  Biso   1.000  O
  O19      1.0000 0.00000  0.86090  0.25000  Biso   1.000  O
  O20      1.0000 0.50000  0.36090  0.25000  Biso   1.000  O
  O21      1.0000 0.50000  0.86090  0.75000  Biso   1.000  O
  O22      1.0000 0.00000  0.36090  0.75000  Biso   1.000  O
  O23      1.0000 0.00000  0.13910  0.75000  Biso   1.000  O
  O24      1.0000 0.50000  0.63910  0.75000  Biso   1.000  O
  O25      1.0000 0.92340  0.93520  0.40570  Biso   1.000  O
  O26      1.0000 0.42340  0.43520  0.40570  Biso   1.000  O
  O27      1.0000 0.57660  0.06480  0.40570  Biso   1.000  O
  O28      1.0000 0.42340  0.06480  0.09430  Biso   1.000  O
  O29      1.0000 0.07660  0.93520  0.09430  Biso   1.000  O
  O30      1.0000 0.07660  0.56480  0.40570  Biso   1.000  O
  O31      1.0000 0.92340  0.56480  0.09430  Biso   1.000  O
  O32      1.0000 0.57660  0.43520  0.09430  Biso   1.000  O
  O33      1.0000 0.07660  0.06480  0.59430  Biso   1.000  O
  O34      1.0000 0.57660  0.56480  0.59430  Biso   1.000  O
  O35      1.0000 0.42340  0.93520  0.59430  Biso   1.000  O
  O36      1.0000 0.57660  0.93520  0.90570  Biso   1.000  O
  O37      1.0000 0.92340  0.06480  0.90570  Biso   1.000  O
  O38      1.0000 0.92340  0.43520  0.59430  Biso   1.000  O
  O39      1.0000 0.07660  0.43520  0.90570  Biso   1.000  O
  O40      1.0000 0.42340  0.56480  0.90570  Biso   1.000  O
  P1       1.0000 0.00000  0.08231  0.25000  Biso   1.000  P
  P2       1.0000 0.50000  0.58231  0.25000  Biso   1.000  P
  P3       1.0000 0.50000  0.91769  0.25000  Biso   1.000  P
  P4       1.0000 0.00000  0.41769  0.25000  Biso   1.000  P
  P5       1.0000 0.00000  0.91769  0.75000  Biso   1.000  P
  P6       1.0000 0.50000  0.41769  0.75000  Biso   1.000  P
  P7       1.0000 0.50000  0.08231  0.75000  Biso   1.000  P
  P8       1.0000 0.00000  0.58231  0.75000  Biso   1.000  P
  F1       1.0000 0.95740  0.13130  0.19020  Biso   1.000  F
  F2       1.0000 0.45740  0.63130  0.19020  Biso   1.000  F
  F3       1.0000 0.54260  0.86870  0.19020  Biso   1.000  F
  F4       1.0000 0.45740  0.86870  0.30980  Biso   1.000  F
  F5       1.0000 0.04260  0.13130  0.30980  Biso   1.000  F
  F6       1.0000 0.04260  0.36870  0.19020  Biso   1.000  F
  F7       1.0000 0.95740  0.36870  0.30980  Biso   1.000  F
  F8       1.0000 0.54260  0.63130  0.30980  Biso   1.000  F
  F9       1.0000 0.04260  0.86870  0.80980  Biso   1.000  F
  F10      1.0000 0.54260  0.36870  0.80980  Biso   1.000  F
  F11      1.0000 0.45740  0.13130  0.80980  Biso   1.000  F
  F12      1.0000 0.54260  0.13130  0.69020  Biso   1.000  F
  F13      1.0000 0.95740  0.86870  0.69020  Biso   1.000  F
  F14      1.0000 0.95740  0.63130  0.80980  Biso   1.000  F
  F15      1.0000 0.04260  0.63130  0.69020  Biso   1.000  F
  F16      1.0000 0.45740  0.36870  0.69020  Biso   1.000  F
  F17      1.0000 0.04310  0.08140  0.13030  Biso   1.000  F
  F18      1.0000 0.54310  0.58140  0.13030  Biso   1.000  F
  F19      1.0000 0.45690  0.91860  0.13030  Biso   1.000  F
  F20      1.0000 0.54310  0.91860  0.36970  Biso   1.000  F
  F21      1.0000 0.95690  0.08140  0.36970  Biso   1.000  F
  F22      1.0000 0.95690  0.41860  0.13030  Biso   1.000  F
  F23      1.0000 0.04310  0.41860  0.36970  Biso   1.000  F
  F24      1.0000 0.45690  0.58140  0.36970  Biso   1.000  F
  F25      1.0000 0.95690  0.91860  0.86970  Biso   1.000  F
  F26      1.0000 0.45690  0.41860  0.86970  Biso   1.000  F
  F27      1.0000 0.54310  0.08140  0.86970  Biso   1.000  F
  F28      1.0000 0.45690  0.08140  0.63030  Biso   1.000  F
  F29      1.0000 0.04310  0.91860  0.63030  Biso   1.000  F
  F30      1.0000 0.04310  0.58140  0.86970  Biso   1.000  F
  F31      1.0000 0.95690  0.58140  0.63030  Biso   1.000  F
  F32      1.0000 0.54310  0.41860  0.63030  Biso   1.000  F
  F33      1.0000 0.95720  0.02980  0.19230  Biso   1.000  F
  F34      1.0000 0.45720  0.52980  0.19230  Biso   1.000  F
  F35      1.0000 0.54280  0.97020  0.19230  Biso   1.000  F
  F36      1.0000 0.45720  0.97020  0.30770  Biso   1.000  F
  F37      1.0000 0.04280  0.02980  0.30770  Biso   1.000  F
  F38      1.0000 0.04280  0.47020  0.19230  Biso   1.000  F
  F39      1.0000 0.95720  0.47020  0.30770  Biso   1.000  F
  F40      1.0000 0.54280  0.52980  0.30770  Biso   1.000  F
  F41      1.0000 0.04280  0.97020  0.80770  Biso   1.000  F
  F42      1.0000 0.54280  0.47020  0.80770  Biso   1.000  F
  F43      1.0000 0.45720  0.02980  0.80770  Biso   1.000  F
  F44      1.0000 0.54280  0.02980  0.69230  Biso   1.000  F
  F45      1.0000 0.95720  0.97020  0.69230  Biso   1.000  F
  F46      1.0000 0.95720  0.52980  0.80770  Biso   1.000  F
  F47      1.0000 0.04280  0.52980  0.69230  Biso   1.000  F
  F48      1.0000 0.45720  0.47020  0.69230  Biso   1.000  F
