data_image0
_cell_length_a       20.767
_cell_length_b       9.295
_cell_length_c       11.225
_cell_angle_alpha    90
_cell_angle_beta     112.09
_cell_angle_gamma    90

_symmetry_space_group_name_H-M    "P 1"
_symmetry_int_tables_number       1

loop_
  _symmetry_equiv_pos_as_xyz
  'x, y, z'

loop_
  _atom_site_label
  _atom_site_occupancy
  _atom_site_fract_x
  _atom_site_fract_y
  _atom_site_fract_z
  _atom_site_thermal_displace_type
  _atom_site_B_iso_or_equiv
  _atom_site_type_symbol
  Cu1      1.0000 0.00000  0.13950  0.50000  Biso   1.000  Cu
  Cu2      1.0000 0.50000  0.63950  0.50000  Biso   1.000  Cu
  O1       1.0000 0.03110  0.66450  0.75250  Biso   1.000  O
  O2       1.0000 0.96890  0.66450  0.24750  Biso   1.000  O
  O3       1.0000 0.53110  0.16450  0.75250  Biso   1.000  O
  O4       1.0000 0.46890  0.16450  0.24750  Biso   1.000  O
  N1       1.0000 0.07260  0.29550  0.57920  Biso   1.000  N
  N2       1.0000 0.92740  0.29550  0.42080  Biso   1.000  N
  N3       1.0000 0.57260  0.79550  0.57920  Biso   1.000  N
  N4       1.0000 0.42740  0.79550  0.42080  Biso   1.000  N
  C1       1.0000 0.11060  0.49730  0.72150  Biso   1.000  C
  C2       1.0000 0.88940  0.49730  0.27850  Biso   1.000  C
  C3       1.0000 0.61060  0.99730  0.72150  Biso   1.000  C
  C4       1.0000 0.38940  0.99730  0.27850  Biso   1.000  C
  C5       1.0000 0.06090  0.40150  0.65070  Biso   1.000  C
  C6       1.0000 0.93910  0.40150  0.34930  Biso   1.000  C
  C7       1.0000 0.56090  0.90150  0.65070  Biso   1.000  C
  C8       1.0000 0.43910  0.90150  0.34930  Biso   1.000  C
  H1       1.0000 0.01650  0.40990  0.65200  Biso   1.000  H
  H2       1.0000 0.98350  0.40990  0.34800  Biso   1.000  H
  H3       1.0000 0.51650  0.90990  0.65200  Biso   1.000  H
  H4       1.0000 0.48350  0.90990  0.34800  Biso   1.000  H
  C9       1.0000 0.13580  0.28910  0.57340  Biso   1.000  C
  C10      1.0000 0.86420  0.28910  0.42660  Biso   1.000  C
  C11      1.0000 0.63580  0.78910  0.57340  Biso   1.000  C
  C12      1.0000 0.36420  0.78910  0.42660  Biso   1.000  C
  H5       1.0000 0.14400  0.22140  0.51970  Biso   1.000  H
  H6       1.0000 0.85600  0.22140  0.48030  Biso   1.000  H
  H7       1.0000 0.64400  0.72140  0.51970  Biso   1.000  H
  H8       1.0000 0.35600  0.72140  0.48030  Biso   1.000  H
  C13      1.0000 0.18950  0.37990  0.64460  Biso   1.000  C
  C14      1.0000 0.81050  0.37990  0.35540  Biso   1.000  C
  C15      1.0000 0.68950  0.87990  0.64460  Biso   1.000  C
  C16      1.0000 0.31050  0.87990  0.35540  Biso   1.000  C
  H9       1.0000 0.23320  0.37060  0.64040  Biso   1.000  H
  H10      1.0000 0.76680  0.37060  0.35960  Biso   1.000  H
  H11      1.0000 0.73320  0.87060  0.64040  Biso   1.000  H
  H12      1.0000 0.26680  0.87060  0.35960  Biso   1.000  H
  C17      1.0000 0.17790  0.48350  0.72130  Biso   1.000  C
  C18      1.0000 0.82210  0.48350  0.27870  Biso   1.000  C
  C19      1.0000 0.67790  0.98350  0.72130  Biso   1.000  C
  C20      1.0000 0.32210  0.98350  0.27870  Biso   1.000  C
  H13      1.0000 0.21370  0.54310  0.77190  Biso   1.000  H
  H14      1.0000 0.78630  0.54310  0.22810  Biso   1.000  H
  H15      1.0000 0.71370  0.04310  0.77190  Biso   1.000  H
  H16      1.0000 0.28630  0.04310  0.22810  Biso   1.000  H
  C21      1.0000 0.09010  0.61440  0.79720  Biso   1.000  C
  C22      1.0000 0.90990  0.61440  0.20280  Biso   1.000  C
  C23      1.0000 0.59010  0.11440  0.79720  Biso   1.000  C
  C24      1.0000 0.40990  0.11440  0.20280  Biso   1.000  C
  O5       1.0000 0.22970  0.66460  0.49020  Biso   1.000  O
  O6       1.0000 0.77030  0.66460  0.50980  Biso   1.000  O
  O7       1.0000 0.72970  0.16460  0.49020  Biso   1.000  O
  O8       1.0000 0.27030  0.16460  0.50980  Biso   1.000  O
  N5       1.0000 0.07490  0.98530  0.57410  Biso   1.000  N
  N6       1.0000 0.92510  0.98530  0.42590  Biso   1.000  N
  N7       1.0000 0.57490  0.48530  0.57410  Biso   1.000  N
  N8       1.0000 0.42510  0.48530  0.42590  Biso   1.000  N
  C25      1.0000 0.14920  0.80530  0.54330  Biso   1.000  C
  C26      1.0000 0.85080  0.80530  0.45670  Biso   1.000  C
  C27      1.0000 0.64920  0.30530  0.54330  Biso   1.000  C
  C28      1.0000 0.35080  0.30530  0.45670  Biso   1.000  C
  C29      1.0000 0.08850  0.88720  0.50040  Biso   1.000  C
  C30      1.0000 0.91150  0.88720  0.49960  Biso   1.000  C
  C31      1.0000 0.58850  0.38720  0.50040  Biso   1.000  C
  C32      1.0000 0.41150  0.38720  0.49960  Biso   1.000  C
  H17      1.0000 0.94370  0.87280  0.58270  Biso   1.000  H
  H18      1.0000 0.05630  0.87280  0.41730  Biso   1.000  H
  H19      1.0000 0.44370  0.37280  0.58270  Biso   1.000  H
  H20      1.0000 0.55630  0.37280  0.41730  Biso   1.000  H
  C33      1.0000 0.88050  0.00120  0.30170  Biso   1.000  C
  C34      1.0000 0.11950  0.00120  0.69830  Biso   1.000  C
  C35      1.0000 0.38050  0.50120  0.30170  Biso   1.000  C
  C36      1.0000 0.61950  0.50120  0.69830  Biso   1.000  C
  H21      1.0000 0.89180  0.06510  0.24890  Biso   1.000  H
  H22      1.0000 0.10820  0.06510  0.75110  Biso   1.000  H
  H23      1.0000 0.39180  0.56510  0.24890  Biso   1.000  H
  H24      1.0000 0.60820  0.56510  0.75110  Biso   1.000  H
  C37      1.0000 0.81850  0.92490  0.25150  Biso   1.000  C
  C38      1.0000 0.18150  0.92490  0.74850  Biso   1.000  C
  C39      1.0000 0.31850  0.42490  0.25150  Biso   1.000  C
  C40      1.0000 0.68150  0.42490  0.74850  Biso   1.000  C
  H25      1.0000 0.78840  0.93630  0.16650  Biso   1.000  H
  H26      1.0000 0.21160  0.93630  0.83350  Biso   1.000  H
  H27      1.0000 0.28840  0.43630  0.16650  Biso   1.000  H
  H28      1.0000 0.71160  0.43630  0.83350  Biso   1.000  H
  C41      1.0000 0.80360  0.83110  0.33370  Biso   1.000  C
  C42      1.0000 0.19640  0.83110  0.66630  Biso   1.000  C
  C43      1.0000 0.30360  0.33110  0.33370  Biso   1.000  C
  C44      1.0000 0.69640  0.33110  0.66630  Biso   1.000  C
  H29      1.0000 0.76080  0.78450  0.30530  Biso   1.000  H
  H30      1.0000 0.23920  0.78450  0.69470  Biso   1.000  H
  H31      1.0000 0.26080  0.28450  0.30530  Biso   1.000  H
  H32      1.0000 0.73920  0.28450  0.69470  Biso   1.000  H
  C45      1.0000 0.16790  0.69780  0.46130  Biso   1.000  C
  C46      1.0000 0.83210  0.69780  0.53870  Biso   1.000  C
  C47      1.0000 0.66790  0.19780  0.46130  Biso   1.000  C
  C48      1.0000 0.33210  0.19780  0.53870  Biso   1.000  C
  N9       1.0000 0.13870  0.65660  0.90430  Biso   1.000  N
  N10      1.0000 0.86130  0.65660  0.09570  Biso   1.000  N
  N11      1.0000 0.63870  0.15660  0.90430  Biso   1.000  N
  N12      1.0000 0.36130  0.15660  0.09570  Biso   1.000  N
  H33      1.0000 0.17920  0.61820  0.92650  Biso   1.000  H
  H34      1.0000 0.82080  0.61820  0.07350  Biso   1.000  H
  H35      1.0000 0.67920  0.11820  0.92650  Biso   1.000  H
  H36      1.0000 0.32080  0.11820  0.07350  Biso   1.000  H
  N13      1.0000 0.11690  0.64150  0.36460  Biso   1.000  N
  N14      1.0000 0.88310  0.64150  0.63540  Biso   1.000  N
  N15      1.0000 0.61690  0.14150  0.36460  Biso   1.000  N
  N16      1.0000 0.38310  0.14150  0.63540  Biso   1.000  N
  H37      1.0000 0.92500  0.66890  0.64990  Biso   1.000  H
  H38      1.0000 0.07500  0.66890  0.35010  Biso   1.000  H
  H39      1.0000 0.42500  0.16890  0.64990  Biso   1.000  H
  H40      1.0000 0.57500  0.16890  0.35010  Biso   1.000  H
  C49      1.0000 0.12760  0.76600  0.98840  Biso   1.000  C
  C50      1.0000 0.87240  0.76600  0.01160  Biso   1.000  C
  C51      1.0000 0.62760  0.26600  0.98840  Biso   1.000  C
  C52      1.0000 0.37240  0.26600  0.01160  Biso   1.000  C
  H41      1.0000 0.09320  0.83480  0.93710  Biso   1.000  H
  H42      1.0000 0.90680  0.83480  0.06290  Biso   1.000  H
  H43      1.0000 0.59320  0.33480  0.93710  Biso   1.000  H
  H44      1.0000 0.40680  0.33480  0.06290  Biso   1.000  H
  H45      1.0000 0.17060  0.81740  0.03280  Biso   1.000  H
  H46      1.0000 0.82940  0.81740  0.96720  Biso   1.000  H
  H47      1.0000 0.67060  0.31740  0.03280  Biso   1.000  H
  H48      1.0000 0.32940  0.31740  0.96720  Biso   1.000  H
  C53      1.0000 0.10080  0.69090  0.09410  Biso   1.000  C
  C54      1.0000 0.89920  0.69090  0.90590  Biso   1.000  C
  C55      1.0000 0.60080  0.19090  0.09410  Biso   1.000  C
  C56      1.0000 0.39920  0.19090  0.90590  Biso   1.000  C
  H49      1.0000 0.09190  0.76500  0.14680  Biso   1.000  H
  H50      1.0000 0.90810  0.76500  0.85320  Biso   1.000  H
  H51      1.0000 0.59190  0.26500  0.14680  Biso   1.000  H
  H52      1.0000 0.40810  0.26500  0.85320  Biso   1.000  H
  H53      1.0000 0.05770  0.63990  0.04950  Biso   1.000  H
  H54      1.0000 0.94230  0.63990  0.95050  Biso   1.000  H
  H55      1.0000 0.55770  0.13990  0.04950  Biso   1.000  H
  H56      1.0000 0.44230  0.13990  0.95050  Biso   1.000  H
  C57      1.0000 0.15050  0.59520  0.17240  Biso   1.000  C
  C58      1.0000 0.84950  0.59520  0.82760  Biso   1.000  C
  C59      1.0000 0.65050  0.09520  0.17240  Biso   1.000  C
  C60      1.0000 0.34950  0.09520  0.82760  Biso   1.000  C
  H57      1.0000 0.19470  0.64460  0.21120  Biso   1.000  H
  H58      1.0000 0.80530  0.64460  0.78880  Biso   1.000  H
  H59      1.0000 0.69470  0.14460  0.21120  Biso   1.000  H
  H60      1.0000 0.30530  0.14460  0.78880  Biso   1.000  H
  H61      1.0000 0.15660  0.51710  0.12040  Biso   1.000  H
  H62      1.0000 0.84340  0.51710  0.87960  Biso   1.000  H
  H63      1.0000 0.65660  0.01710  0.12040  Biso   1.000  H
  H64      1.0000 0.34340  0.01710  0.87960  Biso   1.000  H
  C61      1.0000 0.12880  0.53280  0.27980  Biso   1.000  C
  C62      1.0000 0.87120  0.53280  0.72020  Biso   1.000  C
  C63      1.0000 0.62880  0.03280  0.27980  Biso   1.000  C
  C64      1.0000 0.37120  0.03280  0.72020  Biso   1.000  C
  H65      1.0000 0.91340  0.47730  0.75990  Biso   1.000  H
  H66      1.0000 0.08660  0.47730  0.24010  Biso   1.000  H
  H67      1.0000 0.41340  0.97730  0.75990  Biso   1.000  H
  H68      1.0000 0.58660  0.97730  0.24010  Biso   1.000  H
  H69      1.0000 0.83520  0.46750  0.66810  Biso   1.000  H
  H70      1.0000 0.16480  0.46750  0.33190  Biso   1.000  H
  H71      1.0000 0.33520  0.96750  0.66810  Biso   1.000  H
  H72      1.0000 0.66480  0.96750  0.33190  Biso   1.000  H
  O9       1.0000 0.97470  0.13800  0.69410  Biso   1.000  O
  O10      1.0000 0.02530  0.13800  0.30590  Biso   1.000  O
  O11      1.0000 0.47470  0.63800  0.69410  Biso   1.000  O
  O12      1.0000 0.52530  0.63800  0.30590  Biso   1.000  O
  O13      1.0000 0.34670  0.55040  0.68920  Biso   1.000  O
  O14      1.0000 0.65330  0.55040  0.31080  Biso   1.000  O
  O15      1.0000 0.84670  0.05040  0.68920  Biso   1.000  O
  O16      1.0000 0.15330  0.05040  0.31080  Biso   1.000  O
  O17      1.0000 0.99980  0.30000  0.91580  Biso   1.000  O
  O18      1.0000 0.00020  0.30000  0.08420  Biso   1.000  O
  O19      1.0000 0.49980  0.80000  0.91580  Biso   1.000  O
  O20      1.0000 0.50020  0.80000  0.08420  Biso   1.000  O
  N17      1.0000 0.16130  0.19870  0.01060  Biso   1.000  N
  N18      1.0000 0.83870  0.19870  0.98940  Biso   1.000  N
  N19      1.0000 0.66130  0.69870  0.01060  Biso   1.000  N
  N20      1.0000 0.33870  0.69870  0.98940  Biso   1.000  N
  O21      1.0000 0.11600  0.24400  0.92870  Biso   1.000  O
  O22      1.0000 0.88400  0.24400  0.07130  Biso   1.000  O
  O23      1.0000 0.61600  0.74400  0.92870  Biso   1.000  O
  O24      1.0000 0.38400  0.74400  0.07130  Biso   1.000  O
  O25      1.0000 0.20470  0.13600  0.99600  Biso   1.000  O
  O26      1.0000 0.79530  0.13600  0.00400  Biso   1.000  O
  O27      1.0000 0.70470  0.63600  0.99600  Biso   1.000  O
  O28      1.0000 0.29530  0.63600  0.00400  Biso   1.000  O
  O29      1.0000 0.15520  0.20910  0.10360  Biso   1.000  O
  O30      1.0000 0.84480  0.20910  0.89640  Biso   1.000  O
  O31      1.0000 0.65520  0.70910  0.10360  Biso   1.000  O
  O32      1.0000 0.34480  0.70910  0.89640  Biso   1.000  O
