data_image0
_cell_length_a       8.9547
_cell_length_b       10.6215
_cell_length_c       11.3899
_cell_angle_alpha    80.393
_cell_angle_beta     86.408
_cell_angle_gamma    80.138

_symmetry_space_group_name_H-M    "P 1"
_symmetry_int_tables_number       1

loop_
  _symmetry_equiv_pos_as_xyz
  'x, y, z'

loop_
  _atom_site_label
  _atom_site_occupancy
  _atom_site_fract_x
  _atom_site_fract_y
  _atom_site_fract_z
  _atom_site_thermal_displace_type
  _atom_site_B_iso_or_equiv
  _atom_site_type_symbol
  Cu1      1.0000 0.44343  0.92726  0.39760  Biso   1.000  Cu
  Cu2      1.0000 0.55657  0.07274  0.60240  Biso   1.000  Cu
  O1       1.0000 0.34920  0.97760  0.54311  Biso   1.000  O
  O2       1.0000 0.65080  0.02240  0.45689  Biso   1.000  O
  O3       1.0000 0.63570  0.22530  0.78610  Biso   1.000  O
  O4       1.0000 0.36430  0.77470  0.21390  Biso   1.000  O
  O5       1.0000 0.45090  0.12270  0.74460  Biso   1.000  O
  O6       1.0000 0.54910  0.87730  0.25540  Biso   1.000  O
  O7       1.0000 0.84660  0.36460  0.18860  Biso   1.000  O
  O8       1.0000 0.15340  0.63540  0.81140  Biso   1.000  O
  N1       1.0000 0.52520  0.75020  0.49040  Biso   1.000  N
  N2       1.0000 0.47480  0.24980  0.50960  Biso   1.000  N
  N3       1.0000 0.32160  0.08420  0.30170  Biso   1.000  N
  N4       1.0000 0.67840  0.91580  0.69830  Biso   1.000  N
  N5       1.0000 0.84250  0.40980  0.99370  Biso   1.000  N
  N6       1.0000 0.15750  0.59020  0.00630  Biso   1.000  N
  C1       1.0000 0.44700  0.69750  0.58620  Biso   1.000  C
  C2       1.0000 0.55300  0.30250  0.41380  Biso   1.000  C
  H1       1.0000 0.35540  0.74370  0.60970  Biso   1.000  H
  H2       1.0000 0.64460  0.25630  0.39030  Biso   1.000  H
  C3       1.0000 0.49820  0.57870  0.64930  Biso   1.000  C
  C4       1.0000 0.50180  0.42130  0.35070  Biso   1.000  C
  H3       1.0000 0.44110  0.54440  0.71410  Biso   1.000  H
  H4       1.0000 0.55890  0.45560  0.28590  Biso   1.000  H
  C5       1.0000 0.63470  0.50980  0.61690  Biso   1.000  C
  C6       1.0000 0.36530  0.49020  0.38310  Biso   1.000  C
  H5       1.0000 0.67180  0.42940  0.66020  Biso   1.000  H
  H6       1.0000 0.32820  0.57060  0.33980  Biso   1.000  H
  C7       1.0000 0.71470  0.56140  0.52010  Biso   1.000  C
  C8       1.0000 0.28530  0.43860  0.47990  Biso   1.000  C
  H7       1.0000 0.80670  0.51630  0.49580  Biso   1.000  H
  H8       1.0000 0.19330  0.48370  0.50420  Biso   1.000  H
  C9       1.0000 0.65670  0.68200  0.45890  Biso   1.000  C
  C10      1.0000 0.34330  0.31800  0.54110  Biso   1.000  C
  H9       1.0000 0.71160  0.71690  0.39300  Biso   1.000  H
  H10      1.0000 0.28840  0.28310  0.60700  Biso   1.000  H
  C11      1.0000 0.21270  0.04400  0.55650  Biso   1.000  C
  C12      1.0000 0.78730  0.95600  0.44350  Biso   1.000  C
  C13      1.0000 0.14240  0.03930  0.67110  Biso   1.000  C
  C14      1.0000 0.85760  0.96070  0.32890  Biso   1.000  C
  H11      1.0000 0.19220  0.98810  0.73610  Biso   1.000  H
  H12      1.0000 0.80780  0.01190  0.26390  Biso   1.000  H
  C15      1.0000 0.00040  0.11000  0.68790  Biso   1.000  C
  C16      1.0000 0.99960  0.89000  0.31210  Biso   1.000  C
  H13      1.0000 0.95660  0.10520  0.76440  Biso   1.000  H
  H14      1.0000 0.04340  0.89480  0.23560  Biso   1.000  H
  C17      1.0000 0.92200  0.18680  0.59560  Biso   1.000  C
  C18      1.0000 0.07800  0.81320  0.40440  Biso   1.000  C
  H15      1.0000 0.82570  0.23220  0.60860  Biso   1.000  H
  H16      1.0000 0.17430  0.76780  0.39140  Biso   1.000  H
  C19      1.0000 0.98900  0.19530  0.48280  Biso   1.000  C
  C20      1.0000 0.01100  0.80470  0.51720  Biso   1.000  C
  H17      1.0000 0.93800  0.24920  0.41990  Biso   1.000  H
  H18      1.0000 0.06200  0.75080  0.58010  Biso   1.000  H
  C21      1.0000 0.13290  0.12420  0.46080  Biso   1.000  C
  C22      1.0000 0.86710  0.87580  0.53920  Biso   1.000  C
  C23      1.0000 0.19460  0.14290  0.34040  Biso   1.000  C
  C24      1.0000 0.80540  0.85710  0.65960  Biso   1.000  C
  H19      1.0000 0.13710  0.20320  0.28510  Biso   1.000  H
  H20      1.0000 0.86290  0.79680  0.71490  Biso   1.000  H
  C25      1.0000 0.36120  0.11990  0.17760  Biso   1.000  C
  C26      1.0000 0.63880  0.88010  0.82240  Biso   1.000  C
  C27      1.0000 0.49780  0.16560  0.14700  Biso   1.000  C
  C28      1.0000 0.50220  0.83440  0.85300  Biso   1.000  C
  H21      1.0000 0.55840  0.17830  0.20600  Biso   1.000  H
  H22      1.0000 0.44160  0.82170  0.79400  Biso   1.000  H
  C29      1.0000 0.54210  0.19160  0.02880  Biso   1.000  C
  C30      1.0000 0.45790  0.80840  0.97120  Biso   1.000  C
  H23      1.0000 0.63140  0.22490  0.00820  Biso   1.000  H
  H24      1.0000 0.36860  0.77510  0.99180  Biso   1.000  H
  C31      1.0000 0.45540  0.16900  0.93980  Biso   1.000  C
  C32      1.0000 0.54460  0.83100  0.06020  Biso   1.000  C
  C33      1.0000 0.31840  0.12620  0.97150  Biso   1.000  C
  C34      1.0000 0.68160  0.87380  0.02850  Biso   1.000  C
  H25      1.0000 0.25780  0.11290  0.91280  Biso   1.000  H
  H26      1.0000 0.74220  0.88710  0.08720  Biso   1.000  H
  C35      1.0000 0.27120  0.10320  0.09020  Biso   1.000  C
  C36      1.0000 0.72880  0.89680  0.90980  Biso   1.000  C
  H27      1.0000 0.17820  0.07620  0.11060  Biso   1.000  H
  H28      1.0000 0.82180  0.92380  0.88940  Biso   1.000  H
  C37      1.0000 0.52000  0.17630  0.81330  Biso   1.000  C
  C38      1.0000 0.48000  0.82370  0.18670  Biso   1.000  C
  C39      1.0000 0.92530  0.35370  0.89100  Biso   1.000  C
  C40      1.0000 0.07470  0.64630  0.10900  Biso   1.000  C
  H29      1.0000 0.88860  0.40450  0.81750  Biso   1.000  H
  H30      1.0000 0.11140  0.59550  0.18250  Biso   1.000  H
  H31      1.0000 0.90830  0.26630  0.89470  Biso   1.000  H
  H32      1.0000 0.09170  0.73370  0.10530  Biso   1.000  H
  H33      1.0000 0.03190  0.35440  0.89490  Biso   1.000  H
  H34      1.0000 0.96810  0.64560  0.10510  Biso   1.000  H
  C41      1.0000 0.73330  0.50970  0.95190  Biso   1.000  C
  C42      1.0000 0.26670  0.49030  0.04810  Biso   1.000  C
  H35      1.0000 0.68010  0.54560  0.01770  Biso   1.000  H
  H36      1.0000 0.31990  0.45440  0.98230  Biso   1.000  H
  H37      1.0000 0.66330  0.47900  0.90740  Biso   1.000  H
  H38      1.0000 0.33670  0.52100  0.09260  Biso   1.000  H
  H39      1.0000 0.77920  0.57520  0.90120  Biso   1.000  H
  H40      1.0000 0.22080  0.42480  0.09880  Biso   1.000  H
  C43      1.0000 0.89940  0.33410  0.10510  Biso   1.000  C
  C44      1.0000 0.10060  0.66590  0.89490  Biso   1.000  C
  H41      1.0000 0.97660  0.26330  0.10620  Biso   1.000  H
  H42      1.0000 0.02340  0.73670  0.89380  Biso   1.000  H
