data_image0
_cell_length_a       8.9243
_cell_length_b       9.9867
_cell_length_c       10.4339
_cell_angle_alpha    90
_cell_angle_beta     99.667
_cell_angle_gamma    90

_symmetry_space_group_name_H-M    "P 1"
_symmetry_int_tables_number       1

loop_
  _symmetry_equiv_pos_as_xyz
  'x, y, z'

loop_
  _atom_site_label
  _atom_site_occupancy
  _atom_site_fract_x
  _atom_site_fract_y
  _atom_site_fract_z
  _atom_site_thermal_displace_type
  _atom_site_B_iso_or_equiv
  _atom_site_type_symbol
  Cu1      1.0000 0.50000  0.50000  0.50000  Biso   1.000  Cu
  Cu2      1.0000 0.00000  0.00000  0.00000  Biso   1.000  Cu
  Cl1      1.0000 0.57709  0.70107  0.44428  Biso   1.000  Cl
  Cl2      1.0000 0.92291  0.20107  0.05572  Biso   1.000  Cl
  Cl3      1.0000 0.42291  0.29893  0.55572  Biso   1.000  Cl
  Cl4      1.0000 0.07709  0.79893  0.94428  Biso   1.000  Cl
  S1       1.0000 0.20657  0.64387  0.57216  Biso   1.000  S
  S2       1.0000 0.29343  0.14387  0.92784  Biso   1.000  S
  S3       1.0000 0.79343  0.35613  0.42784  Biso   1.000  S
  S4       1.0000 0.70657  0.85613  0.07216  Biso   1.000  S
  N1       1.0000 0.30330  0.52540  0.37820  Biso   1.000  N
  N2       1.0000 0.19670  0.02540  0.12180  Biso   1.000  N
  N3       1.0000 0.69670  0.47460  0.62180  Biso   1.000  N
  N4       1.0000 0.80330  0.97460  0.87820  Biso   1.000  N
  N5       1.0000 0.05920  0.62320  0.32850  Biso   1.000  N
  N6       1.0000 0.44080  0.12320  0.17150  Biso   1.000  N
  N7       1.0000 0.94080  0.37680  0.67150  Biso   1.000  N
  N8       1.0000 0.55920  0.87680  0.82850  Biso   1.000  N
  C1       1.0000 0.28800  0.47590  0.25750  Biso   1.000  C
  C2       1.0000 0.21200  0.97590  0.24250  Biso   1.000  C
  C3       1.0000 0.71200  0.52410  0.74250  Biso   1.000  C
  C4       1.0000 0.78800  0.02410  0.75750  Biso   1.000  C
  H1       1.0000 0.36610  0.42490  0.23380  Biso   1.000  H
  H2       1.0000 0.13390  0.92490  0.26620  Biso   1.000  H
  H3       1.0000 0.63390  0.57510  0.76620  Biso   1.000  H
  H4       1.0000 0.86610  0.07510  0.73380  Biso   1.000  H
  C5       1.0000 0.16010  0.49870  0.16860  Biso   1.000  C
  C6       1.0000 0.33990  0.99870  0.33140  Biso   1.000  C
  C7       1.0000 0.83990  0.50130  0.83140  Biso   1.000  C
  C8       1.0000 0.66010  0.00130  0.66860  Biso   1.000  C
  H5       1.0000 0.14870  0.46360  0.08490  Biso   1.000  H
  H6       1.0000 0.35130  0.96360  0.41510  Biso   1.000  H
  H7       1.0000 0.85130  0.53640  0.91510  Biso   1.000  H
  H8       1.0000 0.64870  0.03640  0.58490  Biso   1.000  H
  C9       1.0000 0.04990  0.57530  0.20790  Biso   1.000  C
  C10      1.0000 0.45010  0.07530  0.29210  Biso   1.000  C
  C11      1.0000 0.95010  0.42470  0.79210  Biso   1.000  C
  C12      1.0000 0.54990  0.92470  0.70790  Biso   1.000  C
  H9       1.0000 0.96370  0.59530  0.14770  Biso   1.000  H
  H10      1.0000 0.53630  0.09530  0.35230  Biso   1.000  H
  H11      1.0000 0.03630  0.40470  0.85230  Biso   1.000  H
  H12      1.0000 0.46370  0.90470  0.64770  Biso   1.000  H
  C13      1.0000 0.18600  0.59450  0.40890  Biso   1.000  C
  C14      1.0000 0.31400  0.09450  0.09110  Biso   1.000  C
  C15      1.0000 0.81400  0.40550  0.59110  Biso   1.000  C
  C16      1.0000 0.68600  0.90550  0.90890  Biso   1.000  C
  C17      1.0000 0.02460  0.72240  0.58170  Biso   1.000  C
  C18      1.0000 0.47540  0.22240  0.91830  Biso   1.000  C
  C19      1.0000 0.97540  0.27760  0.41830  Biso   1.000  C
  C20      1.0000 0.52460  0.77760  0.08170  Biso   1.000  C
  H13      1.0000 0.94470  0.67160  0.52860  Biso   1.000  H
  H14      1.0000 0.55530  0.17160  0.97140  Biso   1.000  H
  H15      1.0000 0.05530  0.32840  0.47140  Biso   1.000  H
  H16      1.0000 0.44470  0.82840  0.02860  Biso   1.000  H
  H17      1.0000 0.00720  0.71800  0.67090  Biso   1.000  H
  H18      1.0000 0.49280  0.21800  0.82910  Biso   1.000  H
  H19      1.0000 0.99280  0.28200  0.32910  Biso   1.000  H
  H20      1.0000 0.50720  0.78200  0.17090  Biso   1.000  H
  C21      1.0000 0.01340  0.86520  0.53820  Biso   1.000  C
  C22      1.0000 0.48660  0.36520  0.96180  Biso   1.000  C
  C23      1.0000 0.98660  0.13480  0.46180  Biso   1.000  C
  C24      1.0000 0.51340  0.63480  0.03820  Biso   1.000  C
  C25      1.0000 0.90970  0.90390  0.43020  Biso   1.000  C
  C26      1.0000 0.59030  0.40390  0.06980  Biso   1.000  C
  C27      1.0000 0.09030  0.09610  0.56980  Biso   1.000  C
  C28      1.0000 0.40970  0.59610  0.93020  Biso   1.000  C
  H21      1.0000 0.84850  0.83970  0.38260  Biso   1.000  H
  H22      1.0000 0.65150  0.33970  0.11740  Biso   1.000  H
  H23      1.0000 0.15150  0.16030  0.61740  Biso   1.000  H
  H24      1.0000 0.34850  0.66030  0.88260  Biso   1.000  H
  C29      1.0000 0.10370  0.96290  0.60770  Biso   1.000  C
  C30      1.0000 0.39630  0.46290  0.89230  Biso   1.000  C
  C31      1.0000 0.89630  0.03710  0.39230  Biso   1.000  C
  C32      1.0000 0.60370  0.53710  0.10770  Biso   1.000  C
  H25      1.0000 0.17390  0.93880  0.68030  Biso   1.000  H
  H26      1.0000 0.32610  0.43880  0.81970  Biso   1.000  H
  H27      1.0000 0.82610  0.06120  0.31970  Biso   1.000  H
  H28      1.0000 0.67390  0.56120  0.18030  Biso   1.000  H
