data_image0
_cell_length_a       9.727
_cell_length_b       10.463
_cell_length_c       18.022
_cell_angle_alpha    90
_cell_angle_beta     114.83
_cell_angle_gamma    90

_symmetry_space_group_name_H-M    "P 1"
_symmetry_int_tables_number       1

loop_
  _symmetry_equiv_pos_as_xyz
  'x, y, z'

loop_
  _atom_site_label
  _atom_site_occupancy
  _atom_site_fract_x
  _atom_site_fract_y
  _atom_site_fract_z
  _atom_site_thermal_displace_type
  _atom_site_B_iso_or_equiv
  _atom_site_type_symbol
  Cu1      1.0000 0.00000  0.00000  0.00000  Biso   1.000  Cu
  Cu2      1.0000 0.00000  0.50000  0.50000  Biso   1.000  Cu
  N1       1.0000 0.24620  0.12870  0.87320  Biso   1.000  N
  N2       1.0000 0.75380  0.62870  0.62680  Biso   1.000  N
  N3       1.0000 0.75380  0.87130  0.12680  Biso   1.000  N
  N4       1.0000 0.24620  0.37130  0.37320  Biso   1.000  N
  C1       1.0000 0.12170  0.08350  0.87760  Biso   1.000  C
  C2       1.0000 0.87830  0.58350  0.62240  Biso   1.000  C
  C3       1.0000 0.87830  0.91650  0.12240  Biso   1.000  C
  C4       1.0000 0.12170  0.41650  0.37760  Biso   1.000  C
  N5       1.0000 0.14500  0.06120  0.95440  Biso   1.000  N
  N6       1.0000 0.85500  0.56120  0.54560  Biso   1.000  N
  N7       1.0000 0.85500  0.93880  0.04560  Biso   1.000  N
  N8       1.0000 0.14500  0.43880  0.45440  Biso   1.000  N
  C5       1.0000 0.29350  0.09490  0.00030  Biso   1.000  C
  C6       1.0000 0.70650  0.59490  0.49970  Biso   1.000  C
  C7       1.0000 0.70650  0.90510  0.99970  Biso   1.000  C
  C8       1.0000 0.29350  0.40510  0.50030  Biso   1.000  C
  C9       1.0000 0.35760  0.13690  0.95170  Biso   1.000  C
  C10      1.0000 0.64240  0.63690  0.54830  Biso   1.000  C
  C11      1.0000 0.64240  0.86310  0.04830  Biso   1.000  C
  C12      1.0000 0.35760  0.36310  0.45170  Biso   1.000  C
  C13      1.0000 0.36710  0.07740  0.09100  Biso   1.000  C
  C14      1.0000 0.63290  0.57740  0.40900  Biso   1.000  C
  C15      1.0000 0.63290  0.92260  0.90900  Biso   1.000  C
  C16      1.0000 0.36710  0.42260  0.59100  Biso   1.000  C
  C17      1.0000 0.33590  0.94470  0.11570  Biso   1.000  C
  C18      1.0000 0.66410  0.44470  0.38430  Biso   1.000  C
  C19      1.0000 0.66410  0.05530  0.88430  Biso   1.000  C
  C20      1.0000 0.33590  0.55530  0.61570  Biso   1.000  C
  N9       1.0000 0.17550  0.93390  0.10330  Biso   1.000  N
  N10      1.0000 0.82450  0.43390  0.39670  Biso   1.000  N
  N11      1.0000 0.82450  0.06610  0.89670  Biso   1.000  N
  N12      1.0000 0.17550  0.56610  0.60330  Biso   1.000  N
  Cu3      1.0000 0.00000  0.50000  0.00000  Biso   1.000  Cu
  Cu4      1.0000 0.00000  0.00000  0.50000  Biso   1.000  Cu
  N13      1.0000 0.24110  0.63560  0.23640  Biso   1.000  N
  N14      1.0000 0.75890  0.13560  0.26360  Biso   1.000  N
  N15      1.0000 0.75890  0.36440  0.76360  Biso   1.000  N
  N16      1.0000 0.24110  0.86440  0.73640  Biso   1.000  N
  C21      1.0000 0.11770  0.58720  0.17610  Biso   1.000  C
  C22      1.0000 0.88230  0.08720  0.32390  Biso   1.000  C
  C23      1.0000 0.88230  0.41280  0.82390  Biso   1.000  C
  C24      1.0000 0.11770  0.91280  0.67610  Biso   1.000  C
  N17      1.0000 0.14320  0.56470  0.11060  Biso   1.000  N
  N18      1.0000 0.85680  0.06470  0.38940  Biso   1.000  N
  N19      1.0000 0.85680  0.43530  0.88940  Biso   1.000  N
  N20      1.0000 0.14320  0.93530  0.61060  Biso   1.000  N
  C25      1.0000 0.29180  0.59950  0.13070  Biso   1.000  C
  C26      1.0000 0.70820  0.09950  0.36930  Biso   1.000  C
  C27      1.0000 0.70820  0.40050  0.86930  Biso   1.000  C
  C28      1.0000 0.29180  0.90050  0.63070  Biso   1.000  C
  C29      1.0000 0.35310  0.64520  0.20850  Biso   1.000  C
  C30      1.0000 0.64690  0.14520  0.29150  Biso   1.000  C
  C31      1.0000 0.64690  0.35480  0.79150  Biso   1.000  C
  C32      1.0000 0.35310  0.85480  0.70850  Biso   1.000  C
  C33      1.0000 0.36610  0.57860  0.07500  Biso   1.000  C
  C34      1.0000 0.63390  0.07860  0.42500  Biso   1.000  C
  C35      1.0000 0.63390  0.42140  0.92500  Biso   1.000  C
  C36      1.0000 0.36610  0.92140  0.57500  Biso   1.000  C
  C37      1.0000 0.33670  0.44330  0.04030  Biso   1.000  C
  C38      1.0000 0.66330  0.94330  0.45970  Biso   1.000  C
  C39      1.0000 0.66330  0.55670  0.95970  Biso   1.000  C
  C40      1.0000 0.33670  0.05670  0.54030  Biso   1.000  C
  N21      1.0000 0.17710  0.43100  0.97930  Biso   1.000  N
  N22      1.0000 0.82290  0.93100  0.52070  Biso   1.000  N
  N23      1.0000 0.82290  0.56900  0.02070  Biso   1.000  N
  N24      1.0000 0.17710  0.06900  0.47930  Biso   1.000  N
  Cl1      1.0000 0.00040  0.24900  0.06503  Biso   1.000  Cl
  Cl2      1.0000 0.99960  0.74900  0.43497  Biso   1.000  Cl
  Cl3      1.0000 0.99960  0.75100  0.93497  Biso   1.000  Cl
  Cl4      1.0000 0.00040  0.25100  0.56503  Biso   1.000  Cl
  Cl5      1.0000 0.22550  0.50070  0.80225  Biso   1.000  Cl
  Cl6      1.0000 0.77450  0.00070  0.69775  Biso   1.000  Cl
  Cl7      1.0000 0.77450  0.49930  0.19775  Biso   1.000  Cl
  Cl8      1.0000 0.22550  0.99930  0.30225  Biso   1.000  Cl
  O1       1.0000 0.27620  0.26740  0.23850  Biso   1.000  O
  O2       1.0000 0.72380  0.76740  0.26150  Biso   1.000  O
  O3       1.0000 0.72380  0.73260  0.76150  Biso   1.000  O
  O4       1.0000 0.27620  0.23260  0.73850  Biso   1.000  O
  O5       1.0000 0.27800  0.72900  0.38840  Biso   1.000  O
  O6       1.0000 0.72200  0.22900  0.11160  Biso   1.000  O
  O7       1.0000 0.72200  0.27100  0.61160  Biso   1.000  O
  O8       1.0000 0.27800  0.77100  0.88840  Biso   1.000  O
  H1       1.0000 0.27460  0.13850  0.83450  Biso   1.000  H
  H2       1.0000 0.72540  0.63850  0.66550  Biso   1.000  H
  H3       1.0000 0.72540  0.86150  0.16550  Biso   1.000  H
  H4       1.0000 0.27460  0.36150  0.33450  Biso   1.000  H
  H5       1.0000 0.04770  0.06410  0.83410  Biso   1.000  H
  H6       1.0000 0.95230  0.56410  0.66590  Biso   1.000  H
  H7       1.0000 0.95230  0.93590  0.16590  Biso   1.000  H
  H8       1.0000 0.04770  0.43590  0.33410  Biso   1.000  H
  H9       1.0000 0.45520  0.17560  0.95700  Biso   1.000  H
  H10      1.0000 0.54480  0.67560  0.54300  Biso   1.000  H
  H11      1.0000 0.54480  0.82440  0.04300  Biso   1.000  H
  H12      1.0000 0.45520  0.32440  0.45700  Biso   1.000  H
  H13      1.0000 0.48850  0.09210  0.10800  Biso   1.000  H
  H14      1.0000 0.51150  0.59210  0.39200  Biso   1.000  H
  H15      1.0000 0.51150  0.90790  0.89200  Biso   1.000  H
  H16      1.0000 0.48850  0.40790  0.60800  Biso   1.000  H
  H17      1.0000 0.33180  0.13910  0.12050  Biso   1.000  H
  H18      1.0000 0.66820  0.63910  0.37950  Biso   1.000  H
  H19      1.0000 0.66820  0.86090  0.87950  Biso   1.000  H
  H20      1.0000 0.33180  0.36090  0.62050  Biso   1.000  H
  H21      1.0000 0.40910  0.92820  0.17590  Biso   1.000  H
  H22      1.0000 0.59090  0.42820  0.32410  Biso   1.000  H
  H23      1.0000 0.59090  0.07180  0.82410  Biso   1.000  H
  H24      1.0000 0.40910  0.57180  0.67590  Biso   1.000  H
  H25      1.0000 0.33350  0.87710  0.07430  Biso   1.000  H
  H26      1.0000 0.66650  0.37710  0.42570  Biso   1.000  H
  H27      1.0000 0.66650  0.12290  0.92570  Biso   1.000  H
  H28      1.0000 0.33350  0.62290  0.57430  Biso   1.000  H
  H29      1.0000 0.16780  0.85630  0.11280  Biso   1.000  H
  H30      1.0000 0.83220  0.35630  0.38720  Biso   1.000  H
  H31      1.0000 0.83220  0.14370  0.88720  Biso   1.000  H
  H32      1.0000 0.16780  0.64370  0.61280  Biso   1.000  H
  H33      1.0000 0.17310  0.97450  0.14370  Biso   1.000  H
  H34      1.0000 0.82690  0.47450  0.35630  Biso   1.000  H
  H35      1.0000 0.82690  0.02550  0.85630  Biso   1.000  H
  H36      1.0000 0.17310  0.52550  0.64370  Biso   1.000  H
  H37      1.0000 0.24100  0.67410  0.28400  Biso   1.000  H
  H38      1.0000 0.75900  0.17410  0.21600  Biso   1.000  H
  H39      1.0000 0.75900  0.32590  0.71600  Biso   1.000  H
  H40      1.0000 0.24100  0.82590  0.78400  Biso   1.000  H
  H41      1.0000 0.01920  0.56830  0.18180  Biso   1.000  H
  H42      1.0000 0.98080  0.06830  0.31820  Biso   1.000  H
  H43      1.0000 0.98080  0.43170  0.81820  Biso   1.000  H
  H44      1.0000 0.01920  0.93170  0.68180  Biso   1.000  H
  H45      1.0000 0.45690  0.68140  0.24290  Biso   1.000  H
  H46      1.0000 0.54310  0.18140  0.25710  Biso   1.000  H
  H47      1.0000 0.54310  0.31860  0.75710  Biso   1.000  H
  H48      1.0000 0.45690  0.81860  0.74290  Biso   1.000  H
  H49      1.0000 0.47530  0.59990  0.09970  Biso   1.000  H
  H50      1.0000 0.52470  0.09990  0.40030  Biso   1.000  H
  H51      1.0000 0.52470  0.40010  0.90030  Biso   1.000  H
  H52      1.0000 0.47530  0.90010  0.59970  Biso   1.000  H
  H53      1.0000 0.31940  0.63220  0.02240  Biso   1.000  H
  H54      1.0000 0.68060  0.13220  0.47760  Biso   1.000  H
  H55      1.0000 0.68060  0.36780  0.97760  Biso   1.000  H
  H56      1.0000 0.31940  0.86780  0.52240  Biso   1.000  H
  H57      1.0000 0.41950  0.43330  0.01460  Biso   1.000  H
  H58      1.0000 0.58050  0.93330  0.48540  Biso   1.000  H
  H59      1.0000 0.58050  0.56670  0.98540  Biso   1.000  H
  H60      1.0000 0.41950  0.06670  0.51460  Biso   1.000  H
  H61      1.0000 0.34790  0.36810  0.08760  Biso   1.000  H
  H62      1.0000 0.65210  0.86810  0.41240  Biso   1.000  H
  H63      1.0000 0.65210  0.63190  0.91240  Biso   1.000  H
  H64      1.0000 0.34790  0.13190  0.58760  Biso   1.000  H
  H65      1.0000 0.16540  0.35330  0.98310  Biso   1.000  H
  H66      1.0000 0.83460  0.85330  0.51690  Biso   1.000  H
  H67      1.0000 0.83460  0.64670  0.01690  Biso   1.000  H
  H68      1.0000 0.16540  0.14670  0.48310  Biso   1.000  H
  H69      1.0000 0.19490  0.45900  0.93320  Biso   1.000  H
  H70      1.0000 0.80510  0.95900  0.56680  Biso   1.000  H
  H71      1.0000 0.80510  0.54100  0.06680  Biso   1.000  H
  H72      1.0000 0.19490  0.04100  0.43320  Biso   1.000  H
  H73      1.0000 0.22480  0.19630  0.24950  Biso   1.000  H
  H74      1.0000 0.77520  0.69630  0.25050  Biso   1.000  H
  H75      1.0000 0.77520  0.80370  0.75050  Biso   1.000  H
  H76      1.0000 0.22480  0.30370  0.74950  Biso   1.000  H
  H77      1.0000 0.38110  0.23450  0.25210  Biso   1.000  H
  H78      1.0000 0.61890  0.73450  0.24790  Biso   1.000  H
  H79      1.0000 0.61890  0.76550  0.74790  Biso   1.000  H
  H80      1.0000 0.38110  0.26550  0.75210  Biso   1.000  H
  H81      1.0000 0.20410  0.74590  0.40920  Biso   1.000  H
  H82      1.0000 0.79590  0.24590  0.09080  Biso   1.000  H
  H83      1.0000 0.79590  0.25410  0.59080  Biso   1.000  H
  H84      1.0000 0.20410  0.75410  0.90920  Biso   1.000  H
  H85      1.0000 0.32540  0.81030  0.38930  Biso   1.000  H
  H86      1.0000 0.67460  0.31030  0.11070  Biso   1.000  H
  H87      1.0000 0.67460  0.18970  0.61070  Biso   1.000  H
  H88      1.0000 0.32540  0.68970  0.88930  Biso   1.000  H
