data_image0
_cell_length_a       11.508
_cell_length_b       9.062
_cell_length_c       11.659
_cell_angle_alpha    90
_cell_angle_beta     116.53
_cell_angle_gamma    90

_symmetry_space_group_name_H-M    "P 1"
_symmetry_int_tables_number       1

loop_
  _symmetry_equiv_pos_as_xyz
  'x, y, z'

loop_
  _atom_site_label
  _atom_site_occupancy
  _atom_site_fract_x
  _atom_site_fract_y
  _atom_site_fract_z
  _atom_site_thermal_displace_type
  _atom_site_B_iso_or_equiv
  _atom_site_type_symbol
  Cu1      1.0000 0.31879  0.97959  0.23783  Biso   1.000  Cu
  Cu2      1.0000 0.68121  0.47959  0.26217  Biso   1.000  Cu
  Cu3      1.0000 0.68121  0.02041  0.76217  Biso   1.000  Cu
  Cu4      1.0000 0.31879  0.52041  0.73783  Biso   1.000  Cu
  O1       1.0000 0.48920  0.92470  0.24560  Biso   1.000  O
  O2       1.0000 0.51080  0.42470  0.25440  Biso   1.000  O
  O3       1.0000 0.51080  0.07530  0.75440  Biso   1.000  O
  O4       1.0000 0.48920  0.57530  0.74560  Biso   1.000  O
  O5       1.0000 0.70100  0.93840  0.37860  Biso   1.000  O
  O6       1.0000 0.29900  0.43840  0.12140  Biso   1.000  O
  O7       1.0000 0.29900  0.06160  0.62140  Biso   1.000  O
  O8       1.0000 0.70100  0.56160  0.87860  Biso   1.000  O
  O9       1.0000 0.75000  0.31470  0.37840  Biso   1.000  O
  O10      1.0000 0.25000  0.81470  0.12160  Biso   1.000  O
  O11      1.0000 0.25000  0.68530  0.62160  Biso   1.000  O
  O12      1.0000 0.75000  0.18530  0.87840  Biso   1.000  O
  O13      1.0000 0.96390  0.33130  0.44640  Biso   1.000  O
  O14      1.0000 0.03610  0.83130  0.05360  Biso   1.000  O
  O15      1.0000 0.03610  0.66870  0.55360  Biso   1.000  O
  O16      1.0000 0.96390  0.16870  0.94640  Biso   1.000  O
  O17      1.0000 0.22840  0.14440  0.08760  Biso   1.000  O
  O18      1.0000 0.77160  0.64440  0.41240  Biso   1.000  O
  O19      1.0000 0.77160  0.85560  0.91240  Biso   1.000  O
  O20      1.0000 0.22840  0.35560  0.58760  Biso   1.000  O
  H1       1.0000 0.14879  0.13760  0.03791  Biso   1.000  H
  H2       1.0000 0.85121  0.63760  0.46209  Biso   1.000  H
  H3       1.0000 0.85121  0.86240  0.96209  Biso   1.000  H
  H4       1.0000 0.14879  0.36240  0.53791  Biso   1.000  H
  H5       1.0000 0.25126  0.23235  0.10830  Biso   1.000  H
  H6       1.0000 0.74874  0.73235  0.39170  Biso   1.000  H
  H7       1.0000 0.74874  0.76765  0.89170  Biso   1.000  H
  H8       1.0000 0.25126  0.26765  0.60830  Biso   1.000  H
  N1       1.0000 0.42980  0.12950  0.36560  Biso   1.000  N
  N2       1.0000 0.57020  0.62950  0.13440  Biso   1.000  N
  N3       1.0000 0.57020  0.87050  0.63440  Biso   1.000  N
  N4       1.0000 0.42980  0.37050  0.86560  Biso   1.000  N
  N5       1.0000 0.81100  0.03380  0.68550  Biso   1.000  N
  N6       1.0000 0.18900  0.53380  0.81450  Biso   1.000  N
  N7       1.0000 0.18900  0.96620  0.31450  Biso   1.000  N
  N8       1.0000 0.81100  0.46620  0.18550  Biso   1.000  N
  C1       1.0000 0.55670  0.10180  0.41290  Biso   1.000  C
  C2       1.0000 0.44330  0.60180  0.08710  Biso   1.000  C
  C3       1.0000 0.44330  0.89820  0.58710  Biso   1.000  C
  C4       1.0000 0.55670  0.39820  0.91290  Biso   1.000  C
  C5       1.0000 0.38930  0.23940  0.41600  Biso   1.000  C
  C6       1.0000 0.61070  0.73940  0.08400  Biso   1.000  C
  C7       1.0000 0.61070  0.76060  0.58400  Biso   1.000  C
  C8       1.0000 0.38930  0.26060  0.91600  Biso   1.000  C
  H9       1.0000 0.29919  0.26140  0.37983  Biso   1.000  H
  H10      1.0000 0.70081  0.76140  0.12017  Biso   1.000  H
  H11      1.0000 0.70081  0.73860  0.62017  Biso   1.000  H
  H12      1.0000 0.29919  0.23860  0.87983  Biso   1.000  H
  C9       1.0000 0.47390  0.32060  0.51780  Biso   1.000  C
  C10      1.0000 0.52610  0.82060  0.98220  Biso   1.000  C
  C11      1.0000 0.52610  0.67940  0.48220  Biso   1.000  C
  C12      1.0000 0.47390  0.17940  0.01780  Biso   1.000  C
  H13      1.0000 0.44317  0.39858  0.55137  Biso   1.000  H
  H14      1.0000 0.55683  0.89858  0.94863  Biso   1.000  H
  H15      1.0000 0.55683  0.60142  0.44863  Biso   1.000  H
  H16      1.0000 0.44317  0.10142  0.05137  Biso   1.000  H
  C13      1.0000 0.60400  0.28790  0.57090  Biso   1.000  C
  C14      1.0000 0.39600  0.78790  0.92910  Biso   1.000  C
  C15      1.0000 0.39600  0.71210  0.42910  Biso   1.000  C
  C16      1.0000 0.60400  0.21210  0.07090  Biso   1.000  C
  H17      1.0000 0.66374  0.34166  0.64317  Biso   1.000  H
  H18      1.0000 0.33626  0.84166  0.85683  Biso   1.000  H
  H19      1.0000 0.33626  0.65834  0.35683  Biso   1.000  H
  H20      1.0000 0.66374  0.15834  0.14317  Biso   1.000  H
  C17      1.0000 0.64850  0.17490  0.51820  Biso   1.000  C
  C18      1.0000 0.35150  0.67490  0.98180  Biso   1.000  C
  C19      1.0000 0.35150  0.82510  0.48180  Biso   1.000  C
  C20      1.0000 0.64850  0.32510  0.01820  Biso   1.000  C
  C21      1.0000 0.78780  0.12580  0.58580  Biso   1.000  C
  C22      1.0000 0.21220  0.62580  0.91420  Biso   1.000  C
  C23      1.0000 0.21220  0.87420  0.41420  Biso   1.000  C
  C24      1.0000 0.78780  0.37420  0.08580  Biso   1.000  C
  C25      1.0000 0.88450  0.16660  0.55220  Biso   1.000  C
  C26      1.0000 0.11550  0.66660  0.94780  Biso   1.000  C
  C27      1.0000 0.11550  0.83340  0.44780  Biso   1.000  C
  C28      1.0000 0.88450  0.33340  0.05220  Biso   1.000  C
  C29      1.0000 0.00550  0.09970  0.61740  Biso   1.000  C
  C30      1.0000 0.99450  0.59970  0.88260  Biso   1.000  C
  C31      1.0000 0.99450  0.90030  0.38260  Biso   1.000  C
  C32      1.0000 0.00550  0.40030  0.11740  Biso   1.000  C
  H21      1.0000 0.07378  0.12365  0.59597  Biso   1.000  H
  H22      1.0000 0.92622  0.62365  0.90403  Biso   1.000  H
  H23      1.0000 0.92622  0.87635  0.40403  Biso   1.000  H
  H24      1.0000 0.07378  0.37635  0.09597  Biso   1.000  H
  C33      1.0000 0.02630  0.99820  0.71330  Biso   1.000  C
  C34      1.0000 0.97370  0.49820  0.78670  Biso   1.000  C
  C35      1.0000 0.97370  0.00180  0.28670  Biso   1.000  C
  C36      1.0000 0.02630  0.50180  0.21330  Biso   1.000  C
  H25      1.0000 0.10647  0.94687  0.75481  Biso   1.000  H
  H26      1.0000 0.89353  0.44687  0.74519  Biso   1.000  H
  H27      1.0000 0.89353  0.05313  0.24519  Biso   1.000  H
  H28      1.0000 0.10647  0.55313  0.25481  Biso   1.000  H
  C37      1.0000 0.92910  0.97450  0.74620  Biso   1.000  C
  C38      1.0000 0.07090  0.47450  0.75380  Biso   1.000  C
  C39      1.0000 0.07090  0.02550  0.25380  Biso   1.000  C
  C40      1.0000 0.92910  0.52550  0.24620  Biso   1.000  C
  H29      1.0000 0.94597  0.91145  0.81706  Biso   1.000  H
  H30      1.0000 0.05403  0.41145  0.68294  Biso   1.000  H
  H31      1.0000 0.05403  0.08855  0.18294  Biso   1.000  H
  H32      1.0000 0.94597  0.58855  0.31706  Biso   1.000  H
  C41      1.0000 0.58730  0.97840  0.34180  Biso   1.000  C
  C42      1.0000 0.41270  0.47840  0.15820  Biso   1.000  C
  C43      1.0000 0.41270  0.02160  0.65820  Biso   1.000  C
  C44      1.0000 0.58730  0.52160  0.84180  Biso   1.000  C
  C45      1.0000 0.86490  0.27840  0.45010  Biso   1.000  C
  C46      1.0000 0.13510  0.77840  0.04990  Biso   1.000  C
  C47      1.0000 0.13510  0.72160  0.54990  Biso   1.000  C
  C48      1.0000 0.86490  0.22160  0.95010  Biso   1.000  C
