data_image0
_cell_length_a       12.969
_cell_length_b       10.796
_cell_length_c       6.803
_cell_angle_alpha    90
_cell_angle_beta     90
_cell_angle_gamma    90

_symmetry_space_group_name_H-M    "P 1"
_symmetry_int_tables_number       1

loop_
  _symmetry_equiv_pos_as_xyz
  'x, y, z'

loop_
  _atom_site_label
  _atom_site_occupancy
  _atom_site_fract_x
  _atom_site_fract_y
  _atom_site_fract_z
  _atom_site_thermal_displace_type
  _atom_site_B_iso_or_equiv
  _atom_site_type_symbol
  Cl1      1.0000 0.01060  0.34110  0.97630  Biso   1.000  Cl
  Cl2      1.0000 0.48940  0.84110  0.97630  Biso   1.000  Cl
  Cl3      1.0000 0.51060  0.15890  0.47630  Biso   1.000  Cl
  Cl4      1.0000 0.98940  0.65890  0.47630  Biso   1.000  Cl
  Cl5      1.0000 0.99370  0.91760  0.10190  Biso   1.000  Cl
  Cl6      1.0000 0.50630  0.41760  0.10190  Biso   1.000  Cl
  Cl7      1.0000 0.49370  0.58240  0.60190  Biso   1.000  Cl
  Cl8      1.0000 0.00630  0.08240  0.60190  Biso   1.000  Cl
  Cu1      1.0000 0.00150  0.12690  0.00000  Biso   1.000  Cu
  Cu2      1.0000 0.49850  0.62690  0.00000  Biso   1.000  Cu
  Cu3      1.0000 0.50150  0.37310  0.50000  Biso   1.000  Cu
  Cu4      1.0000 0.99850  0.87310  0.50000  Biso   1.000  Cu
  C1       1.0000 0.20820  0.01870  0.94970  Biso   1.000  C
  C2       1.0000 0.29180  0.51870  0.94970  Biso   1.000  C
  C3       1.0000 0.70820  0.48130  0.44970  Biso   1.000  C
  C4       1.0000 0.79180  0.98130  0.44970  Biso   1.000  C
  C5       1.0000 0.31860  0.15370  0.07400  Biso   1.000  C
  C6       1.0000 0.18140  0.65370  0.07400  Biso   1.000  C
  C7       1.0000 0.81860  0.34630  0.57400  Biso   1.000  C
  C8       1.0000 0.68140  0.84630  0.57400  Biso   1.000  C
  C9       1.0000 0.22430  0.20300  0.09200  Biso   1.000  C
  C10      1.0000 0.27570  0.70300  0.09200  Biso   1.000  C
  C11      1.0000 0.72430  0.29700  0.59200  Biso   1.000  C
  C12      1.0000 0.77570  0.79700  0.59200  Biso   1.000  C
  C13      1.0000 0.79190  0.22730  0.09560  Biso   1.000  C
  C14      1.0000 0.70810  0.72730  0.09560  Biso   1.000  C
  C15      1.0000 0.29190  0.27270  0.59560  Biso   1.000  C
  C16      1.0000 0.20810  0.77270  0.59560  Biso   1.000  C
  C17      1.0000 0.68370  0.08330  0.99010  Biso   1.000  C
  C18      1.0000 0.81630  0.58330  0.99010  Biso   1.000  C
  C19      1.0000 0.18370  0.41670  0.49010  Biso   1.000  C
  C20      1.0000 0.31630  0.91670  0.49010  Biso   1.000  C
  C21      1.0000 0.78050  0.05150  0.95700  Biso   1.000  C
  C22      1.0000 0.71950  0.55150  0.95700  Biso   1.000  C
  C23      1.0000 0.28050  0.44850  0.45700  Biso   1.000  C
  C24      1.0000 0.21950  0.94850  0.45700  Biso   1.000  C
  N1       1.0000 0.15320  0.11970  0.02080  Biso   1.000  N
  N2       1.0000 0.34680  0.61970  0.02080  Biso   1.000  N
  N3       1.0000 0.65320  0.38030  0.52080  Biso   1.000  N
  N4       1.0000 0.84680  0.88030  0.52080  Biso   1.000  N
  N5       1.0000 0.31010  0.03880  0.98610  Biso   1.000  N
  N6       1.0000 0.18990  0.53880  0.98610  Biso   1.000  N
  N7       1.0000 0.81010  0.46120  0.48610  Biso   1.000  N
  N8       1.0000 0.68990  0.96120  0.48610  Biso   1.000  N
  N9       1.0000 0.84830  0.13960  0.00690  Biso   1.000  N
  N10      1.0000 0.65170  0.63960  0.00690  Biso   1.000  N
  N11      1.0000 0.34830  0.36040  0.50690  Biso   1.000  N
  N12      1.0000 0.15170  0.86040  0.50690  Biso   1.000  N
  N13      1.0000 0.69080  0.19590  0.08310  Biso   1.000  N
  N14      1.0000 0.80920  0.69590  0.08310  Biso   1.000  N
  N15      1.0000 0.19080  0.30410  0.58310  Biso   1.000  N
  N16      1.0000 0.30920  0.80410  0.58310  Biso   1.000  N
