data_image0
_cell_length_a       13.0117
_cell_length_b       10.7563
_cell_length_c       6.6877
_cell_angle_alpha    90
_cell_angle_beta     90
_cell_angle_gamma    90

_symmetry_space_group_name_H-M    "P 1"
_symmetry_int_tables_number       1

loop_
  _symmetry_equiv_pos_as_xyz
  'x, y, z'

loop_
  _atom_site_label
  _atom_site_occupancy
  _atom_site_fract_x
  _atom_site_fract_y
  _atom_site_fract_z
  _atom_site_thermal_displace_type
  _atom_site_B_iso_or_equiv
  _atom_site_type_symbol
  Cl1      1.0000 0.00000  0.34174  0.01070  Biso   1.000  Cl
  Cl2      1.0000 0.00000  0.65826  0.51070  Biso   1.000  Cl
  Cl3      1.0000 0.50000  0.84174  0.01070  Biso   1.000  Cl
  Cl4      1.0000 0.50000  0.15826  0.51070  Biso   1.000  Cl
  Cl5      1.0000 0.00000  0.08430  0.39040  Biso   1.000  Cl
  Cl6      1.0000 0.00000  0.91570  0.89040  Biso   1.000  Cl
  Cl7      1.0000 0.50000  0.58430  0.39040  Biso   1.000  Cl
  Cl8      1.0000 0.50000  0.41570  0.89040  Biso   1.000  Cl
  Cu1      1.0000 0.00000  0.12650  0.98667  Biso   1.000  Cu
  Cu2      1.0000 0.00000  0.87350  0.48667  Biso   1.000  Cu
  Cu3      1.0000 0.50000  0.62650  0.98667  Biso   1.000  Cu
  Cu4      1.0000 0.50000  0.37350  0.48667  Biso   1.000  Cu
  N1       1.0000 0.15050  0.12770  0.97330  Biso   1.000  N
  N2       1.0000 0.84950  0.87230  0.47330  Biso   1.000  N
  N3       1.0000 0.15050  0.87230  0.47330  Biso   1.000  N
  N4       1.0000 0.84950  0.12770  0.97330  Biso   1.000  N
  N5       1.0000 0.65050  0.62770  0.97330  Biso   1.000  N
  N6       1.0000 0.34950  0.37230  0.47330  Biso   1.000  N
  N7       1.0000 0.65050  0.37230  0.47330  Biso   1.000  N
  N8       1.0000 0.34950  0.62770  0.97330  Biso   1.000  N
  C1       1.0000 0.20650  0.22850  0.89400  Biso   1.000  C
  C2       1.0000 0.79350  0.77150  0.39400  Biso   1.000  C
  C3       1.0000 0.20650  0.77150  0.39400  Biso   1.000  C
  C4       1.0000 0.79350  0.22850  0.89400  Biso   1.000  C
  C5       1.0000 0.70650  0.72850  0.89400  Biso   1.000  C
  C6       1.0000 0.29350  0.27150  0.39400  Biso   1.000  C
  C7       1.0000 0.70650  0.27150  0.39400  Biso   1.000  C
  C8       1.0000 0.29350  0.72850  0.89400  Biso   1.000  C
  H1       1.0000 0.17796  0.30392  0.84547  Biso   1.000  H
  H2       1.0000 0.82204  0.69608  0.34547  Biso   1.000  H
  H3       1.0000 0.17796  0.69608  0.34547  Biso   1.000  H
  H4       1.0000 0.82204  0.30392  0.84547  Biso   1.000  H
  H5       1.0000 0.67796  0.80392  0.84547  Biso   1.000  H
  H6       1.0000 0.32204  0.19608  0.34547  Biso   1.000  H
  H7       1.0000 0.67796  0.19608  0.34547  Biso   1.000  H
  H8       1.0000 0.32204  0.80392  0.84547  Biso   1.000  H
  N9       1.0000 0.30550  0.20040  0.89900  Biso   1.000  N
  N10      1.0000 0.69450  0.79960  0.39900  Biso   1.000  N
  N11      1.0000 0.30550  0.79960  0.39900  Biso   1.000  N
  N12      1.0000 0.69450  0.20040  0.89900  Biso   1.000  N
  N13      1.0000 0.80550  0.70040  0.89900  Biso   1.000  N
  N14      1.0000 0.19450  0.29960  0.39900  Biso   1.000  N
  N15      1.0000 0.80550  0.29960  0.39900  Biso   1.000  N
  N16      1.0000 0.19450  0.70040  0.89900  Biso   1.000  N
  H9       1.0000 0.35552  0.24642  0.85024  Biso   1.000  H
  H10      1.0000 0.64448  0.75358  0.35024  Biso   1.000  H
  H11      1.0000 0.35552  0.75358  0.35024  Biso   1.000  H
  H12      1.0000 0.64448  0.24642  0.85024  Biso   1.000  H
  H13      1.0000 0.85552  0.74642  0.85024  Biso   1.000  H
  H14      1.0000 0.14448  0.25358  0.35024  Biso   1.000  H
  H15      1.0000 0.85552  0.25358  0.35024  Biso   1.000  H
  H16      1.0000 0.14448  0.74642  0.85024  Biso   1.000  H
  C9       1.0000 0.31780  0.08300  0.99600  Biso   1.000  C
  C10      1.0000 0.68220  0.91700  0.49600  Biso   1.000  C
  C11      1.0000 0.31780  0.91700  0.49600  Biso   1.000  C
  C12      1.0000 0.68220  0.08300  0.99600  Biso   1.000  C
  C13      1.0000 0.81780  0.58300  0.99600  Biso   1.000  C
  C14      1.0000 0.18220  0.41700  0.49600  Biso   1.000  C
  C15      1.0000 0.81780  0.41700  0.49600  Biso   1.000  C
  C16      1.0000 0.18220  0.58300  0.99600  Biso   1.000  C
  H17      1.0000 0.37949  0.04000  0.02632  Biso   1.000  H
  H18      1.0000 0.62051  0.96000  0.52632  Biso   1.000  H
  H19      1.0000 0.37949  0.96000  0.52632  Biso   1.000  H
  H20      1.0000 0.62051  0.04000  0.02632  Biso   1.000  H
  H21      1.0000 0.87949  0.54000  0.02632  Biso   1.000  H
  H22      1.0000 0.12051  0.46000  0.52632  Biso   1.000  H
  H23      1.0000 0.87949  0.46000  0.52632  Biso   1.000  H
  H24      1.0000 0.12051  0.54000  0.02632  Biso   1.000  H
  C17      1.0000 0.22090  0.05000  0.03500  Biso   1.000  C
  C18      1.0000 0.77910  0.95000  0.53500  Biso   1.000  C
  C19      1.0000 0.22090  0.95000  0.53500  Biso   1.000  C
  C20      1.0000 0.77910  0.05000  0.03500  Biso   1.000  C
  C21      1.0000 0.72090  0.55000  0.03500  Biso   1.000  C
  C22      1.0000 0.27910  0.45000  0.53500  Biso   1.000  C
  C23      1.0000 0.72090  0.45000  0.53500  Biso   1.000  C
  C24      1.0000 0.27910  0.55000  0.03500  Biso   1.000  C
  H25      1.0000 0.20431  0.97499  0.10295  Biso   1.000  H
  H26      1.0000 0.79569  0.02501  0.60295  Biso   1.000  H
  H27      1.0000 0.20431  0.02501  0.60295  Biso   1.000  H
  H28      1.0000 0.79569  0.97499  0.10295  Biso   1.000  H
  H29      1.0000 0.70431  0.47499  0.10295  Biso   1.000  H
  H30      1.0000 0.29569  0.52501  0.60295  Biso   1.000  H
  H31      1.0000 0.70431  0.52501  0.60295  Biso   1.000  H
  H32      1.0000 0.29569  0.47499  0.10295  Biso   1.000  H
  C25      1.0000 0.20900  0.02130  0.02900  Biso   1.000  C
  C26      1.0000 0.79100  0.97870  0.52900  Biso   1.000  C
  C27      1.0000 0.20900  0.97870  0.52900  Biso   1.000  C
  C28      1.0000 0.79100  0.02130  0.02900  Biso   1.000  C
  C29      1.0000 0.70900  0.52130  0.02900  Biso   1.000  C
  C30      1.0000 0.29100  0.47870  0.52900  Biso   1.000  C
  C31      1.0000 0.70900  0.47870  0.52900  Biso   1.000  C
  C32      1.0000 0.29100  0.52130  0.02900  Biso   1.000  C
  H33      1.0000 0.18155  0.94689  0.08366  Biso   1.000  H
  H34      1.0000 0.81845  0.05311  0.58366  Biso   1.000  H
  H35      1.0000 0.18155  0.05311  0.58366  Biso   1.000  H
  H36      1.0000 0.81845  0.94689  0.08366  Biso   1.000  H
  H37      1.0000 0.68155  0.44689  0.08366  Biso   1.000  H
  H38      1.0000 0.31845  0.55311  0.58366  Biso   1.000  H
  H39      1.0000 0.68155  0.55311  0.58366  Biso   1.000  H
  H40      1.0000 0.31845  0.44689  0.08366  Biso   1.000  H
  N17      1.0000 0.30670  0.04210  0.99300  Biso   1.000  N
  N18      1.0000 0.69330  0.95790  0.49300  Biso   1.000  N
  N19      1.0000 0.30670  0.95790  0.49300  Biso   1.000  N
  N20      1.0000 0.69330  0.04210  0.99300  Biso   1.000  N
  N21      1.0000 0.80670  0.54210  0.99300  Biso   1.000  N
  N22      1.0000 0.19330  0.45790  0.49300  Biso   1.000  N
  N23      1.0000 0.80670  0.45790  0.49300  Biso   1.000  N
  N24      1.0000 0.19330  0.54210  0.99300  Biso   1.000  N
  H41      1.0000 0.35703  0.98971  0.01787  Biso   1.000  H
  H42      1.0000 0.64297  0.01029  0.51787  Biso   1.000  H
  H43      1.0000 0.35703  0.01029  0.51787  Biso   1.000  H
  H44      1.0000 0.64297  0.98971  0.01787  Biso   1.000  H
  H45      1.0000 0.85703  0.48971  0.01787  Biso   1.000  H
  H46      1.0000 0.14297  0.51029  0.51787  Biso   1.000  H
  H47      1.0000 0.85703  0.51029  0.51787  Biso   1.000  H
  H48      1.0000 0.14297  0.48971  0.01787  Biso   1.000  H
  C33      1.0000 0.31800  0.15600  0.91200  Biso   1.000  C
  C34      1.0000 0.68200  0.84400  0.41200  Biso   1.000  C
  C35      1.0000 0.31800  0.84400  0.41200  Biso   1.000  C
  C36      1.0000 0.68200  0.15600  0.91200  Biso   1.000  C
  C37      1.0000 0.81800  0.65600  0.91200  Biso   1.000  C
  C38      1.0000 0.18200  0.34400  0.41200  Biso   1.000  C
  C39      1.0000 0.81800  0.34400  0.41200  Biso   1.000  C
  C40      1.0000 0.18200  0.65600  0.91200  Biso   1.000  C
  H49      1.0000 0.38048  0.19577  0.87656  Biso   1.000  H
  H50      1.0000 0.61952  0.80423  0.37656  Biso   1.000  H
  H51      1.0000 0.38048  0.80423  0.37656  Biso   1.000  H
  H52      1.0000 0.61952  0.19577  0.87656  Biso   1.000  H
  H53      1.0000 0.88048  0.69577  0.87656  Biso   1.000  H
  H54      1.0000 0.11952  0.30423  0.37656  Biso   1.000  H
  H55      1.0000 0.88048  0.30423  0.37656  Biso   1.000  H
  H56      1.0000 0.11952  0.69577  0.87656  Biso   1.000  H
  C41      1.0000 0.22290  0.20000  0.89100  Biso   1.000  C
  C42      1.0000 0.77710  0.80000  0.39100  Biso   1.000  C
  C43      1.0000 0.22290  0.80000  0.39100  Biso   1.000  C
  C44      1.0000 0.77710  0.20000  0.89100  Biso   1.000  C
  C45      1.0000 0.72290  0.70000  0.89100  Biso   1.000  C
  C46      1.0000 0.27710  0.30000  0.39100  Biso   1.000  C
  C47      1.0000 0.72290  0.30000  0.39100  Biso   1.000  C
  C48      1.0000 0.27710  0.70000  0.89100  Biso   1.000  C
  H57      1.0000 0.20788  0.27613  0.82503  Biso   1.000  H
  H58      1.0000 0.79212  0.72387  0.32503  Biso   1.000  H
  H59      1.0000 0.20788  0.72387  0.32503  Biso   1.000  H
  H60      1.0000 0.79212  0.27613  0.82503  Biso   1.000  H
  H61      1.0000 0.70788  0.77613  0.82503  Biso   1.000  H
  H62      1.0000 0.29212  0.22387  0.32503  Biso   1.000  H
  H63      1.0000 0.70788  0.22387  0.32503  Biso   1.000  H
  H64      1.0000 0.29212  0.77613  0.82503  Biso   1.000  H
