data_image0
_cell_length_a       12.915
_cell_length_b       10.784
_cell_length_c       6.8037
_cell_angle_alpha    90
_cell_angle_beta     90
_cell_angle_gamma    90

_symmetry_space_group_name_H-M    "P 1"
_symmetry_int_tables_number       1

loop_
  _symmetry_equiv_pos_as_xyz
  'x, y, z'

loop_
  _atom_site_label
  _atom_site_occupancy
  _atom_site_fract_x
  _atom_site_fract_y
  _atom_site_fract_z
  _atom_site_thermal_displace_type
  _atom_site_B_iso_or_equiv
  _atom_site_type_symbol
  Cu1      1.0000 0.50000  0.12666  0.35629  Biso   1.000  Cu
  Cu2      1.0000 0.50000  0.87334  0.85629  Biso   1.000  Cu
  Cu3      1.0000 0.00000  0.62666  0.35629  Biso   1.000  Cu
  Cu4      1.0000 0.00000  0.37334  0.85629  Biso   1.000  Cu
  Cl1      1.0000 0.50000  0.91753  0.25760  Biso   1.000  Cl
  Cl2      1.0000 0.50000  0.08247  0.75760  Biso   1.000  Cl
  Cl3      1.0000 0.00000  0.41753  0.25760  Biso   1.000  Cl
  Cl4      1.0000 0.00000  0.58247  0.75760  Biso   1.000  Cl
  Cl5      1.0000 0.50000  0.34023  0.38150  Biso   1.000  Cl
  Cl6      1.0000 0.50000  0.65977  0.88150  Biso   1.000  Cl
  Cl7      1.0000 0.00000  0.84023  0.38150  Biso   1.000  Cl
  Cl8      1.0000 0.00000  0.15977  0.88150  Biso   1.000  Cl
  N1       1.0000 0.34790  0.12740  0.34490  Biso   1.000  N
  N2       1.0000 0.65210  0.87260  0.84490  Biso   1.000  N
  N3       1.0000 0.34790  0.87260  0.84490  Biso   1.000  N
  N4       1.0000 0.65210  0.12740  0.34490  Biso   1.000  N
  N5       1.0000 0.84790  0.62740  0.34490  Biso   1.000  N
  N6       1.0000 0.15210  0.37260  0.84490  Biso   1.000  N
  N7       1.0000 0.84790  0.37260  0.84490  Biso   1.000  N
  N8       1.0000 0.15210  0.62740  0.34490  Biso   1.000  N
  C1       1.0000 0.18690  0.06480  0.36510  Biso   1.000  C
  C2       1.0000 0.81310  0.93520  0.86510  Biso   1.000  C
  C3       1.0000 0.18690  0.93520  0.86510  Biso   1.000  C
  C4       1.0000 0.81310  0.06480  0.36510  Biso   1.000  C
  C5       1.0000 0.68690  0.56480  0.36510  Biso   1.000  C
  C6       1.0000 0.31310  0.43520  0.86510  Biso   1.000  C
  C7       1.0000 0.68690  0.43520  0.86510  Biso   1.000  C
  C8       1.0000 0.31310  0.56480  0.36510  Biso   1.000  C
  H1       1.0000 0.12860  0.01680  0.39040  Biso   1.000  H
  H2       1.0000 0.87140  0.98320  0.89040  Biso   1.000  H
  H3       1.0000 0.12860  0.98320  0.89040  Biso   1.000  H
  H4       1.0000 0.87140  0.01680  0.39040  Biso   1.000  H
  H5       1.0000 0.62860  0.51680  0.39040  Biso   1.000  H
  H6       1.0000 0.37140  0.48320  0.89040  Biso   1.000  H
  H7       1.0000 0.62860  0.48320  0.89040  Biso   1.000  H
  H8       1.0000 0.37140  0.51680  0.39040  Biso   1.000  H
  C9       1.0000 0.28400  0.03630  0.40360  Biso   1.000  C
  C10      1.0000 0.71600  0.96370  0.90360  Biso   1.000  C
  C11      1.0000 0.28400  0.96370  0.90360  Biso   1.000  C
  C12      1.0000 0.71600  0.03630  0.40360  Biso   1.000  C
  C13      1.0000 0.78400  0.53630  0.40360  Biso   1.000  C
  C14      1.0000 0.21600  0.46370  0.90360  Biso   1.000  C
  C15      1.0000 0.78400  0.46370  0.90360  Biso   1.000  C
  C16      1.0000 0.21600  0.53630  0.40360  Biso   1.000  C
  H9       1.0000 0.30540  0.96300  0.46330  Biso   1.000  H
  H10      1.0000 0.69460  0.03700  0.96330  Biso   1.000  H
  H11      1.0000 0.30540  0.03700  0.96330  Biso   1.000  H
  H12      1.0000 0.69460  0.96300  0.46330  Biso   1.000  H
  H13      1.0000 0.80540  0.46300  0.46330  Biso   1.000  H
  H14      1.0000 0.19460  0.53700  0.96330  Biso   1.000  H
  H15      1.0000 0.80540  0.53700  0.96330  Biso   1.000  H
  H16      1.0000 0.19460  0.46300  0.46330  Biso   1.000  H
  N9       1.0000 0.18980  0.18300  0.27790  Biso   1.000  N
  N10      1.0000 0.81020  0.81700  0.77790  Biso   1.000  N
  N11      1.0000 0.18980  0.81700  0.77790  Biso   1.000  N
  N12      1.0000 0.81020  0.18300  0.27790  Biso   1.000  N
  N13      1.0000 0.68980  0.68300  0.27790  Biso   1.000  N
  N14      1.0000 0.31020  0.31700  0.77790  Biso   1.000  N
  N15      1.0000 0.68980  0.31700  0.77790  Biso   1.000  N
  N16      1.0000 0.31020  0.68300  0.27790  Biso   1.000  N
  H17      1.0000 0.13760  0.22620  0.23960  Biso   1.000  H
  H18      1.0000 0.86240  0.77380  0.73960  Biso   1.000  H
  H19      1.0000 0.13760  0.77380  0.73960  Biso   1.000  H
  H20      1.0000 0.86240  0.22620  0.23960  Biso   1.000  H
  H21      1.0000 0.63760  0.72620  0.23960  Biso   1.000  H
  H22      1.0000 0.36240  0.27380  0.73960  Biso   1.000  H
  H23      1.0000 0.63760  0.27380  0.73960  Biso   1.000  H
  H24      1.0000 0.36240  0.72620  0.23960  Biso   1.000  H
  C17      1.0000 0.28650  0.21410  0.26650  Biso   1.000  C
  C18      1.0000 0.71350  0.78590  0.76650  Biso   1.000  C
  C19      1.0000 0.28650  0.78590  0.76650  Biso   1.000  C
  C20      1.0000 0.71350  0.21410  0.26650  Biso   1.000  C
  C21      1.0000 0.78650  0.71410  0.26650  Biso   1.000  C
  C22      1.0000 0.21350  0.28590  0.76650  Biso   1.000  C
  C23      1.0000 0.78650  0.28590  0.76650  Biso   1.000  C
  C24      1.0000 0.21350  0.71410  0.26650  Biso   1.000  C
  H25      1.0000 0.31030  0.28760  0.21080  Biso   1.000  H
  H26      1.0000 0.68970  0.71240  0.71080  Biso   1.000  H
  H27      1.0000 0.31030  0.71240  0.71080  Biso   1.000  H
  H28      1.0000 0.68970  0.28760  0.21080  Biso   1.000  H
  H29      1.0000 0.81030  0.78760  0.21080  Biso   1.000  H
  H30      1.0000 0.18970  0.21240  0.71080  Biso   1.000  H
  H31      1.0000 0.81030  0.21240  0.71080  Biso   1.000  H
  H32      1.0000 0.18970  0.78760  0.21080  Biso   1.000  H
  H33      1.0000 0.13300  0.02040  0.38850  Biso   1.000  H
  H34      1.0000 0.86700  0.97960  0.88850  Biso   1.000  H
  H35      1.0000 0.13300  0.97960  0.88850  Biso   1.000  H
  H36      1.0000 0.86700  0.02040  0.38850  Biso   1.000  H
  H37      1.0000 0.63300  0.52040  0.38850  Biso   1.000  H
  H38      1.0000 0.36700  0.47960  0.88850  Biso   1.000  H
  H39      1.0000 0.63300  0.47960  0.88850  Biso   1.000  H
  H40      1.0000 0.36700  0.52040  0.38850  Biso   1.000  H
  H41      1.0000 0.13330  0.22970  0.23650  Biso   1.000  H
  H42      1.0000 0.86670  0.77030  0.73650  Biso   1.000  H
  H43      1.0000 0.13330  0.77030  0.73650  Biso   1.000  H
  H44      1.0000 0.86670  0.22970  0.23650  Biso   1.000  H
  H45      1.0000 0.63330  0.72970  0.23650  Biso   1.000  H
  H46      1.0000 0.36670  0.27030  0.73650  Biso   1.000  H
  H47      1.0000 0.63330  0.27030  0.73650  Biso   1.000  H
  H48      1.0000 0.36670  0.72970  0.23650  Biso   1.000  H
