data_image0
_cell_length_a       9.225
_cell_length_b       30.478
_cell_length_c       8.366
_cell_angle_alpha    90
_cell_angle_beta     90
_cell_angle_gamma    90

_symmetry_space_group_name_H-M    "P 1"
_symmetry_int_tables_number       1

loop_
  _symmetry_equiv_pos_as_xyz
  'x, y, z'

loop_
  _atom_site_label
  _atom_site_occupancy
  _atom_site_fract_x
  _atom_site_fract_y
  _atom_site_fract_z
  _atom_site_thermal_displace_type
  _atom_site_B_iso_or_equiv
  _atom_site_type_symbol
  Cu1      1.0000 0.76299  0.53306  0.11499  Biso   1.000  Cu
  Cu2      1.0000 0.73701  0.96694  0.11499  Biso   1.000  Cu
  Cu3      1.0000 0.26299  0.46694  0.38501  Biso   1.000  Cu
  Cu4      1.0000 0.23701  0.03306  0.38501  Biso   1.000  Cu
  Cu5      1.0000 0.23701  0.46694  0.88501  Biso   1.000  Cu
  Cu6      1.0000 0.26299  0.03306  0.88501  Biso   1.000  Cu
  Cu7      1.0000 0.73701  0.53306  0.61499  Biso   1.000  Cu
  Cu8      1.0000 0.76299  0.96694  0.61499  Biso   1.000  Cu
  C1       1.0000 0.97070  0.47740  0.01050  Biso   1.000  C
  C2       1.0000 0.52930  0.02260  0.01050  Biso   1.000  C
  C3       1.0000 0.47070  0.52260  0.48950  Biso   1.000  C
  C4       1.0000 0.02930  0.97740  0.48950  Biso   1.000  C
  C5       1.0000 0.02930  0.52260  0.98950  Biso   1.000  C
  C6       1.0000 0.47070  0.97740  0.98950  Biso   1.000  C
  C7       1.0000 0.52930  0.47740  0.51050  Biso   1.000  C
  C8       1.0000 0.97070  0.02260  0.51050  Biso   1.000  C
  C9       1.0000 0.51290  0.50600  0.91310  Biso   1.000  C
  C10      1.0000 0.98710  0.99400  0.91310  Biso   1.000  C
  C11      1.0000 0.01290  0.49400  0.58690  Biso   1.000  C
  C12      1.0000 0.48710  0.00600  0.58690  Biso   1.000  C
  C13      1.0000 0.48710  0.49400  0.08690  Biso   1.000  C
  C14      1.0000 0.01290  0.00600  0.08690  Biso   1.000  C
  C15      1.0000 0.98710  0.50600  0.41310  Biso   1.000  C
  C16      1.0000 0.51290  0.99400  0.41310  Biso   1.000  C
  O1       1.0000 0.04890  0.44470  0.97060  Biso   1.000  O
  O2       1.0000 0.45110  0.05530  0.97060  Biso   1.000  O
  O3       1.0000 0.54890  0.55530  0.52940  Biso   1.000  O
  O4       1.0000 0.95110  0.94470  0.52940  Biso   1.000  O
  O5       1.0000 0.95110  0.55530  0.02940  Biso   1.000  O
  O6       1.0000 0.54890  0.94470  0.02940  Biso   1.000  O
  O7       1.0000 0.45110  0.44470  0.47060  Biso   1.000  O
  O8       1.0000 0.04890  0.05530  0.47060  Biso   1.000  O
  O9       1.0000 0.42030  0.49408  0.81060  Biso   1.000  O
  O10      1.0000 0.07970  0.00592  0.81060  Biso   1.000  O
  O11      1.0000 0.92030  0.50592  0.68940  Biso   1.000  O
  O12      1.0000 0.57970  0.99408  0.68940  Biso   1.000  O
  O13      1.0000 0.57970  0.50592  0.18940  Biso   1.000  O
  O14      1.0000 0.92030  0.99408  0.18940  Biso   1.000  O
  O15      1.0000 0.07970  0.49408  0.31060  Biso   1.000  O
  O16      1.0000 0.42030  0.00592  0.31060  Biso   1.000  O
  O17      1.0000 0.84250  0.47418  0.06310  Biso   1.000  O
  O18      1.0000 0.65750  0.02582  0.06310  Biso   1.000  O
  O19      1.0000 0.34250  0.52582  0.43690  Biso   1.000  O
  O20      1.0000 0.15750  0.97418  0.43690  Biso   1.000  O
  O21      1.0000 0.15750  0.52582  0.93690  Biso   1.000  O
  O22      1.0000 0.34250  0.97418  0.93690  Biso   1.000  O
  O23      1.0000 0.65750  0.47418  0.56310  Biso   1.000  O
  O24      1.0000 0.84250  0.02582  0.56310  Biso   1.000  O
  C17      1.0000 0.64780  0.67720  0.29850  Biso   1.000  C
  C18      1.0000 0.85220  0.82280  0.29850  Biso   1.000  C
  C19      1.0000 0.14780  0.32280  0.20150  Biso   1.000  C
  C20      1.0000 0.35220  0.17720  0.20150  Biso   1.000  C
  C21      1.0000 0.35220  0.32280  0.70150  Biso   1.000  C
  C22      1.0000 0.14780  0.17720  0.70150  Biso   1.000  C
  C23      1.0000 0.85220  0.67720  0.79850  Biso   1.000  C
  C24      1.0000 0.64780  0.82280  0.79850  Biso   1.000  C
  C25      1.0000 0.53840  0.65030  0.22850  Biso   1.000  C
  C26      1.0000 0.96160  0.84970  0.22850  Biso   1.000  C
  C27      1.0000 0.03840  0.34970  0.27150  Biso   1.000  C
  C28      1.0000 0.46160  0.15030  0.27150  Biso   1.000  C
  C29      1.0000 0.46160  0.34970  0.77150  Biso   1.000  C
  C30      1.0000 0.03840  0.15030  0.77150  Biso   1.000  C
  C31      1.0000 0.96160  0.65030  0.72850  Biso   1.000  C
  C32      1.0000 0.53840  0.84970  0.72850  Biso   1.000  C
  H1       1.0000 0.44390  0.66050  0.21750  Biso   1.000  H
  H2       1.0000 0.05610  0.83950  0.21750  Biso   1.000  H
  H3       1.0000 0.94390  0.33950  0.28250  Biso   1.000  H
  H4       1.0000 0.55610  0.16050  0.28250  Biso   1.000  H
  H5       1.0000 0.55610  0.33950  0.78250  Biso   1.000  H
  H6       1.0000 0.94390  0.16050  0.78250  Biso   1.000  H
  H7       1.0000 0.05610  0.66050  0.71750  Biso   1.000  H
  H8       1.0000 0.44390  0.83950  0.71750  Biso   1.000  H
  C33      1.0000 0.78410  0.65990  0.31060  Biso   1.000  C
  C34      1.0000 0.71590  0.84010  0.31060  Biso   1.000  C
  C35      1.0000 0.28410  0.34010  0.18940  Biso   1.000  C
  C36      1.0000 0.21590  0.15990  0.18940  Biso   1.000  C
  C37      1.0000 0.21590  0.34010  0.68940  Biso   1.000  C
  C38      1.0000 0.28410  0.15990  0.68940  Biso   1.000  C
  C39      1.0000 0.71590  0.65990  0.81060  Biso   1.000  C
  C40      1.0000 0.78410  0.84010  0.81060  Biso   1.000  C
  H9       1.0000 0.85790  0.67590  0.35890  Biso   1.000  H
  H10      1.0000 0.64210  0.82410  0.35890  Biso   1.000  H
  H11      1.0000 0.35790  0.32410  0.14110  Biso   1.000  H
  H12      1.0000 0.14210  0.17590  0.14110  Biso   1.000  H
  H13      1.0000 0.14210  0.32410  0.64110  Biso   1.000  H
  H14      1.0000 0.35790  0.17590  0.64110  Biso   1.000  H
  H15      1.0000 0.64210  0.67590  0.85890  Biso   1.000  H
  H16      1.0000 0.85790  0.82410  0.85890  Biso   1.000  H
  C41      1.0000 0.81130  0.61860  0.25050  Biso   1.000  C
  C42      1.0000 0.68870  0.88140  0.25050  Biso   1.000  C
  C43      1.0000 0.31130  0.38140  0.24950  Biso   1.000  C
  C44      1.0000 0.18870  0.11860  0.24950  Biso   1.000  C
  C45      1.0000 0.18870  0.38140  0.74950  Biso   1.000  C
  C46      1.0000 0.31130  0.11860  0.74950  Biso   1.000  C
  C47      1.0000 0.68870  0.61860  0.75050  Biso   1.000  C
  C48      1.0000 0.81130  0.88140  0.75050  Biso   1.000  C
  H17      1.0000 0.90510  0.60750  0.25690  Biso   1.000  H
  H18      1.0000 0.59490  0.89250  0.25690  Biso   1.000  H
  H19      1.0000 0.40510  0.39250  0.24310  Biso   1.000  H
  H20      1.0000 0.09490  0.10750  0.24310  Biso   1.000  H
  H21      1.0000 0.09490  0.39250  0.74310  Biso   1.000  H
  H22      1.0000 0.40510  0.10750  0.74310  Biso   1.000  H
  H23      1.0000 0.59490  0.60750  0.75690  Biso   1.000  H
  H24      1.0000 0.90510  0.89250  0.75690  Biso   1.000  H
  C49      1.0000 0.57560  0.60990  0.17900  Biso   1.000  C
  C50      1.0000 0.92440  0.89010  0.17900  Biso   1.000  C
  C51      1.0000 0.07560  0.39010  0.32100  Biso   1.000  C
  C52      1.0000 0.42440  0.10990  0.32100  Biso   1.000  C
  C53      1.0000 0.42440  0.39010  0.82100  Biso   1.000  C
  C54      1.0000 0.07560  0.10990  0.82100  Biso   1.000  C
  C55      1.0000 0.92440  0.60990  0.67900  Biso   1.000  C
  C56      1.0000 0.57560  0.89010  0.67900  Biso   1.000  C
  H25      1.0000 0.50270  0.59200  0.13850  Biso   1.000  H
  H26      1.0000 0.99730  0.90800  0.13850  Biso   1.000  H
  H27      1.0000 0.00270  0.40800  0.36150  Biso   1.000  H
  H28      1.0000 0.49730  0.09200  0.36150  Biso   1.000  H
  H29      1.0000 0.49730  0.40800  0.86150  Biso   1.000  H
  H30      1.0000 0.00270  0.09200  0.86150  Biso   1.000  H
  H31      1.0000 0.99730  0.59200  0.63850  Biso   1.000  H
  H32      1.0000 0.50270  0.90800  0.63850  Biso   1.000  H
  N1       1.0000 0.70910  0.59380  0.18390  Biso   1.000  N
  N2       1.0000 0.79090  0.90620  0.18390  Biso   1.000  N
  N3       1.0000 0.20910  0.40620  0.31610  Biso   1.000  N
  N4       1.0000 0.29090  0.09380  0.31610  Biso   1.000  N
  N5       1.0000 0.29090  0.40620  0.81610  Biso   1.000  N
  N6       1.0000 0.20910  0.09380  0.81610  Biso   1.000  N
  N7       1.0000 0.79090  0.59380  0.68390  Biso   1.000  N
  N8       1.0000 0.70910  0.90620  0.68390  Biso   1.000  N
  O25      1.0000 0.62700  0.52635  0.87980  Biso   1.000  O
  O26      1.0000 0.87300  0.97365  0.87980  Biso   1.000  O
  O27      1.0000 0.12700  0.47365  0.62020  Biso   1.000  O
  O28      1.0000 0.37300  0.02635  0.62020  Biso   1.000  O
  O29      1.0000 0.37300  0.47365  0.12020  Biso   1.000  O
  O30      1.0000 0.12700  0.02635  0.12020  Biso   1.000  O
  O31      1.0000 0.87300  0.52635  0.37980  Biso   1.000  O
  O32      1.0000 0.62700  0.97365  0.37980  Biso   1.000  O
  S1       1.0000 0.59360  0.72999  0.36420  Biso   1.000  S
  S2       1.0000 0.90640  0.77001  0.36420  Biso   1.000  S
  S3       1.0000 0.09360  0.27001  0.13580  Biso   1.000  S
  S4       1.0000 0.40640  0.22999  0.13580  Biso   1.000  S
  S5       1.0000 0.40640  0.27001  0.63580  Biso   1.000  S
  S6       1.0000 0.09360  0.22999  0.63580  Biso   1.000  S
  S7       1.0000 0.90640  0.72999  0.86420  Biso   1.000  S
  S8       1.0000 0.59360  0.77001  0.86420  Biso   1.000  S
  C57      1.0000 0.75000  0.75000  0.47200  Biso   1.000  C
  C58      1.0000 0.25000  0.25000  0.02800  Biso   1.000  C
  C59      1.0000 0.25000  0.25000  0.52800  Biso   1.000  C
  C60      1.0000 0.75000  0.75000  0.97200  Biso   1.000  C
  H33      1.0000 0.71710  0.77350  0.54110  Biso   1.000  H
  H34      1.0000 0.78290  0.72650  0.54110  Biso   1.000  H
  H35      1.0000 0.21710  0.22650  0.95890  Biso   1.000  H
  H36      1.0000 0.28290  0.27350  0.95890  Biso   1.000  H
  H37      1.0000 0.28290  0.22650  0.45890  Biso   1.000  H
  H38      1.0000 0.21710  0.27350  0.45890  Biso   1.000  H
  H39      1.0000 0.78290  0.77350  0.04110  Biso   1.000  H
  H40      1.0000 0.71710  0.72650  0.04110  Biso   1.000  H
