data_image0
_cell_length_a       8.703
_cell_length_b       14.442
_cell_length_c       18.168
_cell_angle_alpha    90
_cell_angle_beta     93.21
_cell_angle_gamma    90

_symmetry_space_group_name_H-M    "P 1"
_symmetry_int_tables_number       1

loop_
  _symmetry_equiv_pos_as_xyz
  'x, y, z'

loop_
  _atom_site_label
  _atom_site_occupancy
  _atom_site_fract_x
  _atom_site_fract_y
  _atom_site_fract_z
  _atom_site_thermal_displace_type
  _atom_site_B_iso_or_equiv
  _atom_site_type_symbol
  Cu1      1.0000 0.70270  0.01639  0.16750  Biso   1.000  Cu
  Cu2      1.0000 0.70270  0.48361  0.66750  Biso   1.000  Cu
  Cu3      1.0000 0.29730  0.98361  0.83250  Biso   1.000  Cu
  Cu4      1.0000 0.29730  0.51639  0.33250  Biso   1.000  Cu
  Cu5      1.0000 0.68440  0.02655  0.35885  Biso   1.000  Cu
  Cu6      1.0000 0.68440  0.47345  0.85885  Biso   1.000  Cu
  Cu7      1.0000 0.31560  0.97345  0.64115  Biso   1.000  Cu
  Cu8      1.0000 0.31560  0.52655  0.14115  Biso   1.000  Cu
  O1       1.0000 0.77200  0.98160  0.07360  Biso   1.000  O
  O2       1.0000 0.77200  0.51840  0.57360  Biso   1.000  O
  O3       1.0000 0.22800  0.01840  0.92640  Biso   1.000  O
  O4       1.0000 0.22800  0.48160  0.42640  Biso   1.000  O
  O5       1.0000 0.61390  0.04890  0.25910  Biso   1.000  O
  O6       1.0000 0.61390  0.45110  0.75910  Biso   1.000  O
  O7       1.0000 0.38610  0.95110  0.74090  Biso   1.000  O
  O8       1.0000 0.38610  0.54890  0.24090  Biso   1.000  O
  O9       1.0000 0.77520  0.02610  0.45640  Biso   1.000  O
  O10      1.0000 0.77520  0.47390  0.95640  Biso   1.000  O
  O11      1.0000 0.22480  0.97390  0.54360  Biso   1.000  O
  O12      1.0000 0.22480  0.52610  0.04360  Biso   1.000  O
  O13      1.0000 0.82280  0.92750  0.33340  Biso   1.000  O
  O14      1.0000 0.82280  0.57250  0.83340  Biso   1.000  O
  O15      1.0000 0.17720  0.07250  0.66660  Biso   1.000  O
  O16      1.0000 0.17720  0.42750  0.16660  Biso   1.000  O
  O17      1.0000 0.80530  0.90510  0.21110  Biso   1.000  O
  O18      1.0000 0.80530  0.59490  0.71110  Biso   1.000  O
  O19      1.0000 0.19470  0.09490  0.78890  Biso   1.000  O
  O20      1.0000 0.19470  0.40510  0.28890  Biso   1.000  O
  N1       1.0000 0.54430  0.09960  0.12480  Biso   1.000  N
  N2       1.0000 0.54430  0.40040  0.62480  Biso   1.000  N
  N3       1.0000 0.45570  0.90040  0.87520  Biso   1.000  N
  N4       1.0000 0.45570  0.59960  0.37520  Biso   1.000  N
  N5       1.0000 0.52350  0.11130  0.38300  Biso   1.000  N
  N6       1.0000 0.52350  0.38870  0.88300  Biso   1.000  N
  N7       1.0000 0.47650  0.88870  0.61700  Biso   1.000  N
  N8       1.0000 0.47650  0.61130  0.11700  Biso   1.000  N
  C1       1.0000 0.74070  0.02480  0.01040  Biso   1.000  C
  C2       1.0000 0.74070  0.47520  0.51040  Biso   1.000  C
  C3       1.0000 0.25930  0.97520  0.98960  Biso   1.000  C
  C4       1.0000 0.25930  0.52480  0.48960  Biso   1.000  C
  C5       1.0000 0.82940  0.00480  0.95000  Biso   1.000  C
  C6       1.0000 0.82940  0.49520  0.45000  Biso   1.000  C
  C7       1.0000 0.17060  0.99520  0.05000  Biso   1.000  C
  C8       1.0000 0.17060  0.50480  0.55000  Biso   1.000  C
  H1       1.0000 0.90650  0.96030  0.95510  Biso   1.000  H
  H2       1.0000 0.90650  0.53970  0.45510  Biso   1.000  H
  H3       1.0000 0.09350  0.03970  0.04490  Biso   1.000  H
  H4       1.0000 0.09350  0.46030  0.54490  Biso   1.000  H
  C9       1.0000 0.80470  0.04960  0.88350  Biso   1.000  C
  C10      1.0000 0.80470  0.45040  0.38350  Biso   1.000  C
  C11      1.0000 0.19530  0.95040  0.11650  Biso   1.000  C
  C12      1.0000 0.19530  0.54960  0.61650  Biso   1.000  C
  H5       1.0000 0.86860  0.03680  0.84540  Biso   1.000  H
  H6       1.0000 0.86860  0.46320  0.34540  Biso   1.000  H
  H7       1.0000 0.13140  0.96320  0.15460  Biso   1.000  H
  H8       1.0000 0.13140  0.53680  0.65460  Biso   1.000  H
  C13      1.0000 0.68690  0.11320  0.87200  Biso   1.000  C
  C14      1.0000 0.68690  0.38680  0.37200  Biso   1.000  C
  C15      1.0000 0.31310  0.88680  0.12800  Biso   1.000  C
  C16      1.0000 0.31310  0.61320  0.62800  Biso   1.000  C
  H9       1.0000 0.66990  0.14210  0.82650  Biso   1.000  H
  H10      1.0000 0.66990  0.35790  0.32650  Biso   1.000  H
  H11      1.0000 0.33010  0.85790  0.17350  Biso   1.000  H
  H12      1.0000 0.33010  0.64210  0.67350  Biso   1.000  H
  C17      1.0000 0.59680  0.13230  0.92870  Biso   1.000  C
  C18      1.0000 0.59680  0.36770  0.42870  Biso   1.000  C
  C19      1.0000 0.40320  0.86770  0.07130  Biso   1.000  C
  C20      1.0000 0.40320  0.63230  0.57130  Biso   1.000  C
  H13      1.0000 0.51610  0.17400  0.92080  Biso   1.000  H
  H14      1.0000 0.51610  0.32600  0.42080  Biso   1.000  H
  H15      1.0000 0.48390  0.82600  0.07920  Biso   1.000  H
  H16      1.0000 0.48390  0.67400  0.57920  Biso   1.000  H
  C21      1.0000 0.62060  0.09160  0.99900  Biso   1.000  C
  C22      1.0000 0.62060  0.40840  0.49900  Biso   1.000  C
  C23      1.0000 0.37940  0.90840  0.00100  Biso   1.000  C
  C24      1.0000 0.37940  0.59160  0.50100  Biso   1.000  C
  C25      1.0000 0.52300  0.12060  0.05660  Biso   1.000  C
  C26      1.0000 0.52300  0.37940  0.55660  Biso   1.000  C
  C27      1.0000 0.47700  0.87940  0.94340  Biso   1.000  C
  C28      1.0000 0.47700  0.62060  0.44340  Biso   1.000  C
  H17      1.0000 0.43840  0.15730  0.04310  Biso   1.000  H
  H18      1.0000 0.43840  0.34270  0.54310  Biso   1.000  H
  H19      1.0000 0.56160  0.84270  0.95690  Biso   1.000  H
  H20      1.0000 0.56160  0.65730  0.45690  Biso   1.000  H
  C29      1.0000 0.44150  0.13330  0.17840  Biso   1.000  C
  C30      1.0000 0.44150  0.36670  0.67840  Biso   1.000  C
  C31      1.0000 0.55850  0.86670  0.82160  Biso   1.000  C
  C32      1.0000 0.55850  0.63330  0.32160  Biso   1.000  C
  H21      1.0000 0.35190  0.09350  0.17980  Biso   1.000  H
  H22      1.0000 0.35190  0.40650  0.67980  Biso   1.000  H
  H23      1.0000 0.64810  0.90650  0.82020  Biso   1.000  H
  H24      1.0000 0.64810  0.59350  0.32020  Biso   1.000  H
  H25      1.0000 0.40730  0.19550  0.16580  Biso   1.000  H
  H26      1.0000 0.40730  0.30450  0.66580  Biso   1.000  H
  H27      1.0000 0.59270  0.80450  0.83420  Biso   1.000  H
  H28      1.0000 0.59270  0.69550  0.33420  Biso   1.000  H
  C33      1.0000 0.52990  0.13300  0.25240  Biso   1.000  C
  C34      1.0000 0.52990  0.36700  0.75240  Biso   1.000  C
  C35      1.0000 0.47010  0.86700  0.74760  Biso   1.000  C
  C36      1.0000 0.47010  0.63300  0.24760  Biso   1.000  C
  H29      1.0000 0.60340  0.18450  0.25360  Biso   1.000  H
  H30      1.0000 0.60340  0.31550  0.75360  Biso   1.000  H
  H31      1.0000 0.39660  0.81550  0.74640  Biso   1.000  H
  H32      1.0000 0.39660  0.68450  0.24640  Biso   1.000  H
  C37      1.0000 0.43100  0.14270  0.31680  Biso   1.000  C
  C38      1.0000 0.43100  0.35730  0.81680  Biso   1.000  C
  C39      1.0000 0.56900  0.85730  0.68320  Biso   1.000  C
  C40      1.0000 0.56900  0.64270  0.18320  Biso   1.000  C
  H33      1.0000 0.40030  0.20680  0.32250  Biso   1.000  H
  H34      1.0000 0.40030  0.29320  0.82250  Biso   1.000  H
  H35      1.0000 0.59970  0.79320  0.67750  Biso   1.000  H
  H36      1.0000 0.59970  0.70680  0.17750  Biso   1.000  H
  H37      1.0000 0.33910  0.10510  0.30950  Biso   1.000  H
  H38      1.0000 0.33910  0.39490  0.80950  Biso   1.000  H
  H39      1.0000 0.66090  0.89490  0.69050  Biso   1.000  H
  H40      1.0000 0.66090  0.60510  0.19050  Biso   1.000  H
  C41      1.0000 0.48510  0.13200  0.44770  Biso   1.000  C
  C42      1.0000 0.48510  0.36800  0.94770  Biso   1.000  C
  C43      1.0000 0.51490  0.86800  0.55230  Biso   1.000  C
  C44      1.0000 0.51490  0.63200  0.05230  Biso   1.000  C
  H41      1.0000 0.39540  0.16610  0.45180  Biso   1.000  H
  H42      1.0000 0.39540  0.33390  0.95180  Biso   1.000  H
  H43      1.0000 0.60460  0.83390  0.54820  Biso   1.000  H
  H44      1.0000 0.60460  0.66610  0.04820  Biso   1.000  H
  C45      1.0000 0.57070  0.10650  0.51510  Biso   1.000  C
  C46      1.0000 0.57070  0.39350  0.01510  Biso   1.000  C
  C47      1.0000 0.42930  0.89350  0.48490  Biso   1.000  C
  C48      1.0000 0.42930  0.60650  0.98490  Biso   1.000  C
  C49      1.0000 0.51150  0.13510  0.58190  Biso   1.000  C
  C50      1.0000 0.51150  0.36490  0.08190  Biso   1.000  C
  C51      1.0000 0.48850  0.86490  0.41810  Biso   1.000  C
  C52      1.0000 0.48850  0.63510  0.91810  Biso   1.000  C
  H45      1.0000 0.41700  0.16530  0.58100  Biso   1.000  H
  H46      1.0000 0.41700  0.33470  0.08100  Biso   1.000  H
  H47      1.0000 0.58300  0.83470  0.41900  Biso   1.000  H
  H48      1.0000 0.58300  0.66530  0.91900  Biso   1.000  H
  C53      1.0000 0.59080  0.11940  0.64910  Biso   1.000  C
  C54      1.0000 0.59080  0.38060  0.14910  Biso   1.000  C
  C55      1.0000 0.40920  0.88060  0.35090  Biso   1.000  C
  C56      1.0000 0.40920  0.61940  0.85090  Biso   1.000  C
  H49      1.0000 0.55010  0.13790  0.69300  Biso   1.000  H
  H50      1.0000 0.55010  0.36210  0.19300  Biso   1.000  H
  H51      1.0000 0.44990  0.86210  0.30700  Biso   1.000  H
  H52      1.0000 0.44990  0.63790  0.80700  Biso   1.000  H
  C57      1.0000 0.73500  0.07440  0.64920  Biso   1.000  C
  C58      1.0000 0.73500  0.42560  0.14920  Biso   1.000  C
  C59      1.0000 0.26500  0.92560  0.35080  Biso   1.000  C
  C60      1.0000 0.26500  0.57440  0.85080  Biso   1.000  C
  H53      1.0000 0.78970  0.06380  0.69380  Biso   1.000  H
  H54      1.0000 0.78970  0.43620  0.19380  Biso   1.000  H
  H55      1.0000 0.21030  0.93620  0.30620  Biso   1.000  H
  H56      1.0000 0.21030  0.56380  0.80620  Biso   1.000  H
  C61      1.0000 0.79570  0.04630  0.58520  Biso   1.000  C
  C62      1.0000 0.79570  0.45370  0.08520  Biso   1.000  C
  C63      1.0000 0.20430  0.95370  0.41480  Biso   1.000  C
  C64      1.0000 0.20430  0.54630  0.91480  Biso   1.000  C
  H57      1.0000 0.89210  0.01820  0.58680  Biso   1.000  H
  H58      1.0000 0.89210  0.48180  0.08680  Biso   1.000  H
  H59      1.0000 0.10790  0.98180  0.41320  Biso   1.000  H
  H60      1.0000 0.10790  0.51820  0.91320  Biso   1.000  H
  C65      1.0000 0.71290  0.05930  0.51580  Biso   1.000  C
  C66      1.0000 0.71290  0.44070  0.01580  Biso   1.000  C
  C67      1.0000 0.28710  0.94070  0.48420  Biso   1.000  C
  C68      1.0000 0.28710  0.55930  0.98420  Biso   1.000  C
  C69      1.0000 0.84310  0.88300  0.27590  Biso   1.000  C
  C70      1.0000 0.84310  0.61700  0.77590  Biso   1.000  C
  C71      1.0000 0.15690  0.11700  0.72410  Biso   1.000  C
  C72      1.0000 0.15690  0.38300  0.22410  Biso   1.000  C
  C73      1.0000 0.92710  0.79190  0.28610  Biso   1.000  C
  C74      1.0000 0.92710  0.70810  0.78610  Biso   1.000  C
  C75      1.0000 0.07290  0.20810  0.71390  Biso   1.000  C
  C76      1.0000 0.07290  0.29190  0.21390  Biso   1.000  C
  C77      1.0000 0.98110  0.76430  0.35570  Biso   1.000  C
  C78      1.0000 0.98110  0.73570  0.85570  Biso   1.000  C
  C79      1.0000 0.01890  0.23570  0.64430  Biso   1.000  C
  C80      1.0000 0.01890  0.26430  0.14430  Biso   1.000  C
  H61      1.0000 0.96170  0.79960  0.39700  Biso   1.000  H
  H62      1.0000 0.96170  0.70040  0.89700  Biso   1.000  H
  H63      1.0000 0.03830  0.20040  0.60300  Biso   1.000  H
  H64      1.0000 0.03830  0.29960  0.10300  Biso   1.000  H
  C81      1.0000 0.06510  0.68260  0.36260  Biso   1.000  C
  C82      1.0000 0.06510  0.81740  0.86260  Biso   1.000  C
  C83      1.0000 0.93490  0.31740  0.63740  Biso   1.000  C
  C84      1.0000 0.93490  0.18260  0.13740  Biso   1.000  C
  H65      1.0000 0.10350  0.66560  0.40950  Biso   1.000  H
  H66      1.0000 0.10350  0.83440  0.90950  Biso   1.000  H
  H67      1.0000 0.89650  0.33440  0.59050  Biso   1.000  H
  H68      1.0000 0.89650  0.16560  0.09050  Biso   1.000  H
  C85      1.0000 0.03610  0.65290  0.24110  Biso   1.000  C
  C86      1.0000 0.03610  0.84710  0.74110  Biso   1.000  C
  C87      1.0000 0.96390  0.34710  0.75890  Biso   1.000  C
  C88      1.0000 0.96390  0.15290  0.25890  Biso   1.000  C
  H69      1.0000 0.05050  0.61380  0.20130  Biso   1.000  H
  H70      1.0000 0.05050  0.88620  0.70130  Biso   1.000  H
  H71      1.0000 0.94950  0.38620  0.79870  Biso   1.000  H
  H72      1.0000 0.94950  0.11380  0.29870  Biso   1.000  H
  C89      1.0000 0.95410  0.73540  0.22770  Biso   1.000  C
  C90      1.0000 0.95410  0.76460  0.72770  Biso   1.000  C
  C91      1.0000 0.04590  0.26460  0.77230  Biso   1.000  C
  C92      1.0000 0.04590  0.23540  0.27230  Biso   1.000  C
  H73      1.0000 0.91870  0.75140  0.18010  Biso   1.000  H
  H74      1.0000 0.91870  0.74860  0.68010  Biso   1.000  H
  H75      1.0000 0.08130  0.24860  0.81990  Biso   1.000  H
  H76      1.0000 0.08130  0.25140  0.31990  Biso   1.000  H
  N9       1.0000 0.09420  0.62730  0.30690  Biso   1.000  N
  N10      1.0000 0.09420  0.87270  0.80690  Biso   1.000  N
  N11      1.0000 0.90580  0.37270  0.69310  Biso   1.000  N
  N12      1.0000 0.90580  0.12730  0.19310  Biso   1.000  N
  O21      1.0000 0.79360  0.71070  0.54870  Biso   1.000  O
  O22      1.0000 0.79360  0.78930  0.04870  Biso   1.000  O
  O23      1.0000 0.20640  0.28930  0.45130  Biso   1.000  O
  O24      1.0000 0.20640  0.21070  0.95130  Biso   1.000  O
  C93      1.0000 0.95080  0.87350  0.52980  Biso   1.000  C
  C94      1.0000 0.95080  0.62650  0.02980  Biso   1.000  C
  C95      1.0000 0.04920  0.12650  0.47020  Biso   1.000  C
  C96      1.0000 0.04920  0.37350  0.97020  Biso   1.000  C
  C97      1.0000 0.95250  0.74870  0.54200  Biso   1.000  C
  C98      1.0000 0.95250  0.75130  0.04200  Biso   1.000  C
  C99      1.0000 0.04750  0.25130  0.45800  Biso   1.000  C
  C100     1.0000 0.04750  0.24870  0.95800  Biso   1.000  C
