data_image0
_cell_length_a       17.58
_cell_length_b       18.965
_cell_length_c       7.028
_cell_angle_alpha    90
_cell_angle_beta     104.369
_cell_angle_gamma    90

_symmetry_space_group_name_H-M    "P 1"
_symmetry_int_tables_number       1

loop_
  _symmetry_equiv_pos_as_xyz
  'x, y, z'

loop_
  _atom_site_label
  _atom_site_occupancy
  _atom_site_fract_x
  _atom_site_fract_y
  _atom_site_fract_z
  _atom_site_thermal_displace_type
  _atom_site_B_iso_or_equiv
  _atom_site_type_symbol
  Cu1      1.0000 0.25000  0.25000  0.50000  Biso   1.000  Cu
  Cu2      1.0000 0.75000  0.25000  0.00000  Biso   1.000  Cu
  Cu3      1.0000 0.75000  0.75000  0.50000  Biso   1.000  Cu
  Cu4      1.0000 0.25000  0.75000  0.00000  Biso   1.000  Cu
  F1       1.0000 0.46240  0.44590  0.54120  Biso   1.000  F
  F2       1.0000 0.53760  0.44590  0.95880  Biso   1.000  F
  F3       1.0000 0.96240  0.94590  0.54120  Biso   1.000  F
  F4       1.0000 0.03760  0.94590  0.95880  Biso   1.000  F
  F5       1.0000 0.53760  0.55410  0.45880  Biso   1.000  F
  F6       1.0000 0.46240  0.55410  0.04120  Biso   1.000  F
  F7       1.0000 0.03760  0.05410  0.45880  Biso   1.000  F
  F8       1.0000 0.96240  0.05410  0.04120  Biso   1.000  F
  F9       1.0000 0.41210  0.39980  0.26330  Biso   1.000  F
  F10      1.0000 0.58790  0.39980  0.23670  Biso   1.000  F
  F11      1.0000 0.91210  0.89980  0.26330  Biso   1.000  F
  F12      1.0000 0.08790  0.89980  0.23670  Biso   1.000  F
  F13      1.0000 0.58790  0.60020  0.73670  Biso   1.000  F
  F14      1.0000 0.41210  0.60020  0.76330  Biso   1.000  F
  F15      1.0000 0.08790  0.10020  0.73670  Biso   1.000  F
  F16      1.0000 0.91210  0.10020  0.76330  Biso   1.000  F
  F17      1.0000 0.48820  0.34010  0.48390  Biso   1.000  F
  F18      1.0000 0.51180  0.34010  0.01610  Biso   1.000  F
  F19      1.0000 0.98820  0.84010  0.48390  Biso   1.000  F
  F20      1.0000 0.01180  0.84010  0.01610  Biso   1.000  F
  F21      1.0000 0.51180  0.65990  0.51610  Biso   1.000  F
  F22      1.0000 0.48820  0.65990  0.98390  Biso   1.000  F
  F23      1.0000 0.01180  0.15990  0.51610  Biso   1.000  F
  F24      1.0000 0.98820  0.15990  0.98390  Biso   1.000  F
  O1       1.0000 0.50000  0.03590  0.25000  Biso   1.000  O
  O2       1.0000 0.00000  0.53590  0.25000  Biso   1.000  O
  O3       1.0000 0.50000  0.96410  0.75000  Biso   1.000  O
  O4       1.0000 0.00000  0.46410  0.75000  Biso   1.000  O
  O5       1.0000 0.33708  0.30164  0.43260  Biso   1.000  O
  O6       1.0000 0.66292  0.30164  0.06740  Biso   1.000  O
  O7       1.0000 0.83708  0.80164  0.43260  Biso   1.000  O
  O8       1.0000 0.16292  0.80164  0.06740  Biso   1.000  O
  O9       1.0000 0.66292  0.69836  0.56740  Biso   1.000  O
  O10      1.0000 0.33708  0.69836  0.93260  Biso   1.000  O
  O11      1.0000 0.16292  0.19836  0.56740  Biso   1.000  O
  O12      1.0000 0.83708  0.19836  0.93260  Biso   1.000  O
  O13      1.0000 0.22898  0.32776  0.66480  Biso   1.000  O
  O14      1.0000 0.77102  0.32776  0.83520  Biso   1.000  O
  O15      1.0000 0.72898  0.82776  0.66480  Biso   1.000  O
  O16      1.0000 0.27102  0.82776  0.83520  Biso   1.000  O
  O17      1.0000 0.77102  0.67224  0.33520  Biso   1.000  O
  O18      1.0000 0.22898  0.67224  0.16480  Biso   1.000  O
  O19      1.0000 0.27102  0.17224  0.33520  Biso   1.000  O
  O20      1.0000 0.72898  0.17224  0.16480  Biso   1.000  O
  N1       1.0000 0.34273  0.20143  0.77840  Biso   1.000  N
  N2       1.0000 0.65727  0.20143  0.72160  Biso   1.000  N
  N3       1.0000 0.84273  0.70143  0.77840  Biso   1.000  N
  N4       1.0000 0.15727  0.70143  0.72160  Biso   1.000  N
  N5       1.0000 0.65727  0.79857  0.22160  Biso   1.000  N
  N6       1.0000 0.34273  0.79857  0.27840  Biso   1.000  N
  N7       1.0000 0.15727  0.29857  0.22160  Biso   1.000  N
  N8       1.0000 0.84273  0.29857  0.27840  Biso   1.000  N
  N9       1.0000 0.50000  0.10350  0.25000  Biso   1.000  N
  N10      1.0000 0.00000  0.60350  0.25000  Biso   1.000  N
  N11      1.0000 0.50000  0.89650  0.75000  Biso   1.000  N
  N12      1.0000 0.00000  0.39650  0.75000  Biso   1.000  N
  C1       1.0000 0.35960  0.23000  0.95800  Biso   1.000  C
  C2       1.0000 0.64040  0.23000  0.54200  Biso   1.000  C
  C3       1.0000 0.85960  0.73000  0.95800  Biso   1.000  C
  C4       1.0000 0.14040  0.73000  0.54200  Biso   1.000  C
  C5       1.0000 0.64040  0.77000  0.04200  Biso   1.000  C
  C6       1.0000 0.35960  0.77000  0.45800  Biso   1.000  C
  C7       1.0000 0.14040  0.27000  0.04200  Biso   1.000  C
  C8       1.0000 0.85960  0.27000  0.45800  Biso   1.000  C
  C9       1.0000 0.41270  0.20140  0.11740  Biso   1.000  C
  C10      1.0000 0.58730  0.20140  0.38260  Biso   1.000  C
  C11      1.0000 0.91270  0.70140  0.11740  Biso   1.000  C
  C12      1.0000 0.08730  0.70140  0.38260  Biso   1.000  C
  C13      1.0000 0.58730  0.79860  0.88260  Biso   1.000  C
  C14      1.0000 0.41270  0.79860  0.61740  Biso   1.000  C
  C15      1.0000 0.08730  0.29860  0.88260  Biso   1.000  C
  C16      1.0000 0.91270  0.29860  0.61740  Biso   1.000  C
  C17      1.0000 0.44900  0.13890  0.09010  Biso   1.000  C
  C18      1.0000 0.55100  0.13890  0.40990  Biso   1.000  C
  C19      1.0000 0.94900  0.63890  0.09010  Biso   1.000  C
  C20      1.0000 0.05100  0.63890  0.40990  Biso   1.000  C
  C21      1.0000 0.55100  0.86110  0.90990  Biso   1.000  C
  C22      1.0000 0.44900  0.86110  0.59010  Biso   1.000  C
  C23      1.0000 0.05100  0.36110  0.90990  Biso   1.000  C
  C24      1.0000 0.94900  0.36110  0.59010  Biso   1.000  C
  C25      1.0000 0.43140  0.10740  0.90720  Biso   1.000  C
  C26      1.0000 0.56860  0.10740  0.59280  Biso   1.000  C
  C27      1.0000 0.93140  0.60740  0.90720  Biso   1.000  C
  C28      1.0000 0.06860  0.60740  0.59280  Biso   1.000  C
  C29      1.0000 0.56860  0.89260  0.09280  Biso   1.000  C
  C30      1.0000 0.43140  0.89260  0.40720  Biso   1.000  C
  C31      1.0000 0.06860  0.39260  0.09280  Biso   1.000  C
  C32      1.0000 0.93140  0.39260  0.40720  Biso   1.000  C
  C33      1.0000 0.37930  0.14110  0.75750  Biso   1.000  C
  C34      1.0000 0.62070  0.14110  0.74250  Biso   1.000  C
  C35      1.0000 0.87930  0.64110  0.75750  Biso   1.000  C
  C36      1.0000 0.12070  0.64110  0.74250  Biso   1.000  C
  C37      1.0000 0.62070  0.85890  0.24250  Biso   1.000  C
  C38      1.0000 0.37930  0.85890  0.25750  Biso   1.000  C
  C39      1.0000 0.12070  0.35890  0.24250  Biso   1.000  C
  C40      1.0000 0.87930  0.35890  0.25750  Biso   1.000  C
  C41      1.0000 0.33700  0.39880  0.64710  Biso   1.000  C
  C42      1.0000 0.66300  0.39880  0.85290  Biso   1.000  C
  C43      1.0000 0.83700  0.89880  0.64710  Biso   1.000  C
  C44      1.0000 0.16300  0.89880  0.85290  Biso   1.000  C
  C45      1.0000 0.66300  0.60120  0.35290  Biso   1.000  C
  C46      1.0000 0.33700  0.60120  0.14710  Biso   1.000  C
  C47      1.0000 0.16300  0.10120  0.35290  Biso   1.000  C
  C48      1.0000 0.83700  0.10120  0.14710  Biso   1.000  C
  C49      1.0000 0.36360  0.35890  0.51290  Biso   1.000  C
  C50      1.0000 0.63640  0.35890  0.98710  Biso   1.000  C
  C51      1.0000 0.86360  0.85890  0.51290  Biso   1.000  C
  C52      1.0000 0.13640  0.85890  0.98710  Biso   1.000  C
  C53      1.0000 0.63640  0.64110  0.48710  Biso   1.000  C
  C54      1.0000 0.36360  0.64110  0.01290  Biso   1.000  C
  C55      1.0000 0.13640  0.14110  0.48710  Biso   1.000  C
  C56      1.0000 0.86360  0.14110  0.01290  Biso   1.000  C
  C57      1.0000 0.27040  0.38210  0.71140  Biso   1.000  C
  C58      1.0000 0.72960  0.38210  0.78860  Biso   1.000  C
  C59      1.0000 0.77040  0.88210  0.71140  Biso   1.000  C
  C60      1.0000 0.22960  0.88210  0.78860  Biso   1.000  C
  C61      1.0000 0.72960  0.61790  0.28860  Biso   1.000  C
  C62      1.0000 0.27040  0.61790  0.21140  Biso   1.000  C
  C63      1.0000 0.22960  0.11790  0.28860  Biso   1.000  C
  C64      1.0000 0.77040  0.11790  0.21140  Biso   1.000  C
  C65      1.0000 0.24320  0.43230  0.84770  Biso   1.000  C
  C66      1.0000 0.75680  0.43230  0.65230  Biso   1.000  C
  C67      1.0000 0.74320  0.93230  0.84770  Biso   1.000  C
  C68      1.0000 0.25680  0.93230  0.65230  Biso   1.000  C
  C69      1.0000 0.75680  0.56770  0.15230  Biso   1.000  C
  C70      1.0000 0.24320  0.56770  0.34770  Biso   1.000  C
  C71      1.0000 0.25680  0.06770  0.15230  Biso   1.000  C
  C72      1.0000 0.74320  0.06770  0.34770  Biso   1.000  C
  C73      1.0000 0.43550  0.38490  0.44510  Biso   1.000  C
  C74      1.0000 0.56450  0.38490  0.05490  Biso   1.000  C
  C75      1.0000 0.93550  0.88490  0.44510  Biso   1.000  C
  C76      1.0000 0.06450  0.88490  0.05490  Biso   1.000  C
  C77      1.0000 0.56450  0.61510  0.55490  Biso   1.000  C
  C78      1.0000 0.43550  0.61510  0.94510  Biso   1.000  C
  C79      1.0000 0.06450  0.11510  0.55490  Biso   1.000  C
  C80      1.0000 0.93550  0.11510  0.94510  Biso   1.000  C
  H1       1.0000 0.33360  0.27240  0.97680  Biso   1.000  H
  H2       1.0000 0.66640  0.27240  0.52320  Biso   1.000  H
  H3       1.0000 0.83360  0.77240  0.97680  Biso   1.000  H
  H4       1.0000 0.16640  0.77240  0.52320  Biso   1.000  H
  H5       1.0000 0.66640  0.72760  0.02320  Biso   1.000  H
  H6       1.0000 0.33360  0.72760  0.47680  Biso   1.000  H
  H7       1.0000 0.16640  0.22760  0.02320  Biso   1.000  H
  H8       1.0000 0.83360  0.22760  0.47680  Biso   1.000  H
  H9       1.0000 0.42390  0.22380  0.24200  Biso   1.000  H
  H10      1.0000 0.57610  0.22380  0.25800  Biso   1.000  H
  H11      1.0000 0.92390  0.72380  0.24200  Biso   1.000  H
  H12      1.0000 0.07610  0.72380  0.25800  Biso   1.000  H
  H13      1.0000 0.57610  0.77620  0.75800  Biso   1.000  H
  H14      1.0000 0.42390  0.77620  0.74200  Biso   1.000  H
  H15      1.0000 0.07610  0.27620  0.75800  Biso   1.000  H
  H16      1.0000 0.92390  0.27620  0.74200  Biso   1.000  H
  H17      1.0000 0.28400  0.47200  0.86200  Biso   1.000  H
  H18      1.0000 0.71600  0.47200  0.63800  Biso   1.000  H
  H19      1.0000 0.78400  0.97200  0.86200  Biso   1.000  H
  H20      1.0000 0.21600  0.97200  0.63800  Biso   1.000  H
  H21      1.0000 0.71600  0.52800  0.13800  Biso   1.000  H
  H22      1.0000 0.28400  0.52800  0.36200  Biso   1.000  H
  H23      1.0000 0.21600  0.02800  0.13800  Biso   1.000  H
  H24      1.0000 0.78400  0.02800  0.36200  Biso   1.000  H
  H25      1.0000 0.45460  0.06380  0.88600  Biso   1.000  H
  H26      1.0000 0.54540  0.06380  0.61400  Biso   1.000  H
  H27      1.0000 0.95460  0.56380  0.88600  Biso   1.000  H
  H28      1.0000 0.04540  0.56380  0.61400  Biso   1.000  H
  H29      1.0000 0.54540  0.93620  0.11400  Biso   1.000  H
  H30      1.0000 0.45460  0.93620  0.38600  Biso   1.000  H
  H31      1.0000 0.04540  0.43620  0.11400  Biso   1.000  H
  H32      1.0000 0.95460  0.43620  0.38600  Biso   1.000  H
  H33      1.0000 0.36200  0.43500  0.69700  Biso   1.000  H
  H34      1.0000 0.63800  0.43500  0.80300  Biso   1.000  H
  H35      1.0000 0.86200  0.93500  0.69700  Biso   1.000  H
  H36      1.0000 0.13800  0.93500  0.80300  Biso   1.000  H
  H37      1.0000 0.63800  0.56500  0.30300  Biso   1.000  H
  H38      1.0000 0.36200  0.56500  0.19700  Biso   1.000  H
  H39      1.0000 0.13800  0.06500  0.30300  Biso   1.000  H
  H40      1.0000 0.86200  0.06500  0.19700  Biso   1.000  H
  H41      1.0000 0.36850  0.12040  0.63060  Biso   1.000  H
  H42      1.0000 0.63150  0.12040  0.86940  Biso   1.000  H
  H43      1.0000 0.86850  0.62040  0.63060  Biso   1.000  H
  H44      1.0000 0.13150  0.62040  0.86940  Biso   1.000  H
  H45      1.0000 0.63150  0.87960  0.36940  Biso   1.000  H
  H46      1.0000 0.36850  0.87960  0.13060  Biso   1.000  H
  H47      1.0000 0.13150  0.37960  0.36940  Biso   1.000  H
  H48      1.0000 0.86850  0.37960  0.13060  Biso   1.000  H
  H49      1.0000 0.19400  0.43900  0.79800  Biso   1.000  H
  H50      1.0000 0.80600  0.43900  0.70200  Biso   1.000  H
  H51      1.0000 0.69400  0.93900  0.79800  Biso   1.000  H
  H52      1.0000 0.30600  0.93900  0.70200  Biso   1.000  H
  H53      1.0000 0.80600  0.56100  0.20200  Biso   1.000  H
  H54      1.0000 0.19400  0.56100  0.29800  Biso   1.000  H
  H55      1.0000 0.30600  0.06100  0.20200  Biso   1.000  H
  H56      1.0000 0.69400  0.06100  0.29800  Biso   1.000  H
  H57      1.0000 0.27100  0.41600  0.00900  Biso   1.000  H
  H58      1.0000 0.72900  0.41600  0.49100  Biso   1.000  H
  H59      1.0000 0.77100  0.91600  0.00900  Biso   1.000  H
  H60      1.0000 0.22900  0.91600  0.49100  Biso   1.000  H
  H61      1.0000 0.72900  0.58400  0.99100  Biso   1.000  H
  H62      1.0000 0.27100  0.58400  0.50900  Biso   1.000  H
  H63      1.0000 0.22900  0.08400  0.99100  Biso   1.000  H
  H64      1.0000 0.77100  0.08400  0.50900  Biso   1.000  H
  F25      1.0000 0.29150  0.49800  0.84000  Biso   1.000  F
  F26      1.0000 0.70850  0.49800  0.66000  Biso   1.000  F
  F27      1.0000 0.79150  0.99800  0.84000  Biso   1.000  F
  F28      1.0000 0.20850  0.99800  0.66000  Biso   1.000  F
  F29      1.0000 0.70850  0.50200  0.16000  Biso   1.000  F
  F30      1.0000 0.29150  0.50200  0.34000  Biso   1.000  F
  F31      1.0000 0.20850  0.00200  0.16000  Biso   1.000  F
  F32      1.0000 0.79150  0.00200  0.34000  Biso   1.000  F
  F33      1.0000 0.17450  0.45460  0.73900  Biso   1.000  F
  F34      1.0000 0.82550  0.45460  0.76100  Biso   1.000  F
  F35      1.0000 0.67450  0.95460  0.73900  Biso   1.000  F
  F36      1.0000 0.32550  0.95460  0.76100  Biso   1.000  F
  F37      1.0000 0.82550  0.54540  0.26100  Biso   1.000  F
  F38      1.0000 0.17450  0.54540  0.23900  Biso   1.000  F
  F39      1.0000 0.32550  0.04540  0.26100  Biso   1.000  F
  F40      1.0000 0.67450  0.04540  0.23900  Biso   1.000  F
  F41      1.0000 0.25320  0.40740  0.99300  Biso   1.000  F
  F42      1.0000 0.74680  0.40740  0.50700  Biso   1.000  F
  F43      1.0000 0.75320  0.90740  0.99300  Biso   1.000  F
  F44      1.0000 0.24680  0.90740  0.50700  Biso   1.000  F
  F45      1.0000 0.74680  0.59260  0.00700  Biso   1.000  F
  F46      1.0000 0.25320  0.59260  0.49300  Biso   1.000  F
  F47      1.0000 0.24680  0.09260  0.00700  Biso   1.000  F
  F48      1.0000 0.75320  0.09260  0.49300  Biso   1.000  F
