data_image0
_cell_length_a       13.2955
_cell_length_b       17.6522
_cell_length_c       15.7208
_cell_angle_alpha    90
_cell_angle_beta     99.201
_cell_angle_gamma    90

_symmetry_space_group_name_H-M    "P 1"
_symmetry_int_tables_number       1

loop_
  _symmetry_equiv_pos_as_xyz
  'x, y, z'

loop_
  _atom_site_label
  _atom_site_occupancy
  _atom_site_fract_x
  _atom_site_fract_y
  _atom_site_fract_z
  _atom_site_thermal_displace_type
  _atom_site_B_iso_or_equiv
  _atom_site_type_symbol
  Cu1      1.0000 0.50901  0.77492  0.60517  Biso   1.000  Cu
  Cu2      1.0000 0.99099  0.27492  0.89483  Biso   1.000  Cu
  Cu3      1.0000 0.49099  0.22508  0.39483  Biso   1.000  Cu
  Cu4      1.0000 0.00901  0.72508  0.10517  Biso   1.000  Cu
  O1       1.0000 0.42487  0.88477  0.55469  Biso   1.000  O
  O2       1.0000 0.07513  0.38477  0.94531  Biso   1.000  O
  O3       1.0000 0.57513  0.11523  0.44531  Biso   1.000  O
  O4       1.0000 0.92487  0.61523  0.05469  Biso   1.000  O
  O5       1.0000 0.60397  0.83716  0.68182  Biso   1.000  O
  O6       1.0000 0.89603  0.33716  0.81818  Biso   1.000  O
  O7       1.0000 0.39603  0.16284  0.31818  Biso   1.000  O
  O8       1.0000 0.10397  0.66284  0.18182  Biso   1.000  O
  O9       1.0000 0.69231  0.73686  0.73763  Biso   1.000  O
  O10      1.0000 0.80769  0.23686  0.76237  Biso   1.000  O
  O11      1.0000 0.30769  0.26314  0.26237  Biso   1.000  O
  O12      1.0000 0.19231  0.76314  0.23763  Biso   1.000  O
  O13      1.0000 0.90832  0.77880  0.02283  Biso   1.000  O
  O14      1.0000 0.59168  0.27880  0.47717  Biso   1.000  O
  O15      1.0000 0.09168  0.22120  0.97717  Biso   1.000  O
  O16      1.0000 0.40832  0.72120  0.52283  Biso   1.000  O
  O17      1.0000 0.00310  0.88344  0.03775  Biso   1.000  O
  O18      1.0000 0.49690  0.38344  0.46225  Biso   1.000  O
  O19      1.0000 0.99690  0.11656  0.96225  Biso   1.000  O
  O20      1.0000 0.50310  0.61656  0.53775  Biso   1.000  O
  N1       1.0000 0.89380  0.07064  0.74225  Biso   1.000  N
  N2       1.0000 0.60620  0.57064  0.75775  Biso   1.000  N
  N3       1.0000 0.10620  0.92936  0.25775  Biso   1.000  N
  N4       1.0000 0.39380  0.42936  0.24225  Biso   1.000  N
  N5       1.0000 0.23950  0.06340  0.44380  Biso   1.000  N
  N6       1.0000 0.26050  0.56340  0.05620  Biso   1.000  N
  N7       1.0000 0.76050  0.93660  0.55620  Biso   1.000  N
  N8       1.0000 0.73950  0.43660  0.94380  Biso   1.000  N
  N9       1.0000 0.42430  0.75708  0.70072  Biso   1.000  N
  N10      1.0000 0.07570  0.25708  0.79928  Biso   1.000  N
  N11      1.0000 0.57570  0.24292  0.29928  Biso   1.000  N
  N12      1.0000 0.92430  0.74292  0.20072  Biso   1.000  N
  N13      1.0000 0.10340  0.72677  0.01625  Biso   1.000  N
  N14      1.0000 0.39660  0.22677  0.48375  Biso   1.000  N
  N15      1.0000 0.89660  0.27323  0.98375  Biso   1.000  N
  N16      1.0000 0.60340  0.77323  0.51625  Biso   1.000  N
  C1       1.0000 0.86260  0.87656  0.92312  Biso   1.000  C
  C2       1.0000 0.63740  0.37656  0.57688  Biso   1.000  C
  C3       1.0000 0.13740  0.12344  0.07688  Biso   1.000  C
  C4       1.0000 0.36260  0.62344  0.42312  Biso   1.000  C
  C5       1.0000 0.79930  0.82974  0.86808  Biso   1.000  C
  C6       1.0000 0.70070  0.32974  0.63192  Biso   1.000  C
  C7       1.0000 0.20070  0.17026  0.13192  Biso   1.000  C
  C8       1.0000 0.29930  0.67026  0.36808  Biso   1.000  C
  H1       1.0000 0.79580  0.77730  0.88090  Biso   1.000  H
  H2       1.0000 0.70420  0.27730  0.61910  Biso   1.000  H
  H3       1.0000 0.20420  0.22270  0.11910  Biso   1.000  H
  H4       1.0000 0.29580  0.72270  0.38090  Biso   1.000  H
  C9       1.0000 0.74100  0.85850  0.79451  Biso   1.000  C
  C10      1.0000 0.75900  0.35850  0.70549  Biso   1.000  C
  C11      1.0000 0.25900  0.14150  0.20549  Biso   1.000  C
  C12      1.0000 0.24100  0.64150  0.29451  Biso   1.000  C
  C13      1.0000 0.74640  0.93485  0.77509  Biso   1.000  C
  C14      1.0000 0.75360  0.43485  0.72491  Biso   1.000  C
  C15      1.0000 0.25360  0.06515  0.22491  Biso   1.000  C
  C16      1.0000 0.24640  0.56515  0.27509  Biso   1.000  C
  H5       1.0000 0.70610  0.95470  0.72470  Biso   1.000  H
  H6       1.0000 0.79390  0.45470  0.77530  Biso   1.000  H
  H7       1.0000 0.29390  0.04530  0.27530  Biso   1.000  H
  H8       1.0000 0.20610  0.54530  0.22470  Biso   1.000  H
  C17      1.0000 0.81060  0.98218  0.82950  Biso   1.000  C
  C18      1.0000 0.68940  0.48218  0.67050  Biso   1.000  C
  C19      1.0000 0.18940  0.01782  0.17050  Biso   1.000  C
  C20      1.0000 0.31060  0.51782  0.32950  Biso   1.000  C
  C21      1.0000 0.86730  0.95357  0.90291  Biso   1.000  C
  C22      1.0000 0.63270  0.45357  0.59709  Biso   1.000  C
  C23      1.0000 0.13270  0.04643  0.09709  Biso   1.000  C
  C24      1.0000 0.36730  0.54643  0.40291  Biso   1.000  C
  H9       1.0000 0.91030  0.98630  0.94050  Biso   1.000  H
  H10      1.0000 0.58970  0.48630  0.55950  Biso   1.000  H
  H11      1.0000 0.08970  0.01370  0.05950  Biso   1.000  H
  H12      1.0000 0.41030  0.51370  0.44050  Biso   1.000  H
  C25      1.0000 0.93060  0.84568  0.00058  Biso   1.000  C
  C26      1.0000 0.56940  0.34568  0.49942  Biso   1.000  C
  C27      1.0000 0.06940  0.15432  0.99942  Biso   1.000  C
  C28      1.0000 0.43060  0.65432  0.50058  Biso   1.000  C
  C29      1.0000 0.67510  0.80642  0.73407  Biso   1.000  C
  C30      1.0000 0.82490  0.30642  0.76593  Biso   1.000  C
  C31      1.0000 0.32490  0.19358  0.26593  Biso   1.000  C
  C32      1.0000 0.17510  0.69358  0.23407  Biso   1.000  C
  C33      1.0000 0.82050  0.06408  0.80420  Biso   1.000  C
  C34      1.0000 0.67950  0.56408  0.69580  Biso   1.000  C
  C35      1.0000 0.17950  0.93592  0.19580  Biso   1.000  C
  C36      1.0000 0.32050  0.43592  0.30420  Biso   1.000  C
  H13      1.0000 0.75320  0.08380  0.77740  Biso   1.000  H
  H14      1.0000 0.74680  0.58380  0.72260  Biso   1.000  H
  H15      1.0000 0.24680  0.91620  0.22260  Biso   1.000  H
  H16      1.0000 0.25320  0.41620  0.27740  Biso   1.000  H
  H17      1.0000 0.84480  0.09480  0.85620  Biso   1.000  H
  H18      1.0000 0.65520  0.59480  0.64380  Biso   1.000  H
  H19      1.0000 0.15520  0.90520  0.14380  Biso   1.000  H
  H20      1.0000 0.34480  0.40520  0.35620  Biso   1.000  H
  C37      1.0000 0.86650  0.10206  0.66471  Biso   1.000  C
  C38      1.0000 0.63350  0.60206  0.83529  Biso   1.000  C
  C39      1.0000 0.13350  0.89794  0.33529  Biso   1.000  C
  C40      1.0000 0.36650  0.39794  0.16471  Biso   1.000  C
  H21      1.0000 0.80020  0.12300  0.64980  Biso   1.000  H
  H22      1.0000 0.69980  0.62300  0.85020  Biso   1.000  H
  H23      1.0000 0.19980  0.87700  0.35020  Biso   1.000  H
  H24      1.0000 0.30020  0.37700  0.14980  Biso   1.000  H
  C41      1.0000 0.93260  0.10466  0.60630  Biso   1.000  C
  C42      1.0000 0.56740  0.60466  0.89370  Biso   1.000  C
  C43      1.0000 0.06740  0.89534  0.39370  Biso   1.000  C
  C44      1.0000 0.43260  0.39534  0.10630  Biso   1.000  C
  H25      1.0000 0.91180  0.12750  0.55160  Biso   1.000  H
  H26      1.0000 0.58820  0.62750  0.94840  Biso   1.000  H
  H27      1.0000 0.08820  0.87250  0.44840  Biso   1.000  H
  H28      1.0000 0.41180  0.37250  0.05160  Biso   1.000  H
  C45      1.0000 0.02910  0.07447  0.62610  Biso   1.000  C
  C46      1.0000 0.47090  0.57447  0.87390  Biso   1.000  C
  C47      1.0000 0.97090  0.92553  0.37390  Biso   1.000  C
  C48      1.0000 0.52910  0.42553  0.12610  Biso   1.000  C
  C49      1.0000 0.05620  0.04370  0.70800  Biso   1.000  C
  C50      1.0000 0.44380  0.54370  0.79200  Biso   1.000  C
  C51      1.0000 0.94380  0.95630  0.29200  Biso   1.000  C
  C52      1.0000 0.55620  0.45630  0.20800  Biso   1.000  C
  H29      1.0000 0.12250  0.02350  0.72540  Biso   1.000  H
  H30      1.0000 0.37750  0.52350  0.77460  Biso   1.000  H
  H31      1.0000 0.87750  0.97650  0.27460  Biso   1.000  H
  H32      1.0000 0.62250  0.47650  0.22540  Biso   1.000  H
  C53      1.0000 0.98670  0.04290  0.76330  Biso   1.000  C
  C54      1.0000 0.51330  0.54290  0.73670  Biso   1.000  C
  C55      1.0000 0.01330  0.95710  0.23670  Biso   1.000  C
  C56      1.0000 0.48670  0.45710  0.26330  Biso   1.000  C
  H33      1.0000 0.00600  0.02160  0.81900  Biso   1.000  H
  H34      1.0000 0.49400  0.52160  0.68100  Biso   1.000  H
  H35      1.0000 0.99400  0.97840  0.18100  Biso   1.000  H
  H36      1.0000 0.50600  0.47840  0.31900  Biso   1.000  H
  C57      1.0000 0.10150  0.07225  0.56290  Biso   1.000  C
  C58      1.0000 0.39850  0.57225  0.93710  Biso   1.000  C
  C59      1.0000 0.89850  0.92775  0.43710  Biso   1.000  C
  C60      1.0000 0.60150  0.42775  0.06290  Biso   1.000  C
  C61      1.0000 0.07300  0.09270  0.47850  Biso   1.000  C
  C62      1.0000 0.42700  0.59270  0.02150  Biso   1.000  C
  C63      1.0000 0.92700  0.90730  0.52150  Biso   1.000  C
  C64      1.0000 0.57300  0.40730  0.97850  Biso   1.000  C
  H37      1.0000 0.00640  0.11110  0.45790  Biso   1.000  H
  H38      1.0000 0.49360  0.61110  0.04210  Biso   1.000  H
  H39      1.0000 0.99360  0.88890  0.54210  Biso   1.000  H
  H40      1.0000 0.50640  0.38890  0.95790  Biso   1.000  H
  C65      1.0000 0.14730  0.08520  0.42230  Biso   1.000  C
  C66      1.0000 0.35270  0.58520  0.07770  Biso   1.000  C
  C67      1.0000 0.85270  0.91480  0.57770  Biso   1.000  C
  C68      1.0000 0.64730  0.41480  0.92230  Biso   1.000  C
  H41      1.0000 0.12600  0.09770  0.36340  Biso   1.000  H
  H42      1.0000 0.37400  0.59770  0.13660  Biso   1.000  H
  H43      1.0000 0.87400  0.90230  0.63660  Biso   1.000  H
  H44      1.0000 0.62600  0.40230  0.86340  Biso   1.000  H
  C69      1.0000 0.26320  0.04530  0.52380  Biso   1.000  C
  C70      1.0000 0.23680  0.54530  0.97620  Biso   1.000  C
  C71      1.0000 0.73680  0.95470  0.47620  Biso   1.000  C
  C72      1.0000 0.76320  0.45470  0.02380  Biso   1.000  C
  H45      1.0000 0.33080  0.02790  0.54160  Biso   1.000  H
  H46      1.0000 0.16920  0.52790  0.95840  Biso   1.000  H
  H47      1.0000 0.66920  0.97210  0.45840  Biso   1.000  H
  H48      1.0000 0.83080  0.47210  0.04160  Biso   1.000  H
  C73      1.0000 0.20250  0.04830  0.58580  Biso   1.000  C
  C74      1.0000 0.29750  0.54830  0.91420  Biso   1.000  C
  C75      1.0000 0.79750  0.95170  0.41420  Biso   1.000  C
  C76      1.0000 0.70250  0.45170  0.08580  Biso   1.000  C
  H49      1.0000 0.22830  0.03430  0.64360  Biso   1.000  H
  H50      1.0000 0.27170  0.53430  0.85640  Biso   1.000  H
  H51      1.0000 0.77170  0.96570  0.35640  Biso   1.000  H
  H52      1.0000 0.72830  0.46570  0.14360  Biso   1.000  H
  C77      1.0000 0.43320  0.80080  0.76980  Biso   1.000  C
  C78      1.0000 0.06680  0.30080  0.73020  Biso   1.000  C
  C79      1.0000 0.56680  0.19920  0.23020  Biso   1.000  C
  C80      1.0000 0.93320  0.69920  0.26980  Biso   1.000  C
  H53      1.0000 0.48460  0.83870  0.77600  Biso   1.000  H
  H54      1.0000 0.01540  0.33870  0.72400  Biso   1.000  H
  H55      1.0000 0.51540  0.16130  0.22400  Biso   1.000  H
  H56      1.0000 0.98460  0.66130  0.27600  Biso   1.000  H
  C81      1.0000 0.37370  0.79530  0.83320  Biso   1.000  C
  C82      1.0000 0.12630  0.29530  0.66680  Biso   1.000  C
  C83      1.0000 0.62630  0.20470  0.16680  Biso   1.000  C
  C84      1.0000 0.87370  0.70470  0.33320  Biso   1.000  C
  H57      1.0000 0.38480  0.82820  0.88150  Biso   1.000  H
  H58      1.0000 0.11520  0.32820  0.61850  Biso   1.000  H
  H59      1.0000 0.61520  0.17180  0.11850  Biso   1.000  H
  H60      1.0000 0.88480  0.67180  0.38150  Biso   1.000  H
  C85      1.0000 0.29820  0.74205  0.82622  Biso   1.000  C
  C86      1.0000 0.20180  0.24205  0.67378  Biso   1.000  C
  C87      1.0000 0.70180  0.25795  0.17378  Biso   1.000  C
  C88      1.0000 0.79820  0.75795  0.32622  Biso   1.000  C
  C89      1.0000 0.28560  0.69840  0.75304  Biso   1.000  C
  C90      1.0000 0.21440  0.19840  0.74696  Biso   1.000  C
  C91      1.0000 0.71440  0.30160  0.24696  Biso   1.000  C
  C92      1.0000 0.78560  0.80160  0.25304  Biso   1.000  C
  H61      1.0000 0.23250  0.66200  0.74370  Biso   1.000  H
  H62      1.0000 0.26750  0.16200  0.75630  Biso   1.000  H
  H63      1.0000 0.76750  0.33800  0.25630  Biso   1.000  H
  H64      1.0000 0.73250  0.83800  0.24370  Biso   1.000  H
  C93      1.0000 0.34980  0.70715  0.69299  Biso   1.000  C
  C94      1.0000 0.15020  0.20715  0.80701  Biso   1.000  C
  C95      1.0000 0.65020  0.29285  0.30701  Biso   1.000  C
  C96      1.0000 0.84980  0.79285  0.19299  Biso   1.000  C
  H65      1.0000 0.33970  0.67550  0.64350  Biso   1.000  H
  H66      1.0000 0.16030  0.17550  0.85650  Biso   1.000  H
  H67      1.0000 0.66030  0.32450  0.35650  Biso   1.000  H
  H68      1.0000 0.83970  0.82450  0.14350  Biso   1.000  H
  C97      1.0000 0.23070  0.73561  0.89183  Biso   1.000  C
  C98      1.0000 0.26930  0.23561  0.60817  Biso   1.000  C
  C99      1.0000 0.76930  0.26439  0.10817  Biso   1.000  C
  C100     1.0000 0.73070  0.76439  0.39183  Biso   1.000  C
  C101     1.0000 0.26380  0.75666  0.97619  Biso   1.000  C
  C102     1.0000 0.23620  0.25666  0.52381  Biso   1.000  C
  C103     1.0000 0.73620  0.24334  0.02381  Biso   1.000  C
  C104     1.0000 0.76380  0.74334  0.47619  Biso   1.000  C
  H69      1.0000 0.33110  0.77510  0.99290  Biso   1.000  H
  H70      1.0000 0.16890  0.27510  0.50710  Biso   1.000  H
  H71      1.0000 0.66890  0.22490  0.00710  Biso   1.000  H
  H72      1.0000 0.83110  0.72490  0.49290  Biso   1.000  H
  C105     1.0000 0.19930  0.75097  0.03607  Biso   1.000  C
  C106     1.0000 0.30070  0.25097  0.46393  Biso   1.000  C
  C107     1.0000 0.80070  0.24903  0.96393  Biso   1.000  C
  C108     1.0000 0.69930  0.74903  0.53607  Biso   1.000  C
  H73      1.0000 0.22410  0.76480  0.09400  Biso   1.000  H
  H74      1.0000 0.27590  0.26480  0.40600  Biso   1.000  H
  H75      1.0000 0.77590  0.23520  0.90600  Biso   1.000  H
  H76      1.0000 0.72410  0.73520  0.59400  Biso   1.000  H
  C109     1.0000 0.07010  0.70720  0.93450  Biso   1.000  C
  C110     1.0000 0.42990  0.20720  0.56550  Biso   1.000  C
  C111     1.0000 0.92990  0.29280  0.06550  Biso   1.000  C
  C112     1.0000 0.57010  0.79280  0.43450  Biso   1.000  C
  H77      1.0000 0.00160  0.69060  0.91940  Biso   1.000  H
  H78      1.0000 0.49840  0.19060  0.58060  Biso   1.000  H
  H79      1.0000 0.99840  0.30940  0.08060  Biso   1.000  H
  H80      1.0000 0.50160  0.80940  0.41940  Biso   1.000  H
  C113     1.0000 0.13070  0.71010  0.87100  Biso   1.000  C
  C114     1.0000 0.36930  0.21010  0.62900  Biso   1.000  C
  C115     1.0000 0.86930  0.28990  0.12900  Biso   1.000  C
  C116     1.0000 0.63070  0.78990  0.37100  Biso   1.000  C
  H81      1.0000 0.10450  0.69480  0.81380  Biso   1.000  H
  H82      1.0000 0.39550  0.19480  0.68620  Biso   1.000  H
  H83      1.0000 0.89550  0.30520  0.18620  Biso   1.000  H
  H84      1.0000 0.60450  0.80520  0.31380  Biso   1.000  H
  O21      1.0000 0.89440  0.71040  0.73340  Biso   1.000  O
  O22      1.0000 0.60560  0.21040  0.76660  Biso   1.000  O
  O23      1.0000 0.10560  0.28960  0.26660  Biso   1.000  O
  O24      1.0000 0.39440  0.78960  0.23340  Biso   1.000  O
  H85      1.0000 0.90710  0.67060  0.71170  Biso   1.000  H
  H86      1.0000 0.59290  0.17060  0.78830  Biso   1.000  H
  H87      1.0000 0.09290  0.32940  0.28830  Biso   1.000  H
  H88      1.0000 0.40710  0.82940  0.21170  Biso   1.000  H
