data_image0
_cell_length_a       6.6726
_cell_length_b       10.795
_cell_length_c       12.0764
_cell_angle_alpha    65.544
_cell_angle_beta     79.053
_cell_angle_gamma    77.697

_symmetry_space_group_name_H-M    "P 1"
_symmetry_int_tables_number       1

loop_
  _symmetry_equiv_pos_as_xyz
  'x, y, z'

loop_
  _atom_site_label
  _atom_site_occupancy
  _atom_site_fract_x
  _atom_site_fract_y
  _atom_site_fract_z
  _atom_site_thermal_displace_type
  _atom_site_B_iso_or_equiv
  _atom_site_type_symbol
  C1       1.0000 0.54860  0.49550  0.27030  Biso   1.000  C
  C2       1.0000 0.45140  0.50450  0.72970  Biso   1.000  C
  C3       1.0000 0.75220  0.42640  0.31950  Biso   1.000  C
  C4       1.0000 0.24780  0.57360  0.68050  Biso   1.000  C
  C5       1.0000 0.92010  0.37820  0.25500  Biso   1.000  C
  C6       1.0000 0.07990  0.62180  0.74500  Biso   1.000  C
  H1       1.0000 0.91100  0.38410  0.17700  Biso   1.000  H
  H2       1.0000 0.08900  0.61590  0.82300  Biso   1.000  H
  C7       1.0000 0.10330  0.32060  0.30740  Biso   1.000  C
  C8       1.0000 0.89670  0.67940  0.69260  Biso   1.000  C
  H3       1.0000 0.21770  0.28680  0.26500  Biso   1.000  H
  H4       1.0000 0.78230  0.71320  0.73500  Biso   1.000  H
  C9       1.0000 0.11490  0.31360  0.42320  Biso   1.000  C
  C10      1.0000 0.88510  0.68640  0.57680  Biso   1.000  C
  C11      1.0000 0.93920  0.36460  0.48310  Biso   1.000  C
  C12      1.0000 0.06080  0.63540  0.51690  Biso   1.000  C
  H5       1.0000 0.94480  0.36050  0.56090  Biso   1.000  H
  H6       1.0000 0.05520  0.63950  0.43910  Biso   1.000  H
  C13      1.0000 0.31150  0.25180  0.48420  Biso   1.000  C
  C14      1.0000 0.68850  0.74820  0.51580  Biso   1.000  C
  Cu1      1.0000 0.50000  0.50000  0.50000  Biso   1.000  Cu
  N1       1.0000 0.76190  0.41950  0.43250  Biso   1.000  N
  N2       1.0000 0.23810  0.58050  0.56750  Biso   1.000  N
  O1       1.0000 0.41750  0.54660  0.33890  Biso   1.000  O
  O2       1.0000 0.58250  0.45340  0.66110  Biso   1.000  O
  O3       1.0000 0.52140  0.50260  0.17050  Biso   1.000  O
  O4       1.0000 0.47860  0.49740  0.82950  Biso   1.000  O
  O5       1.0000 0.32040  0.27290  0.57800  Biso   1.000  O
  O6       1.0000 0.67960  0.72710  0.42200  Biso   1.000  O
  O7       1.0000 0.44870  0.18730  0.43620  Biso   1.000  O
  O8       1.0000 0.55130  0.81270  0.56380  Biso   1.000  O
  C15      1.0000 0.63100  0.08220  0.21700  Biso   1.000  C
  C16      1.0000 0.36900  0.91780  0.78300  Biso   1.000  C
  H7       1.0000 0.59610  0.08980  0.29250  Biso   1.000  H
  H8       1.0000 0.40390  0.91020  0.70750  Biso   1.000  H
  C17      1.0000 0.63030  0.20020  0.11120  Biso   1.000  C
  C18      1.0000 0.36970  0.79980  0.88880  Biso   1.000  C
  H9       1.0000 0.59860  0.28670  0.11500  Biso   1.000  H
  H10      1.0000 0.40140  0.71330  0.88500  Biso   1.000  H
  C19      1.0000 0.67740  0.18740  0.99980  Biso   1.000  C
  C20      1.0000 0.32260  0.81260  0.00020  Biso   1.000  C
  H11      1.0000 0.67480  0.26590  0.92770  Biso   1.000  H
  H12      1.0000 0.32520  0.73410  0.07230  Biso   1.000  H
  C21      1.0000 0.72960  0.05650  0.99420  Biso   1.000  C
  C22      1.0000 0.27040  0.94350  0.00580  Biso   1.000  C
  C23      1.0000 0.77930  0.03500  0.88180  Biso   1.000  C
  C24      1.0000 0.22070  0.96500  0.11820  Biso   1.000  C
  C25      1.0000 0.83110  0.90120  0.88890  Biso   1.000  C
  C26      1.0000 0.16890  0.09880  0.11110  Biso   1.000  C
  H13      1.0000 0.86400  0.88580  0.81680  Biso   1.000  H
  H14      1.0000 0.13600  0.11420  0.18320  Biso   1.000  H
  C27      1.0000 0.83560  0.78880  0.00050  Biso   1.000  C
  C28      1.0000 0.16440  0.21120  0.99950  Biso   1.000  C
  H15      1.0000 0.87340  0.70060  0.00090  Biso   1.000  H
  H16      1.0000 0.12660  0.29940  0.99910  Biso   1.000  H
  C29      1.0000 0.78610  0.80420  0.10930  Biso   1.000  C
  C30      1.0000 0.21390  0.19580  0.89070  Biso   1.000  C
  H17      1.0000 0.78770  0.72850  0.18350  Biso   1.000  H
  H18      1.0000 0.21230  0.27150  0.81650  Biso   1.000  H
  C31      1.0000 0.73250  0.93940  0.10480  Biso   1.000  C
  C32      1.0000 0.26750  0.06060  0.89520  Biso   1.000  C
  H19      1.0000 0.80800  0.13200  0.69400  Biso   1.000  H
  H20      1.0000 0.19200  0.86800  0.30600  Biso   1.000  H
  H21      1.0000 0.69900  0.22900  0.76800  Biso   1.000  H
  H22      1.0000 0.30100  0.77100  0.23200  Biso   1.000  H
  H23      1.0000 0.68100  0.87400  0.28100  Biso   1.000  H
  H24      1.0000 0.31900  0.12600  0.71900  Biso   1.000  H
  N3       1.0000 0.68000  0.95930  0.21320  Biso   1.000  N
  N4       1.0000 0.32000  0.04070  0.78680  Biso   1.000  N
  N5       1.0000 0.77730  0.14420  0.77020  Biso   1.000  N
  N6       1.0000 0.22270  0.85580  0.22980  Biso   1.000  N
  O9       1.0000 0.79520  0.04680  0.56230  Biso   1.000  O
  O10      1.0000 0.20480  0.95320  0.43770  Biso   1.000  O
  O11      1.0000 0.77510  0.50260  0.96580  Biso   1.000  O
  O12      1.0000 0.22490  0.49740  0.03420  Biso   1.000  O
