data_image0
_cell_length_a       7.1562
_cell_length_b       7.2456
_cell_length_c       11.618
_cell_angle_alpha    82.299
_cell_angle_beta     89.056
_cell_angle_gamma    70.66

_symmetry_space_group_name_H-M    "P 1"
_symmetry_int_tables_number       1

loop_
  _symmetry_equiv_pos_as_xyz
  'x, y, z'

loop_
  _atom_site_label
  _atom_site_occupancy
  _atom_site_fract_x
  _atom_site_fract_y
  _atom_site_fract_z
  _atom_site_thermal_displace_type
  _atom_site_B_iso_or_equiv
  _atom_site_type_symbol
  C1       1.0000 0.68880  0.21110  0.17750  Biso   1.000  C
  C2       1.0000 0.31120  0.78890  0.82250  Biso   1.000  C
  C3       1.0000 0.85140  0.22470  0.09530  Biso   1.000  C
  C4       1.0000 0.14860  0.77530  0.90470  Biso   1.000  C
  C5       1.0000 0.04970  0.11970  0.11730  Biso   1.000  C
  C6       1.0000 0.95030  0.88030  0.88270  Biso   1.000  C
  H1       1.0000 0.09150  0.03270  0.18560  Biso   1.000  H
  H2       1.0000 0.90850  0.96730  0.81440  Biso   1.000  H
  C7       1.0000 0.18530  0.14580  0.03630  Biso   1.000  C
  C8       1.0000 0.81470  0.85420  0.96370  Biso   1.000  C
  H3       1.0000 0.32000  0.07980  0.05060  Biso   1.000  H
  H4       1.0000 0.68000  0.92020  0.94940  Biso   1.000  H
  C9       1.0000 0.11850  0.27140  0.93350  Biso   1.000  C
  C10      1.0000 0.88150  0.72860  0.06650  Biso   1.000  C
  C11      1.0000 0.91690  0.37090  0.91710  Biso   1.000  C
  C12      1.0000 0.08310  0.62910  0.08290  Biso   1.000  C
  H5       1.0000 0.87110  0.45470  0.84810  Biso   1.000  H
  H6       1.0000 0.12890  0.54530  0.15190  Biso   1.000  H
  C13      1.0000 0.26060  0.31400  0.84320  Biso   1.000  C
  C14      1.0000 0.73940  0.68600  0.15680  Biso   1.000  C
  Cu1      1.0000 0.50000  0.50000  0.00000  Biso   1.000  Cu
  N1       1.0000 0.78500  0.35050  0.99750  Biso   1.000  N
  N2       1.0000 0.21500  0.64950  0.00250  Biso   1.000  N
  O1       1.0000 0.51520  0.32960  0.14750  Biso   1.000  O
  O2       1.0000 0.48480  0.67040  0.85250  Biso   1.000  O
  O3       1.0000 0.72950  0.08890  0.26530  Biso   1.000  O
  O4       1.0000 0.27050  0.91110  0.73470  Biso   1.000  O
  O5       1.0000 0.18740  0.40720  0.74810  Biso   1.000  O
  O6       1.0000 0.81260  0.59280  0.25190  Biso   1.000  O
  O7       1.0000 0.43990  0.26120  0.87300  Biso   1.000  O
  O8       1.0000 0.56010  0.73880  0.12700  Biso   1.000  O
  C15      1.0000 0.54780  0.49570  0.44250  Biso   1.000  C
  C16      1.0000 0.45220  0.50430  0.55750  Biso   1.000  C
  H7       1.0000 0.66420  0.53540  0.44540  Biso   1.000  H
  H8       1.0000 0.33580  0.46460  0.55460  Biso   1.000  H
  H9       1.0000 0.58980  0.36120  0.42470  Biso   1.000  H
  H10      1.0000 0.41020  0.63880  0.57530  Biso   1.000  H
  N3       1.0000 0.40900  0.62640  0.35100  Biso   1.000  N
  N4       1.0000 0.59100  0.37360  0.64900  Biso   1.000  N
  H11      1.0000 0.30150  0.59090  0.34910  Biso   1.000  H
  H12      1.0000 0.69850  0.40910  0.65090  Biso   1.000  H
  H13      1.0000 0.46690  0.61710  0.28270  Biso   1.000  H
  H14      1.0000 0.53310  0.38290  0.71730  Biso   1.000  H
  H15      1.0000 0.37450  0.75040  0.36590  Biso   1.000  H
  H16      1.0000 0.62550  0.24960  0.63410  Biso   1.000  H
  H17      1.0000 0.51900  0.00800  0.33000  Biso   1.000  H
  H18      1.0000 0.48100  0.99200  0.67000  Biso   1.000  H
  O9       1.0000 0.42190  0.00760  0.38640  Biso   1.000  O
  O10      1.0000 0.57810  0.99240  0.61360  Biso   1.000  O
  H19      1.0000 0.49300  0.08600  0.41200  Biso   1.000  H
  H20      1.0000 0.50700  0.91400  0.58800  Biso   1.000  H
  H21      1.0000 0.23400  0.25900  0.37700  Biso   1.000  H
  H22      1.0000 0.76600  0.74100  0.62300  Biso   1.000  H
  H23      1.0000 0.02400  0.45400  0.33800  Biso   1.000  H
  H24      1.0000 0.97600  0.54600  0.66200  Biso   1.000  H
  O11      1.0000 0.13510  0.38190  0.38580  Biso   1.000  O
  O12      1.0000 0.86490  0.61810  0.61420  Biso   1.000  O
  H25      1.0000 0.90800  0.88600  0.37800  Biso   1.000  H
  H26      1.0000 0.09200  0.11400  0.62200  Biso   1.000  H
  H27      1.0000 0.96000  0.77000  0.48600  Biso   1.000  H
  H28      1.0000 0.04000  0.23000  0.51400  Biso   1.000  H
  O13      1.0000 0.01460  0.84670  0.43140  Biso   1.000  O
  O14      1.0000 0.98540  0.15330  0.56860  Biso   1.000  O
