data_image0
_cell_length_a       24.286
_cell_length_b       8.604
_cell_length_c       5.075
_cell_angle_alpha    90
_cell_angle_beta     90
_cell_angle_gamma    90

_symmetry_space_group_name_H-M    "P 1"
_symmetry_int_tables_number       1

loop_
  _symmetry_equiv_pos_as_xyz
  'x, y, z'

loop_
  _atom_site_label
  _atom_site_occupancy
  _atom_site_fract_x
  _atom_site_fract_y
  _atom_site_fract_z
  _atom_site_thermal_displace_type
  _atom_site_B_iso_or_equiv
  _atom_site_type_symbol
  Cu1      1.0000 0.36950  0.62510  0.15770  Biso   1.000  Cu
  Cu2      1.0000 0.86950  0.87490  0.84230  Biso   1.000  Cu
  Cu3      1.0000 0.63050  0.12510  0.34230  Biso   1.000  Cu
  Cu4      1.0000 0.13050  0.37490  0.65770  Biso   1.000  Cu
  O1       1.0000 0.42280  0.45990  0.14250  Biso   1.000  O
  O2       1.0000 0.92280  0.04010  0.85750  Biso   1.000  O
  O3       1.0000 0.57720  0.95990  0.35750  Biso   1.000  O
  O4       1.0000 0.07720  0.54010  0.64250  Biso   1.000  O
  O5       1.0000 0.44460  0.22820  0.28280  Biso   1.000  O
  O6       1.0000 0.94460  0.27180  0.71720  Biso   1.000  O
  O7       1.0000 0.55540  0.72820  0.21720  Biso   1.000  O
  O8       1.0000 0.05540  0.77180  0.78280  Biso   1.000  O
  C1       1.0000 0.41440  0.34150  0.28660  Biso   1.000  C
  C2       1.0000 0.91440  0.15850  0.71340  Biso   1.000  C
  C3       1.0000 0.58560  0.84150  0.21340  Biso   1.000  C
  C4       1.0000 0.08560  0.65850  0.78660  Biso   1.000  C
  C5       1.0000 0.36130  0.33960  0.45150  Biso   1.000  C
  C6       1.0000 0.86130  0.16040  0.54850  Biso   1.000  C
  C7       1.0000 0.63870  0.83960  0.04850  Biso   1.000  C
  C8       1.0000 0.13870  0.66040  0.95150  Biso   1.000  C
  N1       1.0000 0.33360  0.49340  0.43020  Biso   1.000  N
  N2       1.0000 0.83360  0.00660  0.56980  Biso   1.000  N
  N3       1.0000 0.66640  0.99340  0.06980  Biso   1.000  N
  N4       1.0000 0.16640  0.50660  0.93020  Biso   1.000  N
  C9       1.0000 0.32510  0.20460  0.35990  Biso   1.000  C
  C10      1.0000 0.82510  0.29540  0.64010  Biso   1.000  C
  C11      1.0000 0.67490  0.70460  0.14010  Biso   1.000  C
  C12      1.0000 0.17490  0.79540  0.85990  Biso   1.000  C
  C13      1.0000 0.27860  0.16070  0.54520  Biso   1.000  C
  C14      1.0000 0.77860  0.33930  0.45480  Biso   1.000  C
  C15      1.0000 0.72140  0.66070  0.95480  Biso   1.000  C
  C16      1.0000 0.22140  0.83930  0.04520  Biso   1.000  C
  C17      1.0000 0.22630  0.25730  0.53370  Biso   1.000  C
  C18      1.0000 0.72630  0.24270  0.46630  Biso   1.000  C
  C19      1.0000 0.77370  0.75730  0.96630  Biso   1.000  C
  C20      1.0000 0.27370  0.74270  0.03370  Biso   1.000  C
  O9       1.0000 0.31220  0.78530  0.18810  Biso   1.000  O
  O10      1.0000 0.81220  0.71470  0.81190  Biso   1.000  O
  O11      1.0000 0.68780  0.28530  0.31190  Biso   1.000  O
  O12      1.0000 0.18780  0.21470  0.68810  Biso   1.000  O
  O13      1.0000 0.22300  0.37540  0.39030  Biso   1.000  O
  O14      1.0000 0.72300  0.12460  0.60970  Biso   1.000  O
  O15      1.0000 0.77700  0.87540  0.10970  Biso   1.000  O
  O16      1.0000 0.27700  0.62460  0.89030  Biso   1.000  O
  N5       1.0000 0.41020  0.73050  0.87680  Biso   1.000  N
  N6       1.0000 0.91020  0.76950  0.12320  Biso   1.000  N
  N7       1.0000 0.58980  0.23050  0.62320  Biso   1.000  N
  N8       1.0000 0.08980  0.26950  0.37680  Biso   1.000  N
  C21      1.0000 0.45230  0.67540  0.75090  Biso   1.000  C
  C22      1.0000 0.95230  0.82460  0.24910  Biso   1.000  C
  C23      1.0000 0.54770  0.17540  0.74910  Biso   1.000  C
  C24      1.0000 0.04770  0.32460  0.25090  Biso   1.000  C
  N9       1.0000 0.46870  0.77060  0.55830  Biso   1.000  N
  N10      1.0000 0.96870  0.72940  0.44170  Biso   1.000  N
  N11      1.0000 0.53130  0.27060  0.94170  Biso   1.000  N
  N12      1.0000 0.03130  0.22940  0.05830  Biso   1.000  N
  C25      1.0000 0.43440  0.89600  0.56350  Biso   1.000  C
  C26      1.0000 0.93440  0.60400  0.43650  Biso   1.000  C
  C27      1.0000 0.56560  0.39600  0.93650  Biso   1.000  C
  C28      1.0000 0.06560  0.10400  0.06350  Biso   1.000  C
  C29      1.0000 0.39870  0.87060  0.75700  Biso   1.000  C
  C30      1.0000 0.89870  0.62940  0.24300  Biso   1.000  C
  C31      1.0000 0.60130  0.37060  0.74300  Biso   1.000  C
  C32      1.0000 0.10130  0.12940  0.25700  Biso   1.000  C
  H1       1.0000 0.37010  0.32110  0.65770  Biso   1.000  H
  H2       1.0000 0.87010  0.17890  0.34230  Biso   1.000  H
  H3       1.0000 0.62990  0.82110  0.84230  Biso   1.000  H
  H4       1.0000 0.12990  0.67890  0.15770  Biso   1.000  H
  H5       1.0000 0.29100  0.47580  0.37730  Biso   1.000  H
  H6       1.0000 0.79100  0.02420  0.62270  Biso   1.000  H
  H7       1.0000 0.70900  0.97580  0.12270  Biso   1.000  H
  H8       1.0000 0.20900  0.52420  0.87730  Biso   1.000  H
  H9       1.0000 0.33580  0.55180  0.61820  Biso   1.000  H
  H10      1.0000 0.83580  0.94820  0.38180  Biso   1.000  H
  H11      1.0000 0.66420  0.05180  0.88180  Biso   1.000  H
  H12      1.0000 0.16420  0.44820  0.11820  Biso   1.000  H
  H13      1.0000 0.35110  0.10390  0.33490  Biso   1.000  H
  H14      1.0000 0.85110  0.39610  0.66510  Biso   1.000  H
  H15      1.0000 0.64890  0.60390  0.16510  Biso   1.000  H
  H16      1.0000 0.14890  0.89610  0.83490  Biso   1.000  H
  H17      1.0000 0.30720  0.23610  0.17250  Biso   1.000  H
  H18      1.0000 0.80720  0.26390  0.82750  Biso   1.000  H
  H19      1.0000 0.69280  0.73610  0.32750  Biso   1.000  H
  H20      1.0000 0.19280  0.76390  0.67250  Biso   1.000  H
  H21      1.0000 0.26740  0.04190  0.50260  Biso   1.000  H
  H22      1.0000 0.76740  0.45810  0.49740  Biso   1.000  H
  H23      1.0000 0.73260  0.54190  0.99740  Biso   1.000  H
  H24      1.0000 0.23260  0.95810  0.00260  Biso   1.000  H
  H25      1.0000 0.29440  0.16830  0.74380  Biso   1.000  H
  H26      1.0000 0.79440  0.33170  0.25620  Biso   1.000  H
  H27      1.0000 0.70560  0.66830  0.75620  Biso   1.000  H
  H28      1.0000 0.20560  0.83170  0.24380  Biso   1.000  H
  H29      1.0000 0.47180  0.56580  0.79620  Biso   1.000  H
  H30      1.0000 0.97180  0.93420  0.20380  Biso   1.000  H
  H31      1.0000 0.52820  0.06580  0.70380  Biso   1.000  H
  H32      1.0000 0.02820  0.43420  0.29620  Biso   1.000  H
  H33      1.0000 0.50260  0.75180  0.42430  Biso   1.000  H
  H34      1.0000 0.00260  0.74820  0.57570  Biso   1.000  H
  H35      1.0000 0.49740  0.25180  0.07570  Biso   1.000  H
  H36      1.0000 0.99740  0.24820  0.92430  Biso   1.000  H
  H37      1.0000 0.43600  0.99620  0.43550  Biso   1.000  H
  H38      1.0000 0.93600  0.50380  0.56450  Biso   1.000  H
  H39      1.0000 0.56400  0.49620  0.06450  Biso   1.000  H
  H40      1.0000 0.06400  0.00380  0.93550  Biso   1.000  H
  H41      1.0000 0.36560  0.94800  0.81220  Biso   1.000  H
  H42      1.0000 0.86560  0.55200  0.18780  Biso   1.000  H
  H43      1.0000 0.63440  0.44800  0.68780  Biso   1.000  H
  H44      1.0000 0.13440  0.05200  0.31220  Biso   1.000  H
