data_image0
_cell_length_a       7.674
_cell_length_b       17.738
_cell_length_c       21.761
_cell_angle_alpha    90
_cell_angle_beta     90
_cell_angle_gamma    90

_symmetry_space_group_name_H-M    "P 1"
_symmetry_int_tables_number       1

loop_
  _symmetry_equiv_pos_as_xyz
  'x, y, z'

loop_
  _atom_site_label
  _atom_site_occupancy
  _atom_site_fract_x
  _atom_site_fract_y
  _atom_site_fract_z
  _atom_site_thermal_displace_type
  _atom_site_B_iso_or_equiv
  _atom_site_type_symbol
  Cu1      1.0000 0.16860  0.19540  0.17870  Biso   1.000  Cu
  Cu2      1.0000 0.66860  0.30460  0.82130  Biso   1.000  Cu
  Cu3      1.0000 0.83140  0.69540  0.32130  Biso   1.000  Cu
  Cu4      1.0000 0.33140  0.80460  0.67870  Biso   1.000  Cu
  N1       1.0000 0.09860  0.08760  0.19710  Biso   1.000  N
  N2       1.0000 0.59860  0.41240  0.80290  Biso   1.000  N
  N3       1.0000 0.90140  0.58760  0.30290  Biso   1.000  N
  N4       1.0000 0.40140  0.91240  0.69710  Biso   1.000  N
  C1       1.0000 0.04090  0.03380  0.15860  Biso   1.000  C
  C2       1.0000 0.54090  0.46620  0.84140  Biso   1.000  C
  C3       1.0000 0.95910  0.53380  0.34140  Biso   1.000  C
  C4       1.0000 0.45910  0.96620  0.65860  Biso   1.000  C
  C5       1.0000 0.98940  0.96420  0.17700  Biso   1.000  C
  C6       1.0000 0.48940  0.53580  0.82300  Biso   1.000  C
  C7       1.0000 0.01060  0.46420  0.32300  Biso   1.000  C
  C8       1.0000 0.51060  0.03580  0.67700  Biso   1.000  C
  C9       1.0000 0.99990  0.94510  0.23850  Biso   1.000  C
  C10      1.0000 0.49990  0.55490  0.76150  Biso   1.000  C
  C11      1.0000 0.00010  0.44510  0.26150  Biso   1.000  C
  C12      1.0000 0.50010  0.05490  0.73850  Biso   1.000  C
  C13      1.0000 0.05700  0.99920  0.27850  Biso   1.000  C
  C14      1.0000 0.55700  0.50080  0.72150  Biso   1.000  C
  C15      1.0000 0.94300  0.49920  0.22150  Biso   1.000  C
  C16      1.0000 0.44300  0.00080  0.77850  Biso   1.000  C
  C17      1.0000 0.10900  0.06910  0.25840  Biso   1.000  C
  C18      1.0000 0.60900  0.43090  0.74160  Biso   1.000  C
  C19      1.0000 0.89100  0.56910  0.24160  Biso   1.000  C
  C20      1.0000 0.39100  0.93090  0.75840  Biso   1.000  C
  N5       1.0000 0.19110  0.19790  0.27080  Biso   1.000  N
  N6       1.0000 0.69110  0.30210  0.72920  Biso   1.000  N
  N7       1.0000 0.80890  0.69790  0.22920  Biso   1.000  N
  N8       1.0000 0.30890  0.80210  0.77080  Biso   1.000  N
  C21      1.0000 0.24330  0.25590  0.30350  Biso   1.000  C
  C22      1.0000 0.74330  0.24410  0.69650  Biso   1.000  C
  C23      1.0000 0.75670  0.75590  0.19650  Biso   1.000  C
  C24      1.0000 0.25670  0.74410  0.80350  Biso   1.000  C
  C25      1.0000 0.26820  0.25210  0.36650  Biso   1.000  C
  C26      1.0000 0.76820  0.24790  0.63350  Biso   1.000  C
  C27      1.0000 0.73180  0.75210  0.13350  Biso   1.000  C
  C28      1.0000 0.23180  0.74790  0.86650  Biso   1.000  C
  C29      1.0000 0.24490  0.18510  0.39500  Biso   1.000  C
  C30      1.0000 0.74490  0.31490  0.60500  Biso   1.000  C
  C31      1.0000 0.75510  0.68510  0.10500  Biso   1.000  C
  C32      1.0000 0.25510  0.81490  0.89500  Biso   1.000  C
  C33      1.0000 0.19540  0.12330  0.36150  Biso   1.000  C
  C34      1.0000 0.69540  0.37670  0.63850  Biso   1.000  C
  C35      1.0000 0.80460  0.62330  0.13850  Biso   1.000  C
  C36      1.0000 0.30460  0.87670  0.86150  Biso   1.000  C
  C37      1.0000 0.16380  0.13040  0.29870  Biso   1.000  C
  C38      1.0000 0.66380  0.36960  0.70130  Biso   1.000  C
  C39      1.0000 0.83620  0.63040  0.20130  Biso   1.000  C
  C40      1.0000 0.33620  0.86960  0.79870  Biso   1.000  C
  O1       1.0000 0.11830  0.30360  0.17480  Biso   1.000  O
  O2       1.0000 0.61830  0.19640  0.82520  Biso   1.000  O
  O3       1.0000 0.88170  0.80360  0.32520  Biso   1.000  O
  O4       1.0000 0.38170  0.69640  0.67480  Biso   1.000  O
  O5       1.0000 0.02050  0.39260  0.11140  Biso   1.000  O
  O6       1.0000 0.52050  0.10740  0.88860  Biso   1.000  O
  O7       1.0000 0.97950  0.89260  0.38860  Biso   1.000  O
  O8       1.0000 0.47950  0.60740  0.61140  Biso   1.000  O
  C41      1.0000 0.05380  0.32520  0.12390  Biso   1.000  C
  C42      1.0000 0.55380  0.17480  0.87610  Biso   1.000  C
  C43      1.0000 0.94620  0.82520  0.37610  Biso   1.000  C
  C44      1.0000 0.44620  0.67480  0.62390  Biso   1.000  C
  C45      1.0000 0.01800  0.26590  0.07410  Biso   1.000  C
  C46      1.0000 0.51800  0.23410  0.92590  Biso   1.000  C
  C47      1.0000 0.98200  0.76590  0.42590  Biso   1.000  C
  C48      1.0000 0.48200  0.73410  0.57410  Biso   1.000  C
  N9       1.0000 0.12170  0.19950  0.08900  Biso   1.000  N
  N10      1.0000 0.62170  0.30050  0.91100  Biso   1.000  N
  N11      1.0000 0.87830  0.69950  0.41100  Biso   1.000  N
  N12      1.0000 0.37830  0.80050  0.58900  Biso   1.000  N
  C49      1.0000 0.81980  0.25040  0.07030  Biso   1.000  C
  C50      1.0000 0.31980  0.24960  0.92970  Biso   1.000  C
  C51      1.0000 0.18020  0.75040  0.42970  Biso   1.000  C
  C52      1.0000 0.68020  0.74960  0.57030  Biso   1.000  C
  C53      1.0000 0.73610  0.22940  0.12950  Biso   1.000  C
  C54      1.0000 0.23610  0.27060  0.87050  Biso   1.000  C
  C55      1.0000 0.26390  0.72940  0.37050  Biso   1.000  C
  C56      1.0000 0.76390  0.77060  0.62950  Biso   1.000  C
  C57      1.0000 0.53810  0.22340  0.12580  Biso   1.000  C
  C58      1.0000 0.03810  0.27660  0.87420  Biso   1.000  C
  C59      1.0000 0.46190  0.72340  0.37420  Biso   1.000  C
  C60      1.0000 0.96190  0.77660  0.62580  Biso   1.000  C
  O9       1.0000 0.46040  0.19650  0.17170  Biso   1.000  O
  O10      1.0000 0.96040  0.30350  0.82830  Biso   1.000  O
  O11      1.0000 0.53960  0.69650  0.32830  Biso   1.000  O
  O12      1.0000 0.03960  0.80350  0.67170  Biso   1.000  O
  O13      1.0000 0.46500  0.24620  0.07780  Biso   1.000  O
  O14      1.0000 0.96500  0.25380  0.92220  Biso   1.000  O
  O15      1.0000 0.53500  0.74620  0.42220  Biso   1.000  O
  O16      1.0000 0.03500  0.75380  0.57780  Biso   1.000  O
  Cu5      1.0000 0.21670  0.44110  0.54250  Biso   1.000  Cu
  Cu6      1.0000 0.71670  0.05890  0.45750  Biso   1.000  Cu
  Cu7      1.0000 0.78330  0.94110  0.95750  Biso   1.000  Cu
  Cu8      1.0000 0.28330  0.55890  0.04250  Biso   1.000  Cu
  N13      1.0000 0.14960  0.47830  0.62690  Biso   1.000  N
  N14      1.0000 0.64960  0.02170  0.37310  Biso   1.000  N
  N15      1.0000 0.85040  0.97830  0.87310  Biso   1.000  N
  N16      1.0000 0.35040  0.52170  0.12690  Biso   1.000  N
  C61      1.0000 0.10230  0.54790  0.64050  Biso   1.000  C
  C62      1.0000 0.60230  0.95210  0.35950  Biso   1.000  C
  C63      1.0000 0.89770  0.04790  0.85950  Biso   1.000  C
  C64      1.0000 0.39770  0.45210  0.14050  Biso   1.000  C
  C65      1.0000 0.04220  0.56820  0.69750  Biso   1.000  C
  C66      1.0000 0.54220  0.93180  0.30250  Biso   1.000  C
  C67      1.0000 0.95780  0.06820  0.80250  Biso   1.000  C
  C68      1.0000 0.45780  0.43180  0.19750  Biso   1.000  C
  C69      1.0000 0.03050  0.51480  0.74290  Biso   1.000  C
  C70      1.0000 0.53050  0.98520  0.25710  Biso   1.000  C
  C71      1.0000 0.96950  0.01480  0.75710  Biso   1.000  C
  C72      1.0000 0.46950  0.48520  0.24290  Biso   1.000  C
  C73      1.0000 0.07710  0.44120  0.72960  Biso   1.000  C
  C74      1.0000 0.57710  0.05880  0.27040  Biso   1.000  C
  C75      1.0000 0.92290  0.94120  0.77040  Biso   1.000  C
  C76      1.0000 0.42290  0.55880  0.22960  Biso   1.000  C
  C77      1.0000 0.13820  0.42370  0.66970  Biso   1.000  C
  C78      1.0000 0.63820  0.07630  0.33030  Biso   1.000  C
  C79      1.0000 0.86180  0.92370  0.83030  Biso   1.000  C
  C80      1.0000 0.36180  0.57630  0.16970  Biso   1.000  C
  N17      1.0000 0.22850  0.34320  0.58850  Biso   1.000  N
  N18      1.0000 0.72850  0.15680  0.41150  Biso   1.000  N
  N19      1.0000 0.77150  0.84320  0.91150  Biso   1.000  N
  N20      1.0000 0.27150  0.65680  0.08850  Biso   1.000  N
  C81      1.0000 0.27420  0.27690  0.56450  Biso   1.000  C
  C82      1.0000 0.77420  0.22310  0.43550  Biso   1.000  C
  C83      1.0000 0.72580  0.77690  0.93550  Biso   1.000  C
  C84      1.0000 0.22580  0.72310  0.06450  Biso   1.000  C
  C85      1.0000 0.27970  0.21320  0.60210  Biso   1.000  C
  C86      1.0000 0.77970  0.28680  0.39790  Biso   1.000  C
  C87      1.0000 0.72030  0.71320  0.89790  Biso   1.000  C
  C88      1.0000 0.22030  0.78680  0.10210  Biso   1.000  C
  C89      1.0000 0.24260  0.21850  0.66030  Biso   1.000  C
  C90      1.0000 0.74260  0.28150  0.33970  Biso   1.000  C
  C91      1.0000 0.75740  0.71850  0.83970  Biso   1.000  C
  C92      1.0000 0.25740  0.78150  0.16030  Biso   1.000  C
  C93      1.0000 0.19380  0.28610  0.68740  Biso   1.000  C
  C94      1.0000 0.69380  0.21390  0.31260  Biso   1.000  C
  C95      1.0000 0.80620  0.78610  0.81260  Biso   1.000  C
  C96      1.0000 0.30620  0.71390  0.18740  Biso   1.000  C
  C97      1.0000 0.19290  0.34780  0.64830  Biso   1.000  C
  C98      1.0000 0.69290  0.15220  0.35170  Biso   1.000  C
  C99      1.0000 0.80710  0.84780  0.85170  Biso   1.000  C
  C100     1.0000 0.30710  0.65220  0.14830  Biso   1.000  C
  O17      1.0000 0.30420  0.39690  0.46780  Biso   1.000  O
  O18      1.0000 0.80420  0.10310  0.53220  Biso   1.000  O
  O19      1.0000 0.69580  0.89690  0.03220  Biso   1.000  O
  O20      1.0000 0.19580  0.60310  0.96780  Biso   1.000  O
  O21      1.0000 0.42320  0.42350  0.37660  Biso   1.000  O
  O22      1.0000 0.92320  0.07650  0.62340  Biso   1.000  O
  O23      1.0000 0.57680  0.92350  0.12340  Biso   1.000  O
  O24      1.0000 0.07680  0.57650  0.87660  Biso   1.000  O
  C101     1.0000 0.36810  0.44300  0.42940  Biso   1.000  C
  C102     1.0000 0.86810  0.05700  0.57060  Biso   1.000  C
  C103     1.0000 0.63190  0.94300  0.07060  Biso   1.000  C
  C104     1.0000 0.13190  0.55700  0.92940  Biso   1.000  C
  C105     1.0000 0.38700  0.52680  0.44820  Biso   1.000  C
  C106     1.0000 0.88700  0.97320  0.55180  Biso   1.000  C
  C107     1.0000 0.61300  0.02680  0.05180  Biso   1.000  C
  C108     1.0000 0.11300  0.47320  0.94820  Biso   1.000  C
  N21      1.0000 0.29640  0.53920  0.50690  Biso   1.000  N
  N22      1.0000 0.79640  0.96080  0.49310  Biso   1.000  N
  N23      1.0000 0.70360  0.03920  0.99310  Biso   1.000  N
  N24      1.0000 0.20360  0.46080  0.00690  Biso   1.000  N
  C109     1.0000 0.57860  0.54510  0.45270  Biso   1.000  C
  C110     1.0000 0.07860  0.95490  0.54730  Biso   1.000  C
  C111     1.0000 0.42140  0.04510  0.04730  Biso   1.000  C
  C112     1.0000 0.92140  0.45490  0.95270  Biso   1.000  C
  C113     1.0000 0.67070  0.49630  0.50160  Biso   1.000  C
  C114     1.0000 0.17070  0.00370  0.49840  Biso   1.000  C
  C115     1.0000 0.32930  0.99630  0.99840  Biso   1.000  C
  C116     1.0000 0.82930  0.50370  0.00160  Biso   1.000  C
  C117     1.0000 0.86750  0.50190  0.50110  Biso   1.000  C
  C118     1.0000 0.36750  0.99810  0.49890  Biso   1.000  C
  C119     1.0000 0.13250  0.00190  0.99890  Biso   1.000  C
  C120     1.0000 0.63250  0.49810  0.00110  Biso   1.000  C
  O25      1.0000 0.94730  0.44150  0.51390  Biso   1.000  O
  O26      1.0000 0.44730  0.05850  0.48610  Biso   1.000  O
  O27      1.0000 0.05270  0.94150  0.98610  Biso   1.000  O
  O28      1.0000 0.55270  0.55850  0.01390  Biso   1.000  O
  O29      1.0000 0.93760  0.56210  0.48780  Biso   1.000  O
  O30      1.0000 0.43760  0.93790  0.51220  Biso   1.000  O
  O31      1.0000 0.06240  0.06210  0.01220  Biso   1.000  O
  O32      1.0000 0.56240  0.43790  0.98780  Biso   1.000  O
  H1       1.0000 0.03520  0.04680  0.11020  Biso   1.000  H
  H2       1.0000 0.53520  0.45320  0.88980  Biso   1.000  H
  H3       1.0000 0.96480  0.54680  0.38980  Biso   1.000  H
  H4       1.0000 0.46480  0.95320  0.61020  Biso   1.000  H
  H5       1.0000 0.94060  0.92400  0.14390  Biso   1.000  H
  H6       1.0000 0.44060  0.57600  0.85610  Biso   1.000  H
  H7       1.0000 0.05940  0.42400  0.35610  Biso   1.000  H
  H8       1.0000 0.55940  0.07600  0.64390  Biso   1.000  H
  H9       1.0000 0.96430  0.88950  0.25440  Biso   1.000  H
  H10      1.0000 0.46430  0.61050  0.74560  Biso   1.000  H
  H11      1.0000 0.03570  0.38950  0.24560  Biso   1.000  H
  H12      1.0000 0.53570  0.11050  0.75440  Biso   1.000  H
  H13      1.0000 0.06130  0.98670  0.32700  Biso   1.000  H
  H14      1.0000 0.56130  0.51330  0.67300  Biso   1.000  H
  H15      1.0000 0.93870  0.48670  0.17300  Biso   1.000  H
  H16      1.0000 0.43870  0.01330  0.82700  Biso   1.000  H
  H17      1.0000 0.26780  0.30870  0.28030  Biso   1.000  H
  H18      1.0000 0.76780  0.19130  0.71970  Biso   1.000  H
  H19      1.0000 0.73220  0.80870  0.21970  Biso   1.000  H
  H20      1.0000 0.23220  0.69130  0.78030  Biso   1.000  H
  H21      1.0000 0.30540  0.30160  0.39230  Biso   1.000  H
  H22      1.0000 0.80540  0.19840  0.60770  Biso   1.000  H
  H23      1.0000 0.69460  0.80160  0.10770  Biso   1.000  H
  H24      1.0000 0.19460  0.69840  0.89230  Biso   1.000  H
  H25      1.0000 0.26520  0.18030  0.44400  Biso   1.000  H
  H26      1.0000 0.76520  0.31970  0.55600  Biso   1.000  H
  H27      1.0000 0.73480  0.68030  0.05600  Biso   1.000  H
  H28      1.0000 0.23480  0.81970  0.94400  Biso   1.000  H
  H29      1.0000 0.18090  0.06920  0.38370  Biso   1.000  H
  H30      1.0000 0.68090  0.43080  0.61630  Biso   1.000  H
  H31      1.0000 0.81910  0.56920  0.11630  Biso   1.000  H
  H32      1.0000 0.31910  0.93080  0.88370  Biso   1.000  H
  H33      1.0000 0.05580  0.28490  0.02890  Biso   1.000  H
  H34      1.0000 0.55580  0.21510  0.97110  Biso   1.000  H
  H35      1.0000 0.94420  0.78490  0.47110  Biso   1.000  H
  H36      1.0000 0.44420  0.71510  0.52890  Biso   1.000  H
  H37      1.0000 0.05130  0.14950  0.07540  Biso   1.000  H
  H38      1.0000 0.55130  0.35050  0.92460  Biso   1.000  H
  H39      1.0000 0.94870  0.64950  0.42460  Biso   1.000  H
  H40      1.0000 0.44870  0.85050  0.57540  Biso   1.000  H
  H41      1.0000 0.24390  0.20210  0.06450  Biso   1.000  H
  H42      1.0000 0.74390  0.29790  0.93550  Biso   1.000  H
  H43      1.0000 0.75610  0.70210  0.43550  Biso   1.000  H
  H44      1.0000 0.25610  0.79790  0.56450  Biso   1.000  H
  H45      1.0000 0.79940  0.20480  0.03820  Biso   1.000  H
  H46      1.0000 0.29940  0.29520  0.96180  Biso   1.000  H
  H47      1.0000 0.20060  0.70480  0.46180  Biso   1.000  H
  H48      1.0000 0.70060  0.79520  0.53820  Biso   1.000  H
  H49      1.0000 0.75690  0.30080  0.05330  Biso   1.000  H
  H50      1.0000 0.25690  0.19920  0.94670  Biso   1.000  H
  H51      1.0000 0.24310  0.80080  0.44670  Biso   1.000  H
  H52      1.0000 0.74310  0.69920  0.55330  Biso   1.000  H
  H53      1.0000 0.78730  0.17550  0.14390  Biso   1.000  H
  H54      1.0000 0.28730  0.32450  0.85610  Biso   1.000  H
  H55      1.0000 0.21270  0.67550  0.35610  Biso   1.000  H
  H56      1.0000 0.71270  0.82450  0.64390  Biso   1.000  H
  H57      1.0000 0.76880  0.27170  0.16330  Biso   1.000  H
  H58      1.0000 0.26880  0.22830  0.83670  Biso   1.000  H
  H59      1.0000 0.23120  0.77170  0.33670  Biso   1.000  H
  H60      1.0000 0.73120  0.72830  0.66330  Biso   1.000  H
  H61      1.0000 0.11130  0.59060  0.60530  Biso   1.000  H
  H62      1.0000 0.61130  0.90940  0.39470  Biso   1.000  H
  H63      1.0000 0.88870  0.09060  0.89470  Biso   1.000  H
  H64      1.0000 0.38870  0.40940  0.10530  Biso   1.000  H
  H65      1.0000 0.00440  0.62580  0.70660  Biso   1.000  H
  H66      1.0000 0.50440  0.87420  0.29340  Biso   1.000  H
  H67      1.0000 0.99560  0.12580  0.79340  Biso   1.000  H
  H68      1.0000 0.49560  0.37420  0.20660  Biso   1.000  H
  H69      1.0000 0.98560  0.52990  0.78830  Biso   1.000  H
  H70      1.0000 0.48560  0.97010  0.21170  Biso   1.000  H
  H71      1.0000 0.01440  0.02990  0.71170  Biso   1.000  H
  H72      1.0000 0.51440  0.47010  0.28830  Biso   1.000  H
  H73      1.0000 0.06710  0.39780  0.76420  Biso   1.000  H
  H74      1.0000 0.56710  0.10220  0.23580  Biso   1.000  H
  H75      1.0000 0.93290  0.89780  0.73580  Biso   1.000  H
  H76      1.0000 0.43290  0.60220  0.26420  Biso   1.000  H
  H77      1.0000 0.30670  0.27250  0.51630  Biso   1.000  H
  H78      1.0000 0.80670  0.22750  0.48370  Biso   1.000  H
  H79      1.0000 0.69330  0.77250  0.98370  Biso   1.000  H
  H80      1.0000 0.19330  0.72750  0.01630  Biso   1.000  H
  H81      1.0000 0.31490  0.15920  0.58280  Biso   1.000  H
  H82      1.0000 0.81490  0.34080  0.41720  Biso   1.000  H
  H83      1.0000 0.68510  0.65920  0.91720  Biso   1.000  H
  H84      1.0000 0.18510  0.84080  0.08280  Biso   1.000  H
  H85      1.0000 0.25010  0.16850  0.68850  Biso   1.000  H
  H86      1.0000 0.75010  0.33150  0.31150  Biso   1.000  H
  H87      1.0000 0.74990  0.66850  0.81150  Biso   1.000  H
  H88      1.0000 0.24990  0.83150  0.18850  Biso   1.000  H
  H89      1.0000 0.15910  0.29030  0.73540  Biso   1.000  H
  H90      1.0000 0.65910  0.20970  0.26460  Biso   1.000  H
  H91      1.0000 0.84090  0.79030  0.76460  Biso   1.000  H
  H92      1.0000 0.34090  0.70970  0.23540  Biso   1.000  H
  H93      1.0000 0.32860  0.56360  0.41450  Biso   1.000  H
  H94      1.0000 0.82860  0.93640  0.58550  Biso   1.000  H
  H95      1.0000 0.67140  0.06360  0.08550  Biso   1.000  H
  H96      1.0000 0.17140  0.43640  0.91450  Biso   1.000  H
  H97      1.0000 0.38430  0.56630  0.53880  Biso   1.000  H
  H98      1.0000 0.88430  0.93370  0.46120  Biso   1.000  H
  H99      1.0000 0.61570  0.06630  0.96120  Biso   1.000  H
  H100     1.0000 0.11570  0.43370  0.03880  Biso   1.000  H
  H101     1.0000 0.18470  0.57500  0.49920  Biso   1.000  H
  H102     1.0000 0.68470  0.92500  0.50080  Biso   1.000  H
  H103     1.0000 0.81530  0.07500  0.00080  Biso   1.000  H
  H104     1.0000 0.31530  0.42500  0.99920  Biso   1.000  H
  H105     1.0000 0.63880  0.53500  0.40860  Biso   1.000  H
  H106     1.0000 0.13880  0.96500  0.59140  Biso   1.000  H
  H107     1.0000 0.36120  0.03500  0.09140  Biso   1.000  H
  H108     1.0000 0.86120  0.46500  0.90860  Biso   1.000  H
  H109     1.0000 0.59310  0.60380  0.46490  Biso   1.000  H
  H110     1.0000 0.09310  0.89620  0.53510  Biso   1.000  H
  H111     1.0000 0.40690  0.10380  0.03510  Biso   1.000  H
  H112     1.0000 0.90690  0.39620  0.96490  Biso   1.000  H
  H113     1.0000 0.63530  0.43810  0.49380  Biso   1.000  H
  H114     1.0000 0.13530  0.06190  0.50620  Biso   1.000  H
  H115     1.0000 0.36470  0.93810  0.00620  Biso   1.000  H
  H116     1.0000 0.86470  0.56190  0.99380  Biso   1.000  H
  H117     1.0000 0.62490  0.51370  0.54630  Biso   1.000  H
  H118     1.0000 0.12490  0.98630  0.45370  Biso   1.000  H
  H119     1.0000 0.37510  0.01370  0.95370  Biso   1.000  H
  H120     1.0000 0.87510  0.48630  0.04630  Biso   1.000  H
