data_image0
_cell_length_a       35.222
_cell_length_b       6.126
_cell_length_c       15.986
_cell_angle_alpha    90
_cell_angle_beta     108.65
_cell_angle_gamma    90

_symmetry_space_group_name_H-M    "P 1"
_symmetry_int_tables_number       1

loop_
  _symmetry_equiv_pos_as_xyz
  'x, y, z'

loop_
  _atom_site_label
  _atom_site_occupancy
  _atom_site_fract_x
  _atom_site_fract_y
  _atom_site_fract_z
  _atom_site_thermal_displace_type
  _atom_site_B_iso_or_equiv
  _atom_site_type_symbol
  Cu1      1.0000 0.50000  0.49520  0.50000  Biso   1.000  Cu
  Cu2      1.0000 0.00000  0.99520  0.50000  Biso   1.000  Cu
  Cu3      1.0000 0.50000  0.50480  0.00000  Biso   1.000  Cu
  Cu4      1.0000 0.00000  0.00480  0.00000  Biso   1.000  Cu
  N1       1.0000 0.44230  0.37840  0.44790  Biso   1.000  N
  N2       1.0000 0.94230  0.87840  0.44790  Biso   1.000  N
  N3       1.0000 0.44230  0.62160  0.94790  Biso   1.000  N
  N4       1.0000 0.94230  0.12160  0.94790  Biso   1.000  N
  C1       1.0000 0.41350  0.56300  0.40370  Biso   1.000  C
  C2       1.0000 0.91350  0.06300  0.40370  Biso   1.000  C
  C3       1.0000 0.41350  0.43700  0.90370  Biso   1.000  C
  C4       1.0000 0.91350  0.93700  0.90370  Biso   1.000  C
  C5       1.0000 0.37090  0.46830  0.36070  Biso   1.000  C
  C6       1.0000 0.87090  0.96830  0.36070  Biso   1.000  C
  C7       1.0000 0.37090  0.53170  0.86070  Biso   1.000  C
  C8       1.0000 0.87090  0.03170  0.86070  Biso   1.000  C
  C9       1.0000 0.34960  0.76000  0.26300  Biso   1.000  C
  C10      1.0000 0.84960  0.26000  0.26300  Biso   1.000  C
  C11      1.0000 0.34960  0.24000  0.76300  Biso   1.000  C
  C12      1.0000 0.84960  0.74000  0.76300  Biso   1.000  C
  C13      1.0000 0.32050  0.86880  0.19690  Biso   1.000  C
  C14      1.0000 0.82050  0.36880  0.19690  Biso   1.000  C
  C15      1.0000 0.32050  0.13120  0.69690  Biso   1.000  C
  C16      1.0000 0.82050  0.63120  0.69690  Biso   1.000  C
  C17      1.0000 0.28200  0.78420  0.16480  Biso   1.000  C
  C18      1.0000 0.78200  0.28420  0.16480  Biso   1.000  C
  C19      1.0000 0.28200  0.21580  0.66480  Biso   1.000  C
  C20      1.0000 0.78200  0.71580  0.66480  Biso   1.000  C
  C21      1.0000 0.27280  0.59080  0.19870  Biso   1.000  C
  C22      1.0000 0.77280  0.09080  0.19870  Biso   1.000  C
  C23      1.0000 0.27280  0.40920  0.69870  Biso   1.000  C
  C24      1.0000 0.77280  0.90920  0.69870  Biso   1.000  C
  C25      1.0000 0.30190  0.48200  0.26480  Biso   1.000  C
  C26      1.0000 0.80190  0.98200  0.26480  Biso   1.000  C
  C27      1.0000 0.30190  0.51800  0.76480  Biso   1.000  C
  C28      1.0000 0.80190  0.01800  0.76480  Biso   1.000  C
  C29      1.0000 0.34030  0.56660  0.29690  Biso   1.000  C
  C30      1.0000 0.84030  0.06660  0.29690  Biso   1.000  C
  C31      1.0000 0.34030  0.43340  0.79690  Biso   1.000  C
  C32      1.0000 0.84030  0.93340  0.79690  Biso   1.000  C
  N5       1.0000 0.35990  0.28260  0.39710  Biso   1.000  N
  N6       1.0000 0.85990  0.78260  0.39710  Biso   1.000  N
  N7       1.0000 0.35990  0.71740  0.89710  Biso   1.000  N
  N8       1.0000 0.85990  0.21740  0.89710  Biso   1.000  N
  N9       1.0000 0.38480  0.18540  0.46780  Biso   1.000  N
  N10      1.0000 0.88480  0.68540  0.46780  Biso   1.000  N
  N11      1.0000 0.38480  0.81460  0.96780  Biso   1.000  N
  N12      1.0000 0.88480  0.31460  0.96780  Biso   1.000  N
  C33      1.0000 0.33780  0.91860  0.46910  Biso   1.000  C
  C34      1.0000 0.83780  0.41860  0.46910  Biso   1.000  C
  C35      1.0000 0.33780  0.08140  0.96910  Biso   1.000  C
  C36      1.0000 0.83780  0.58140  0.96910  Biso   1.000  C
  C37      1.0000 0.32660  0.72720  0.50100  Biso   1.000  C
  C38      1.0000 0.82660  0.22720  0.50100  Biso   1.000  C
  C39      1.0000 0.32660  0.27280  0.00100  Biso   1.000  C
  C40      1.0000 0.82660  0.77280  0.00100  Biso   1.000  C
  C41      1.0000 0.35100  0.63800  0.57930  Biso   1.000  C
  C42      1.0000 0.85100  0.13800  0.57930  Biso   1.000  C
  C43      1.0000 0.35100  0.36200  0.07930  Biso   1.000  C
  C44      1.0000 0.85100  0.86200  0.07930  Biso   1.000  C
  C45      1.0000 0.38660  0.74020  0.62580  Biso   1.000  C
  C46      1.0000 0.88660  0.24020  0.62580  Biso   1.000  C
  C47      1.0000 0.38660  0.25980  0.12580  Biso   1.000  C
  C48      1.0000 0.88660  0.75980  0.12580  Biso   1.000  C
  C49      1.0000 0.39770  0.93160  0.59390  Biso   1.000  C
  C50      1.0000 0.89770  0.43160  0.59390  Biso   1.000  C
  C51      1.0000 0.39770  0.06840  0.09390  Biso   1.000  C
  C52      1.0000 0.89770  0.56840  0.09390  Biso   1.000  C
  C53      1.0000 0.37330  0.02070  0.51550  Biso   1.000  C
  C54      1.0000 0.87330  0.52070  0.51550  Biso   1.000  C
  C55      1.0000 0.37330  0.97930  0.01550  Biso   1.000  C
  C56      1.0000 0.87330  0.47930  0.01550  Biso   1.000  C
  C57      1.0000 0.42530  0.28340  0.52050  Biso   1.000  C
  C58      1.0000 0.92530  0.78340  0.52050  Biso   1.000  C
  C59      1.0000 0.42530  0.71660  0.02050  Biso   1.000  C
  C60      1.0000 0.92530  0.21660  0.02050  Biso   1.000  C
  C61      1.0000 0.44550  0.21230  0.37790  Biso   1.000  C
  C62      1.0000 0.94550  0.71230  0.37790  Biso   1.000  C
  C63      1.0000 0.44550  0.78770  0.87790  Biso   1.000  C
  C64      1.0000 0.94550  0.28770  0.87790  Biso   1.000  C
  O1       1.0000 0.50490  0.41410  0.39330  Biso   1.000  O
  O2       1.0000 0.00490  0.91410  0.39330  Biso   1.000  O
  O3       1.0000 0.50490  0.58590  0.89330  Biso   1.000  O
  O4       1.0000 0.00490  0.08590  0.89330  Biso   1.000  O
  O5       1.0000 0.47810  0.20890  0.26560  Biso   1.000  O
  O6       1.0000 0.97810  0.70890  0.26560  Biso   1.000  O
  O7       1.0000 0.47810  0.79110  0.76560  Biso   1.000  O
  O8       1.0000 0.97810  0.29110  0.76560  Biso   1.000  O
  C65      1.0000 0.48050  0.30080  0.34040  Biso   1.000  C
  C66      1.0000 0.98050  0.80080  0.34040  Biso   1.000  C
  C67      1.0000 0.48050  0.69920  0.84040  Biso   1.000  C
  C68      1.0000 0.98050  0.19920  0.84040  Biso   1.000  C
  N13      1.0000 0.55880  0.61040  0.55310  Biso   1.000  N
  N14      1.0000 0.05880  0.11040  0.55310  Biso   1.000  N
  N15      1.0000 0.55880  0.38960  0.05310  Biso   1.000  N
  N16      1.0000 0.05880  0.88960  0.05310  Biso   1.000  N
  C69      1.0000 0.57030  0.69130  0.48180  Biso   1.000  C
  C70      1.0000 0.07030  0.19130  0.48180  Biso   1.000  C
  C71      1.0000 0.57030  0.30870  0.98180  Biso   1.000  C
  C72      1.0000 0.07030  0.80870  0.98180  Biso   1.000  C
  N17      1.0000 0.61340  0.77470  0.51280  Biso   1.000  N
  N18      1.0000 0.11340  0.27470  0.51280  Biso   1.000  N
  N19      1.0000 0.61340  0.22530  0.01280  Biso   1.000  N
  N20      1.0000 0.11340  0.72530  0.01280  Biso   1.000  N
  C73      1.0000 0.66640  0.06290  0.52680  Biso   1.000  C
  C74      1.0000 0.16640  0.56290  0.52680  Biso   1.000  C
  C75      1.0000 0.66640  0.93710  0.02680  Biso   1.000  C
  C76      1.0000 0.16640  0.43710  0.02680  Biso   1.000  C
  C77      1.0000 0.68000  0.24760  0.49550  Biso   1.000  C
  C78      1.0000 0.18000  0.74760  0.49550  Biso   1.000  C
  C79      1.0000 0.68000  0.75240  0.99550  Biso   1.000  C
  C80      1.0000 0.18000  0.25240  0.99550  Biso   1.000  C
  C81      1.0000 0.65570  0.35290  0.42100  Biso   1.000  C
  C82      1.0000 0.15570  0.85290  0.42100  Biso   1.000  C
  C83      1.0000 0.65570  0.64710  0.92100  Biso   1.000  C
  C84      1.0000 0.15570  0.14710  0.92100  Biso   1.000  C
  C85      1.0000 0.61760  0.27350  0.37780  Biso   1.000  C
  C86      1.0000 0.11760  0.77350  0.37780  Biso   1.000  C
  C87      1.0000 0.61760  0.72650  0.87780  Biso   1.000  C
  C88      1.0000 0.11760  0.22650  0.87780  Biso   1.000  C
  C89      1.0000 0.60400  0.08870  0.40920  Biso   1.000  C
  C90      1.0000 0.10400  0.58870  0.40920  Biso   1.000  C
  C91      1.0000 0.60400  0.91130  0.90920  Biso   1.000  C
  C92      1.0000 0.10400  0.41130  0.90920  Biso   1.000  C
  C93      1.0000 0.62830  0.98340  0.48370  Biso   1.000  C
  C94      1.0000 0.12830  0.48340  0.48370  Biso   1.000  C
  C95      1.0000 0.62830  0.01660  0.98370  Biso   1.000  C
  C96      1.0000 0.12830  0.51660  0.98370  Biso   1.000  C
  N21      1.0000 0.63920  0.68260  0.58320  Biso   1.000  N
  N22      1.0000 0.13920  0.18260  0.58320  Biso   1.000  N
  N23      1.0000 0.63920  0.31740  0.08320  Biso   1.000  N
  N24      1.0000 0.13920  0.81740  0.08320  Biso   1.000  N
  C97      1.0000 0.62780  0.54410  0.61990  Biso   1.000  C
  C98      1.0000 0.12780  0.04410  0.61990  Biso   1.000  C
  C99      1.0000 0.62780  0.45590  0.11990  Biso   1.000  C
  C100     1.0000 0.12780  0.95590  0.11990  Biso   1.000  C
  C101     1.0000 0.69550  0.53780  0.73940  Biso   1.000  C
  C102     1.0000 0.19550  0.03780  0.73940  Biso   1.000  C
  C103     1.0000 0.69550  0.46220  0.23940  Biso   1.000  C
  C104     1.0000 0.19550  0.96220  0.23940  Biso   1.000  C
  C105     1.0000 0.72560  0.45420  0.81100  Biso   1.000  C
  C106     1.0000 0.22560  0.95420  0.81100  Biso   1.000  C
  C107     1.0000 0.72560  0.54580  0.31100  Biso   1.000  C
  C108     1.0000 0.22560  0.04580  0.31100  Biso   1.000  C
  C109     1.0000 0.72000  0.25710  0.84790  Biso   1.000  C
  C110     1.0000 0.22000  0.75710  0.84790  Biso   1.000  C
  C111     1.0000 0.72000  0.74290  0.34790  Biso   1.000  C
  C112     1.0000 0.22000  0.24290  0.34790  Biso   1.000  C
  C113     1.0000 0.68450  0.14350  0.81330  Biso   1.000  C
  C114     1.0000 0.18450  0.64350  0.81330  Biso   1.000  C
  C115     1.0000 0.68450  0.85650  0.31330  Biso   1.000  C
  C116     1.0000 0.18450  0.35650  0.31330  Biso   1.000  C
  C117     1.0000 0.65440  0.22700  0.74170  Biso   1.000  C
  C118     1.0000 0.15440  0.72700  0.74170  Biso   1.000  C
  C119     1.0000 0.65440  0.77300  0.24170  Biso   1.000  C
  C120     1.0000 0.15440  0.27300  0.24170  Biso   1.000  C
  C121     1.0000 0.65990  0.42420  0.70480  Biso   1.000  C
  C122     1.0000 0.15990  0.92420  0.70480  Biso   1.000  C
  C123     1.0000 0.65990  0.57580  0.20480  Biso   1.000  C
  C124     1.0000 0.15990  0.07580  0.20480  Biso   1.000  C
  C125     1.0000 0.58660  0.45480  0.60280  Biso   1.000  C
  C126     1.0000 0.08660  0.95480  0.60280  Biso   1.000  C
  C127     1.0000 0.58660  0.54520  0.10280  Biso   1.000  C
  C128     1.0000 0.08660  0.04520  0.10280  Biso   1.000  C
  C129     1.0000 0.55470  0.78530  0.61050  Biso   1.000  C
  C130     1.0000 0.05470  0.28530  0.61050  Biso   1.000  C
  C131     1.0000 0.55470  0.21470  0.11050  Biso   1.000  C
  C132     1.0000 0.05470  0.71470  0.11050  Biso   1.000  C
  O9       1.0000 0.48770  0.80960  0.50990  Biso   1.000  O
  O10      1.0000 0.98770  0.30960  0.50990  Biso   1.000  O
  O11      1.0000 0.48770  0.19040  0.00990  Biso   1.000  O
  O12      1.0000 0.98770  0.69040  0.00990  Biso   1.000  O
  O13      1.0000 0.51510  0.12950  0.57220  Biso   1.000  O
  O14      1.0000 0.01510  0.62950  0.57220  Biso   1.000  O
  O15      1.0000 0.51510  0.87050  0.07220  Biso   1.000  O
  O16      1.0000 0.01510  0.37050  0.07220  Biso   1.000  O
  C133     1.0000 0.51670  0.92140  0.56570  Biso   1.000  C
  C134     1.0000 0.01670  0.42140  0.56570  Biso   1.000  C
  C135     1.0000 0.51670  0.07860  0.06570  Biso   1.000  C
  C136     1.0000 0.01670  0.57860  0.06570  Biso   1.000  C
  O17      1.0000 0.50430  0.47550  0.65840  Biso   1.000  O
  O18      1.0000 0.00430  0.97550  0.65840  Biso   1.000  O
  O19      1.0000 0.50430  0.52450  0.15840  Biso   1.000  O
  O20      1.0000 0.00430  0.02450  0.15840  Biso   1.000  O
  H1       1.0000 0.41400  0.67600  0.44600  Biso   1.000  H
  H2       1.0000 0.91400  0.17600  0.44600  Biso   1.000  H
  H3       1.0000 0.41400  0.32400  0.94600  Biso   1.000  H
  H4       1.0000 0.91400  0.82400  0.94600  Biso   1.000  H
  H5       1.0000 0.41900  0.62700  0.35300  Biso   1.000  H
  H6       1.0000 0.91900  0.12700  0.35300  Biso   1.000  H
  H7       1.0000 0.41900  0.37300  0.85300  Biso   1.000  H
  H8       1.0000 0.91900  0.87300  0.85300  Biso   1.000  H
  H9       1.0000 0.37600  0.81900  0.28500  Biso   1.000  H
  H10      1.0000 0.87600  0.31900  0.28500  Biso   1.000  H
  H11      1.0000 0.37600  0.18100  0.78500  Biso   1.000  H
  H12      1.0000 0.87600  0.68100  0.78500  Biso   1.000  H
  H13      1.0000 0.32700  0.00400  0.17300  Biso   1.000  H
  H14      1.0000 0.82700  0.50400  0.17300  Biso   1.000  H
  H15      1.0000 0.32700  0.99600  0.67300  Biso   1.000  H
  H16      1.0000 0.82700  0.49600  0.67300  Biso   1.000  H
  H17      1.0000 0.26200  0.86000  0.11900  Biso   1.000  H
  H18      1.0000 0.76200  0.36000  0.11900  Biso   1.000  H
  H19      1.0000 0.26200  0.14000  0.61900  Biso   1.000  H
  H20      1.0000 0.76200  0.64000  0.61900  Biso   1.000  H
  H21      1.0000 0.24600  0.53200  0.17600  Biso   1.000  H
  H22      1.0000 0.74600  0.03200  0.17600  Biso   1.000  H
  H23      1.0000 0.24600  0.46800  0.67600  Biso   1.000  H
  H24      1.0000 0.74600  0.96800  0.67600  Biso   1.000  H
  H25      1.0000 0.29500  0.34700  0.28900  Biso   1.000  H
  H26      1.0000 0.79500  0.84700  0.28900  Biso   1.000  H
  H27      1.0000 0.29500  0.65300  0.78900  Biso   1.000  H
  H28      1.0000 0.79500  0.15300  0.78900  Biso   1.000  H
  H29      1.0000 0.32100  0.98200  0.41400  Biso   1.000  H
  H30      1.0000 0.82100  0.48200  0.41400  Biso   1.000  H
  H31      1.0000 0.32100  0.01800  0.91400  Biso   1.000  H
  H32      1.0000 0.82100  0.51800  0.91400  Biso   1.000  H
  H33      1.0000 0.30200  0.65700  0.46800  Biso   1.000  H
  H34      1.0000 0.80200  0.15700  0.46800  Biso   1.000  H
  H35      1.0000 0.30200  0.34300  0.96800  Biso   1.000  H
  H36      1.0000 0.80200  0.84300  0.96800  Biso   1.000  H
  H37      1.0000 0.34300  0.50500  0.60200  Biso   1.000  H
  H38      1.0000 0.84300  0.00500  0.60200  Biso   1.000  H
  H39      1.0000 0.34300  0.49500  0.10200  Biso   1.000  H
  H40      1.0000 0.84300  0.99500  0.10200  Biso   1.000  H
  H41      1.0000 0.40400  0.67900  0.68100  Biso   1.000  H
  H42      1.0000 0.90400  0.17900  0.68100  Biso   1.000  H
  H43      1.0000 0.40400  0.32100  0.18100  Biso   1.000  H
  H44      1.0000 0.90400  0.82100  0.18100  Biso   1.000  H
  H45      1.0000 0.42300  0.00300  0.62600  Biso   1.000  H
  H46      1.0000 0.92300  0.50300  0.62600  Biso   1.000  H
  H47      1.0000 0.42300  0.99700  0.12600  Biso   1.000  H
  H48      1.0000 0.92300  0.49700  0.12600  Biso   1.000  H
  H49      1.0000 0.42400  0.38900  0.56500  Biso   1.000  H
  H50      1.0000 0.92400  0.88900  0.56500  Biso   1.000  H
  H51      1.0000 0.42400  0.61100  0.06500  Biso   1.000  H
  H52      1.0000 0.92400  0.11100  0.06500  Biso   1.000  H
  H53      1.0000 0.44400  0.16800  0.54800  Biso   1.000  H
  H54      1.0000 0.94400  0.66800  0.54800  Biso   1.000  H
  H55      1.0000 0.44400  0.83200  0.04800  Biso   1.000  H
  H56      1.0000 0.94400  0.33200  0.04800  Biso   1.000  H
  H57      1.0000 0.45300  0.08400  0.41500  Biso   1.000  H
  H58      1.0000 0.95300  0.58400  0.41500  Biso   1.000  H
  H59      1.0000 0.45300  0.91600  0.91500  Biso   1.000  H
  H60      1.0000 0.95300  0.41600  0.91500  Biso   1.000  H
  H61      1.0000 0.42000  0.18500  0.33200  Biso   1.000  H
  H62      1.0000 0.92000  0.68500  0.33200  Biso   1.000  H
  H63      1.0000 0.42000  0.81500  0.83200  Biso   1.000  H
  H64      1.0000 0.92000  0.31500  0.83200  Biso   1.000  H
  H65      1.0000 0.57000  0.56500  0.44500  Biso   1.000  H
  H66      1.0000 0.07000  0.06500  0.44500  Biso   1.000  H
  H67      1.0000 0.57000  0.43500  0.94500  Biso   1.000  H
  H68      1.0000 0.07000  0.93500  0.94500  Biso   1.000  H
  H69      1.0000 0.55300  0.80400  0.44700  Biso   1.000  H
  H70      1.0000 0.05300  0.30400  0.44700  Biso   1.000  H
  H71      1.0000 0.55300  0.19600  0.94700  Biso   1.000  H
  H72      1.0000 0.05300  0.69600  0.94700  Biso   1.000  H
  H73      1.0000 0.68300  0.98900  0.57900  Biso   1.000  H
  H74      1.0000 0.18300  0.48900  0.57900  Biso   1.000  H
  H75      1.0000 0.68300  0.01100  0.07900  Biso   1.000  H
  H76      1.0000 0.18300  0.51100  0.07900  Biso   1.000  H
  H77      1.0000 0.70700  0.30300  0.52600  Biso   1.000  H
  H78      1.0000 0.20700  0.80300  0.52600  Biso   1.000  H
  H79      1.0000 0.70700  0.69700  0.02600  Biso   1.000  H
  H80      1.0000 0.20700  0.19700  0.02600  Biso   1.000  H
  H81      1.0000 0.66500  0.48200  0.39900  Biso   1.000  H
  H82      1.0000 0.16500  0.98200  0.39900  Biso   1.000  H
  H83      1.0000 0.66500  0.51800  0.89900  Biso   1.000  H
  H84      1.0000 0.16500  0.01800  0.89900  Biso   1.000  H
  H85      1.0000 0.60100  0.34700  0.32600  Biso   1.000  H
  H86      1.0000 0.10100  0.84700  0.32600  Biso   1.000  H
  H87      1.0000 0.60100  0.65300  0.82600  Biso   1.000  H
  H88      1.0000 0.10100  0.15300  0.82600  Biso   1.000  H
  H89      1.0000 0.57700  0.03300  0.37900  Biso   1.000  H
  H90      1.0000 0.07700  0.53300  0.37900  Biso   1.000  H
  H91      1.0000 0.57700  0.96700  0.87900  Biso   1.000  H
  H92      1.0000 0.07700  0.46700  0.87900  Biso   1.000  H
  H93      1.0000 0.69900  0.67600  0.71400  Biso   1.000  H
  H94      1.0000 0.19900  0.17600  0.71400  Biso   1.000  H
  H95      1.0000 0.69900  0.32400  0.21400  Biso   1.000  H
  H96      1.0000 0.19900  0.82400  0.21400  Biso   1.000  H
  H97      1.0000 0.75000  0.53400  0.83500  Biso   1.000  H
  H98      1.0000 0.25000  0.03400  0.83500  Biso   1.000  H
  H99      1.0000 0.75000  0.46600  0.33500  Biso   1.000  H
  H100     1.0000 0.25000  0.96600  0.33500  Biso   1.000  H
  H101     1.0000 0.74100  0.19900  0.89800  Biso   1.000  H
  H102     1.0000 0.24100  0.69900  0.89800  Biso   1.000  H
  H103     1.0000 0.74100  0.80100  0.39800  Biso   1.000  H
  H104     1.0000 0.24100  0.30100  0.39800  Biso   1.000  H
  H105     1.0000 0.68100  0.00500  0.83900  Biso   1.000  H
  H106     1.0000 0.18100  0.50500  0.83900  Biso   1.000  H
  H107     1.0000 0.68100  0.99500  0.33900  Biso   1.000  H
  H108     1.0000 0.18100  0.49500  0.33900  Biso   1.000  H
  H109     1.0000 0.62900  0.14700  0.71700  Biso   1.000  H
  H110     1.0000 0.12900  0.64700  0.71700  Biso   1.000  H
  H111     1.0000 0.62900  0.85300  0.21700  Biso   1.000  H
  H112     1.0000 0.12900  0.35300  0.21700  Biso   1.000  H
  H113     1.0000 0.57800  0.41900  0.65300  Biso   1.000  H
  H114     1.0000 0.07800  0.91900  0.65300  Biso   1.000  H
  H115     1.0000 0.57800  0.58100  0.15300  Biso   1.000  H
  H116     1.0000 0.07800  0.08100  0.15300  Biso   1.000  H
  H117     1.0000 0.58400  0.32700  0.56600  Biso   1.000  H
  H118     1.0000 0.08400  0.82700  0.56600  Biso   1.000  H
  H119     1.0000 0.58400  0.67300  0.06600  Biso   1.000  H
  H120     1.0000 0.08400  0.17300  0.06600  Biso   1.000  H
  H121     1.0000 0.55300  0.72300  0.66500  Biso   1.000  H
  H122     1.0000 0.05300  0.22300  0.66500  Biso   1.000  H
  H123     1.0000 0.55300  0.27700  0.16500  Biso   1.000  H
  H124     1.0000 0.05300  0.77700  0.16500  Biso   1.000  H
  H125     1.0000 0.57800  0.87900  0.62400  Biso   1.000  H
  H126     1.0000 0.07800  0.37900  0.62400  Biso   1.000  H
  H127     1.0000 0.57800  0.12100  0.12400  Biso   1.000  H
  H128     1.0000 0.07800  0.62100  0.12400  Biso   1.000  H
  O21      1.0000 0.51120  0.86500  0.23600  Biso   1.000  O
  O22      1.0000 0.01120  0.36500  0.23600  Biso   1.000  O
  O23      1.0000 0.51120  0.13500  0.73600  Biso   1.000  O
  O24      1.0000 0.01120  0.63500  0.73600  Biso   1.000  O
  O25      1.0000 0.47630  0.70390  0.25000  Biso   1.000  O
  O26      1.0000 0.97630  0.20390  0.25000  Biso   1.000  O
  O27      1.0000 0.47630  0.29610  0.75000  Biso   1.000  O
  O28      1.0000 0.97630  0.79610  0.75000  Biso   1.000  O
