data_image0
_cell_length_a       16.2826
_cell_length_b       14.985
_cell_length_c       13.402
_cell_angle_alpha    90
_cell_angle_beta     90
_cell_angle_gamma    90

_symmetry_space_group_name_H-M    "P 1"
_symmetry_int_tables_number       1

loop_
  _symmetry_equiv_pos_as_xyz
  'x, y, z'

loop_
  _atom_site_label
  _atom_site_occupancy
  _atom_site_fract_x
  _atom_site_fract_y
  _atom_site_fract_z
  _atom_site_thermal_displace_type
  _atom_site_B_iso_or_equiv
  _atom_site_type_symbol
  Cu1      1.0000 0.74977  0.14995  0.20783  Biso   1.000  Cu
  Cu2      1.0000 0.75023  0.85005  0.70783  Biso   1.000  Cu
  Cu3      1.0000 0.24977  0.35005  0.79217  Biso   1.000  Cu
  Cu4      1.0000 0.25023  0.64995  0.29217  Biso   1.000  Cu
  Cu5      1.0000 0.25023  0.85005  0.79217  Biso   1.000  Cu
  Cu6      1.0000 0.24977  0.14995  0.29217  Biso   1.000  Cu
  Cu7      1.0000 0.75023  0.64995  0.20783  Biso   1.000  Cu
  Cu8      1.0000 0.74977  0.35005  0.70783  Biso   1.000  Cu
  O1       1.0000 0.63600  0.04080  0.21370  Biso   1.000  O
  O2       1.0000 0.86400  0.95920  0.71370  Biso   1.000  O
  O3       1.0000 0.13600  0.45920  0.78630  Biso   1.000  O
  O4       1.0000 0.36400  0.54080  0.28630  Biso   1.000  O
  O5       1.0000 0.36400  0.95920  0.78630  Biso   1.000  O
  O6       1.0000 0.13600  0.04080  0.28630  Biso   1.000  O
  O7       1.0000 0.86400  0.54080  0.21370  Biso   1.000  O
  O8       1.0000 0.63600  0.45920  0.71370  Biso   1.000  O
  O9       1.0000 0.67197  0.13419  0.09440  Biso   1.000  O
  O10      1.0000 0.82803  0.86581  0.59440  Biso   1.000  O
  O11      1.0000 0.17197  0.36581  0.90560  Biso   1.000  O
  O12      1.0000 0.32803  0.63419  0.40560  Biso   1.000  O
  O13      1.0000 0.32803  0.86581  0.90560  Biso   1.000  O
  O14      1.0000 0.17197  0.13419  0.40560  Biso   1.000  O
  O15      1.0000 0.82803  0.63419  0.09440  Biso   1.000  O
  O16      1.0000 0.67197  0.36581  0.59440  Biso   1.000  O
  O17      1.0000 0.53440  0.91310  0.17630  Biso   1.000  O
  O18      1.0000 0.96560  0.08690  0.67630  Biso   1.000  O
  O19      1.0000 0.03440  0.58690  0.82370  Biso   1.000  O
  O20      1.0000 0.46560  0.41310  0.32370  Biso   1.000  O
  O21      1.0000 0.46560  0.08690  0.82370  Biso   1.000  O
  O22      1.0000 0.03440  0.91310  0.32370  Biso   1.000  O
  O23      1.0000 0.96560  0.41310  0.17630  Biso   1.000  O
  O24      1.0000 0.53440  0.58690  0.67630  Biso   1.000  O
  O25      1.0000 0.01350  0.18350  0.00420  Biso   1.000  O
  O26      1.0000 0.48650  0.81650  0.50420  Biso   1.000  O
  O27      1.0000 0.51350  0.31650  0.99580  Biso   1.000  O
  O28      1.0000 0.98650  0.68350  0.49580  Biso   1.000  O
  O29      1.0000 0.98650  0.81650  0.99580  Biso   1.000  O
  O30      1.0000 0.51350  0.18350  0.49580  Biso   1.000  O
  O31      1.0000 0.48650  0.68350  0.00420  Biso   1.000  O
  O32      1.0000 0.01350  0.31650  0.50420  Biso   1.000  O
  O33      1.0000 0.82262  0.05756  0.15380  Biso   1.000  O
  O34      1.0000 0.67738  0.94244  0.65380  Biso   1.000  O
  O35      1.0000 0.32262  0.44244  0.84620  Biso   1.000  O
  O36      1.0000 0.17738  0.55756  0.34620  Biso   1.000  O
  O37      1.0000 0.17738  0.94244  0.84620  Biso   1.000  O
  O38      1.0000 0.32262  0.05756  0.34620  Biso   1.000  O
  O39      1.0000 0.67738  0.55756  0.15380  Biso   1.000  O
  O40      1.0000 0.82262  0.44244  0.65380  Biso   1.000  O
  O41      1.0000 0.87590  0.18420  0.09980  Biso   1.000  O
  O42      1.0000 0.62410  0.81580  0.59980  Biso   1.000  O
  O43      1.0000 0.37590  0.31580  0.90020  Biso   1.000  O
  O44      1.0000 0.12410  0.68420  0.40020  Biso   1.000  O
  O45      1.0000 0.12410  0.81580  0.90020  Biso   1.000  O
  O46      1.0000 0.37590  0.18420  0.40020  Biso   1.000  O
  O47      1.0000 0.62410  0.68420  0.09980  Biso   1.000  O
  O48      1.0000 0.87590  0.31580  0.59980  Biso   1.000  O
  N1       1.0000 0.80150  0.14770  0.34500  Biso   1.000  N
  N2       1.0000 0.69850  0.85230  0.84500  Biso   1.000  N
  N3       1.0000 0.30150  0.35230  0.65500  Biso   1.000  N
  N4       1.0000 0.19850  0.64770  0.15500  Biso   1.000  N
  N5       1.0000 0.19850  0.85230  0.65500  Biso   1.000  N
  N6       1.0000 0.30150  0.14770  0.15500  Biso   1.000  N
  N7       1.0000 0.69850  0.64770  0.34500  Biso   1.000  N
  N8       1.0000 0.80150  0.35230  0.84500  Biso   1.000  N
  N9       1.0000 0.70270  0.26870  0.24810  Biso   1.000  N
  N10      1.0000 0.79730  0.73130  0.74810  Biso   1.000  N
  N11      1.0000 0.20270  0.23130  0.75190  Biso   1.000  N
  N12      1.0000 0.29730  0.76870  0.25190  Biso   1.000  N
  N13      1.0000 0.29730  0.73130  0.75190  Biso   1.000  N
  N14      1.0000 0.20270  0.26870  0.25190  Biso   1.000  N
  N15      1.0000 0.79730  0.76870  0.24810  Biso   1.000  N
  N16      1.0000 0.70270  0.23130  0.74810  Biso   1.000  N
  C1       1.0000 0.62670  0.07190  0.12770  Biso   1.000  C
  C2       1.0000 0.87330  0.92810  0.62770  Biso   1.000  C
  C3       1.0000 0.12670  0.42810  0.87230  Biso   1.000  C
  C4       1.0000 0.37330  0.57190  0.37230  Biso   1.000  C
  C5       1.0000 0.37330  0.92810  0.87230  Biso   1.000  C
  C6       1.0000 0.12670  0.07190  0.37230  Biso   1.000  C
  C7       1.0000 0.87330  0.57190  0.12770  Biso   1.000  C
  C8       1.0000 0.62670  0.42810  0.62770  Biso   1.000  C
  C9       1.0000 0.56130  0.03460  0.06230  Biso   1.000  C
  C10      1.0000 0.93870  0.96540  0.56230  Biso   1.000  C
  C11      1.0000 0.06130  0.46540  0.93770  Biso   1.000  C
  C12      1.0000 0.43870  0.53460  0.43770  Biso   1.000  C
  C13      1.0000 0.43870  0.96540  0.93770  Biso   1.000  C
  C14      1.0000 0.06130  0.03460  0.43770  Biso   1.000  C
  C15      1.0000 0.93870  0.53460  0.06230  Biso   1.000  C
  C16      1.0000 0.56130  0.46540  0.56230  Biso   1.000  C
  C17      1.0000 0.51880  0.95720  0.08960  Biso   1.000  C
  C18      1.0000 0.98120  0.04280  0.58960  Biso   1.000  C
  C19      1.0000 0.01880  0.54280  0.91040  Biso   1.000  C
  C20      1.0000 0.48120  0.45720  0.41040  Biso   1.000  C
  C21      1.0000 0.48120  0.04280  0.91040  Biso   1.000  C
  C22      1.0000 0.01880  0.95720  0.41040  Biso   1.000  C
  C23      1.0000 0.98120  0.45720  0.08960  Biso   1.000  C
  C24      1.0000 0.51880  0.54280  0.58960  Biso   1.000  C
  C25      1.0000 0.54070  0.07680  0.97320  Biso   1.000  C
  C26      1.0000 0.95930  0.92320  0.47320  Biso   1.000  C
  C27      1.0000 0.04070  0.42320  0.02680  Biso   1.000  C
  C28      1.0000 0.45930  0.57680  0.52680  Biso   1.000  C
  C29      1.0000 0.45930  0.92320  0.02680  Biso   1.000  C
  C30      1.0000 0.04070  0.07680  0.52680  Biso   1.000  C
  C31      1.0000 0.95930  0.57680  0.97320  Biso   1.000  C
  C32      1.0000 0.54070  0.42320  0.47320  Biso   1.000  C
  C33      1.0000 0.93670  0.95680  0.04630  Biso   1.000  C
  C34      1.0000 0.56330  0.04320  0.54630  Biso   1.000  C
  C35      1.0000 0.43670  0.54320  0.95370  Biso   1.000  C
  C36      1.0000 0.06330  0.45680  0.45370  Biso   1.000  C
  C37      1.0000 0.06330  0.04320  0.95370  Biso   1.000  C
  C38      1.0000 0.43670  0.95680  0.45370  Biso   1.000  C
  C39      1.0000 0.56330  0.45680  0.04630  Biso   1.000  C
  C40      1.0000 0.93670  0.54320  0.54630  Biso   1.000  C
  C41      1.0000 0.00510  0.09260  0.00290  Biso   1.000  C
  C42      1.0000 0.49490  0.90740  0.50290  Biso   1.000  C
  C43      1.0000 0.50510  0.40740  0.99710  Biso   1.000  C
  C44      1.0000 0.99490  0.59260  0.49710  Biso   1.000  C
  C45      1.0000 0.99490  0.90740  0.99710  Biso   1.000  C
  C46      1.0000 0.50510  0.09260  0.49710  Biso   1.000  C
  C47      1.0000 0.49490  0.59260  0.00290  Biso   1.000  C
  C48      1.0000 0.00510  0.40740  0.50290  Biso   1.000  C
  C49      1.0000 0.94050  0.04980  0.04970  Biso   1.000  C
  C50      1.0000 0.55950  0.95020  0.54970  Biso   1.000  C
  C51      1.0000 0.44050  0.45020  0.95030  Biso   1.000  C
  C52      1.0000 0.05950  0.54980  0.45030  Biso   1.000  C
  C53      1.0000 0.05950  0.95020  0.95030  Biso   1.000  C
  C54      1.0000 0.44050  0.04980  0.45030  Biso   1.000  C
  C55      1.0000 0.55950  0.54980  0.04970  Biso   1.000  C
  C56      1.0000 0.94050  0.45020  0.54970  Biso   1.000  C
  C57      1.0000 0.87550  0.10040  0.10380  Biso   1.000  C
  C58      1.0000 0.62450  0.89960  0.60380  Biso   1.000  C
  C59      1.0000 0.37550  0.39960  0.89620  Biso   1.000  C
  C60      1.0000 0.12450  0.60040  0.39620  Biso   1.000  C
  C61      1.0000 0.12450  0.89960  0.89620  Biso   1.000  C
  C62      1.0000 0.37550  0.10040  0.39620  Biso   1.000  C
  C63      1.0000 0.62450  0.60040  0.10380  Biso   1.000  C
  C64      1.0000 0.87550  0.39960  0.60380  Biso   1.000  C
  C65      1.0000 0.73360  0.28480  0.34920  Biso   1.000  C
  C66      1.0000 0.76640  0.71520  0.84920  Biso   1.000  C
  C67      1.0000 0.23360  0.21520  0.65080  Biso   1.000  C
  C68      1.0000 0.26640  0.78480  0.15080  Biso   1.000  C
  C69      1.0000 0.26640  0.71520  0.65080  Biso   1.000  C
  C70      1.0000 0.23360  0.28480  0.15080  Biso   1.000  C
  C71      1.0000 0.76640  0.78480  0.34920  Biso   1.000  C
  C72      1.0000 0.73360  0.21520  0.84920  Biso   1.000  C
  C73      1.0000 0.76810  0.22510  0.39530  Biso   1.000  C
  C74      1.0000 0.73190  0.77490  0.89530  Biso   1.000  C
  C75      1.0000 0.26810  0.27490  0.60470  Biso   1.000  C
  C76      1.0000 0.23190  0.72510  0.10470  Biso   1.000  C
  C77      1.0000 0.23190  0.77490  0.60470  Biso   1.000  C
  C78      1.0000 0.26810  0.22510  0.10470  Biso   1.000  C
  C79      1.0000 0.73190  0.72510  0.39530  Biso   1.000  C
  C80      1.0000 0.76810  0.27490  0.89530  Biso   1.000  C
  C81      1.0000 0.73580  0.33550  0.17630  Biso   1.000  C
  C82      1.0000 0.76420  0.66450  0.67630  Biso   1.000  C
  C83      1.0000 0.23580  0.16450  0.82370  Biso   1.000  C
  C84      1.0000 0.26420  0.83550  0.32370  Biso   1.000  C
  C85      1.0000 0.26420  0.66450  0.82370  Biso   1.000  C
  C86      1.0000 0.23580  0.33550  0.32370  Biso   1.000  C
  C87      1.0000 0.76420  0.83550  0.17630  Biso   1.000  C
  C88      1.0000 0.73580  0.16450  0.67630  Biso   1.000  C
  C89      1.0000 0.61290  0.27250  0.24660  Biso   1.000  C
  C90      1.0000 0.88710  0.72750  0.74660  Biso   1.000  C
  C91      1.0000 0.11290  0.22750  0.75340  Biso   1.000  C
  C92      1.0000 0.38710  0.77250  0.25340  Biso   1.000  C
  C93      1.0000 0.38710  0.72750  0.75340  Biso   1.000  C
  C94      1.0000 0.11290  0.27250  0.25340  Biso   1.000  C
  C95      1.0000 0.88710  0.77250  0.24660  Biso   1.000  C
  C96      1.0000 0.61290  0.22750  0.74660  Biso   1.000  C
  C97      1.0000 0.89060  0.15350  0.34430  Biso   1.000  C
  C98      1.0000 0.60940  0.84650  0.84430  Biso   1.000  C
  C99      1.0000 0.39060  0.34650  0.65570  Biso   1.000  C
  C100     1.0000 0.10940  0.65350  0.15570  Biso   1.000  C
  C101     1.0000 0.10940  0.84650  0.65570  Biso   1.000  C
  C102     1.0000 0.39060  0.15350  0.15570  Biso   1.000  C
  C103     1.0000 0.60940  0.65350  0.34430  Biso   1.000  C
  C104     1.0000 0.89060  0.34650  0.84430  Biso   1.000  C
  C105     1.0000 0.77570  0.06420  0.39600  Biso   1.000  C
  C106     1.0000 0.72430  0.93580  0.89600  Biso   1.000  C
  C107     1.0000 0.27570  0.43580  0.60400  Biso   1.000  C
  C108     1.0000 0.22430  0.56420  0.10400  Biso   1.000  C
  C109     1.0000 0.22430  0.93580  0.60400  Biso   1.000  C
  C110     1.0000 0.27570  0.06420  0.10400  Biso   1.000  C
  C111     1.0000 0.72430  0.56420  0.39600  Biso   1.000  C
  C112     1.0000 0.77570  0.43580  0.89600  Biso   1.000  C
  H1       1.0000 0.56900  0.12700  0.95600  Biso   1.000  H
  H2       1.0000 0.93100  0.87300  0.45600  Biso   1.000  H
  H3       1.0000 0.06900  0.37300  0.04400  Biso   1.000  H
  H4       1.0000 0.43100  0.62700  0.54400  Biso   1.000  H
  H5       1.0000 0.43100  0.87300  0.04400  Biso   1.000  H
  H6       1.0000 0.06900  0.12700  0.54400  Biso   1.000  H
  H7       1.0000 0.93100  0.62700  0.95600  Biso   1.000  H
  H8       1.0000 0.56900  0.37300  0.45600  Biso   1.000  H
  H9       1.0000 0.88700  0.92700  0.07700  Biso   1.000  H
  H10      1.0000 0.61300  0.07300  0.57700  Biso   1.000  H
  H11      1.0000 0.38700  0.57300  0.92300  Biso   1.000  H
  H12      1.0000 0.11300  0.42700  0.42300  Biso   1.000  H
  H13      1.0000 0.11300  0.07300  0.92300  Biso   1.000  H
  H14      1.0000 0.38700  0.92700  0.42300  Biso   1.000  H
  H15      1.0000 0.61300  0.42700  0.07700  Biso   1.000  H
  H16      1.0000 0.88700  0.57300  0.57700  Biso   1.000  H
  H17      1.0000 0.56700  0.94500  0.20100  Biso   1.000  H
  H18      1.0000 0.93300  0.05500  0.70100  Biso   1.000  H
  H19      1.0000 0.06700  0.55500  0.79900  Biso   1.000  H
  H20      1.0000 0.43300  0.44500  0.29900  Biso   1.000  H
  H21      1.0000 0.43300  0.05500  0.79900  Biso   1.000  H
  H22      1.0000 0.06700  0.94500  0.29900  Biso   1.000  H
  H23      1.0000 0.93300  0.44500  0.20100  Biso   1.000  H
  H24      1.0000 0.56700  0.55500  0.70100  Biso   1.000  H
  H25      1.0000 0.98100  0.19700  0.04400  Biso   1.000  H
  H26      1.0000 0.51900  0.80300  0.54400  Biso   1.000  H
  H27      1.0000 0.48100  0.30300  0.95600  Biso   1.000  H
  H28      1.0000 0.01900  0.69700  0.45600  Biso   1.000  H
  H29      1.0000 0.01900  0.80300  0.95600  Biso   1.000  H
  H30      1.0000 0.48100  0.19700  0.45600  Biso   1.000  H
  H31      1.0000 0.51900  0.69700  0.04400  Biso   1.000  H
  H32      1.0000 0.98100  0.30300  0.54400  Biso   1.000  H
  H33      1.0000 0.68870  0.30820  0.38910  Biso   1.000  H
  H34      1.0000 0.81130  0.69180  0.88910  Biso   1.000  H
  H35      1.0000 0.18870  0.19180  0.61090  Biso   1.000  H
  H36      1.0000 0.31130  0.80820  0.11090  Biso   1.000  H
  H37      1.0000 0.31130  0.69180  0.61090  Biso   1.000  H
  H38      1.0000 0.18870  0.30820  0.11090  Biso   1.000  H
  H39      1.0000 0.81130  0.80820  0.38910  Biso   1.000  H
  H40      1.0000 0.68870  0.19180  0.88910  Biso   1.000  H
  H41      1.0000 0.77380  0.33440  0.34430  Biso   1.000  H
  H42      1.0000 0.72620  0.66560  0.84430  Biso   1.000  H
  H43      1.0000 0.27380  0.16560  0.65570  Biso   1.000  H
  H44      1.0000 0.22620  0.83440  0.15570  Biso   1.000  H
  H45      1.0000 0.22620  0.66560  0.65570  Biso   1.000  H
  H46      1.0000 0.27380  0.33440  0.15570  Biso   1.000  H
  H47      1.0000 0.72620  0.83440  0.34430  Biso   1.000  H
  H48      1.0000 0.77380  0.16560  0.84430  Biso   1.000  H
  H49      1.0000 0.72680  0.20250  0.44380  Biso   1.000  H
  H50      1.0000 0.77320  0.79750  0.94380  Biso   1.000  H
  H51      1.0000 0.22680  0.29750  0.55620  Biso   1.000  H
  H52      1.0000 0.27320  0.70250  0.05620  Biso   1.000  H
  H53      1.0000 0.27320  0.79750  0.55620  Biso   1.000  H
  H54      1.0000 0.22680  0.20250  0.05620  Biso   1.000  H
  H55      1.0000 0.77320  0.70250  0.44380  Biso   1.000  H
  H56      1.0000 0.72680  0.29750  0.94380  Biso   1.000  H
  H57      1.0000 0.81110  0.25100  0.43580  Biso   1.000  H
  H58      1.0000 0.68890  0.74900  0.93580  Biso   1.000  H
  H59      1.0000 0.31110  0.24900  0.56420  Biso   1.000  H
  H60      1.0000 0.18890  0.75100  0.06420  Biso   1.000  H
  H61      1.0000 0.18890  0.74900  0.56420  Biso   1.000  H
  H62      1.0000 0.31110  0.25100  0.06420  Biso   1.000  H
  H63      1.0000 0.68890  0.75100  0.43580  Biso   1.000  H
  H64      1.0000 0.81110  0.24900  0.93580  Biso   1.000  H
  H65      1.0000 0.71400  0.31800  0.11700  Biso   1.000  H
  H66      1.0000 0.78600  0.68200  0.61700  Biso   1.000  H
  H67      1.0000 0.21400  0.18200  0.88300  Biso   1.000  H
  H68      1.0000 0.28600  0.81800  0.38300  Biso   1.000  H
  H69      1.0000 0.28600  0.68200  0.88300  Biso   1.000  H
  H70      1.0000 0.21400  0.31800  0.38300  Biso   1.000  H
  H71      1.0000 0.78600  0.81800  0.11700  Biso   1.000  H
  H72      1.0000 0.71400  0.18200  0.61700  Biso   1.000  H
  H73      1.0000 0.80400  0.32600  0.17200  Biso   1.000  H
  H74      1.0000 0.69600  0.67400  0.67200  Biso   1.000  H
  H75      1.0000 0.30400  0.17400  0.82800  Biso   1.000  H
  H76      1.0000 0.19600  0.82600  0.32800  Biso   1.000  H
  H77      1.0000 0.19600  0.67400  0.82800  Biso   1.000  H
  H78      1.0000 0.30400  0.32600  0.32800  Biso   1.000  H
  H79      1.0000 0.69600  0.82600  0.17200  Biso   1.000  H
  H80      1.0000 0.80400  0.17400  0.67200  Biso   1.000  H
  H81      1.0000 0.71200  0.39100  0.18700  Biso   1.000  H
  H82      1.0000 0.78800  0.60900  0.68700  Biso   1.000  H
  H83      1.0000 0.21200  0.10900  0.81300  Biso   1.000  H
  H84      1.0000 0.28800  0.89100  0.31300  Biso   1.000  H
  H85      1.0000 0.28800  0.60900  0.81300  Biso   1.000  H
  H86      1.0000 0.21200  0.39100  0.31300  Biso   1.000  H
  H87      1.0000 0.78800  0.89100  0.18700  Biso   1.000  H
  H88      1.0000 0.71200  0.10900  0.68700  Biso   1.000  H
  H89      1.0000 0.59200  0.26600  0.17600  Biso   1.000  H
  H90      1.0000 0.90800  0.73400  0.67600  Biso   1.000  H
  H91      1.0000 0.09200  0.23400  0.82400  Biso   1.000  H
  H92      1.0000 0.40800  0.76600  0.32400  Biso   1.000  H
  H93      1.0000 0.40800  0.73400  0.82400  Biso   1.000  H
  H94      1.0000 0.09200  0.26600  0.32400  Biso   1.000  H
  H95      1.0000 0.90800  0.76600  0.17600  Biso   1.000  H
  H96      1.0000 0.59200  0.23400  0.67600  Biso   1.000  H
  H97      1.0000 0.59100  0.32900  0.26500  Biso   1.000  H
  H98      1.0000 0.90900  0.67100  0.76500  Biso   1.000  H
  H99      1.0000 0.09100  0.17100  0.73500  Biso   1.000  H
  H100     1.0000 0.40900  0.82900  0.23500  Biso   1.000  H
  H101     1.0000 0.40900  0.67100  0.73500  Biso   1.000  H
  H102     1.0000 0.09100  0.32900  0.23500  Biso   1.000  H
  H103     1.0000 0.90900  0.82900  0.26500  Biso   1.000  H
  H104     1.0000 0.59100  0.17100  0.76500  Biso   1.000  H
  H105     1.0000 0.58800  0.22600  0.28500  Biso   1.000  H
  H106     1.0000 0.91200  0.77400  0.78500  Biso   1.000  H
  H107     1.0000 0.08800  0.27400  0.71500  Biso   1.000  H
  H108     1.0000 0.41200  0.72600  0.21500  Biso   1.000  H
  H109     1.0000 0.41200  0.77400  0.71500  Biso   1.000  H
  H110     1.0000 0.08800  0.22600  0.21500  Biso   1.000  H
  H111     1.0000 0.91200  0.72600  0.28500  Biso   1.000  H
  H112     1.0000 0.58800  0.27400  0.78500  Biso   1.000  H
  H113     1.0000 0.92000  0.19300  0.29600  Biso   1.000  H
  H114     1.0000 0.58000  0.80700  0.79600  Biso   1.000  H
  H115     1.0000 0.42000  0.30700  0.70400  Biso   1.000  H
  H116     1.0000 0.08000  0.69300  0.20400  Biso   1.000  H
  H117     1.0000 0.08000  0.80700  0.70400  Biso   1.000  H
  H118     1.0000 0.42000  0.19300  0.20400  Biso   1.000  H
  H119     1.0000 0.58000  0.69300  0.29600  Biso   1.000  H
  H120     1.0000 0.92000  0.30700  0.79600  Biso   1.000  H
  H121     1.0000 0.90800  0.10100  0.30800  Biso   1.000  H
  H122     1.0000 0.59200  0.89900  0.80800  Biso   1.000  H
  H123     1.0000 0.40800  0.39900  0.69200  Biso   1.000  H
  H124     1.0000 0.09200  0.60100  0.19200  Biso   1.000  H
  H125     1.0000 0.09200  0.89900  0.69200  Biso   1.000  H
  H126     1.0000 0.40800  0.10100  0.19200  Biso   1.000  H
  H127     1.0000 0.59200  0.60100  0.30800  Biso   1.000  H
  H128     1.0000 0.90800  0.39900  0.80800  Biso   1.000  H
  H129     1.0000 0.90500  0.15100  0.40200  Biso   1.000  H
  H130     1.0000 0.59500  0.84900  0.90200  Biso   1.000  H
  H131     1.0000 0.40500  0.34900  0.59800  Biso   1.000  H
  H132     1.0000 0.09500  0.65100  0.09800  Biso   1.000  H
  H133     1.0000 0.09500  0.84900  0.59800  Biso   1.000  H
  H134     1.0000 0.40500  0.15100  0.09800  Biso   1.000  H
  H135     1.0000 0.59500  0.65100  0.40200  Biso   1.000  H
  H136     1.0000 0.90500  0.34900  0.90200  Biso   1.000  H
  H137     1.0000 0.80000  0.02600  0.36800  Biso   1.000  H
  H138     1.0000 0.70000  0.97400  0.86800  Biso   1.000  H
  H139     1.0000 0.30000  0.47400  0.63200  Biso   1.000  H
  H140     1.0000 0.20000  0.52600  0.13200  Biso   1.000  H
  H141     1.0000 0.20000  0.97400  0.63200  Biso   1.000  H
  H142     1.0000 0.30000  0.02600  0.13200  Biso   1.000  H
  H143     1.0000 0.70000  0.52600  0.36800  Biso   1.000  H
  H144     1.0000 0.80000  0.47400  0.86800  Biso   1.000  H
  H145     1.0000 0.71900  0.06900  0.39900  Biso   1.000  H
  H146     1.0000 0.78100  0.93100  0.89900  Biso   1.000  H
  H147     1.0000 0.21900  0.43100  0.60100  Biso   1.000  H
  H148     1.0000 0.28100  0.56900  0.10100  Biso   1.000  H
  H149     1.0000 0.28100  0.93100  0.60100  Biso   1.000  H
  H150     1.0000 0.21900  0.06900  0.10100  Biso   1.000  H
  H151     1.0000 0.78100  0.56900  0.39900  Biso   1.000  H
  H152     1.0000 0.71900  0.43100  0.89900  Biso   1.000  H
  H153     1.0000 0.78800  0.07000  0.46800  Biso   1.000  H
  H154     1.0000 0.71200  0.93000  0.96800  Biso   1.000  H
  H155     1.0000 0.28800  0.43000  0.53200  Biso   1.000  H
  H156     1.0000 0.21200  0.57000  0.03200  Biso   1.000  H
  H157     1.0000 0.21200  0.93000  0.53200  Biso   1.000  H
  H158     1.0000 0.28800  0.07000  0.03200  Biso   1.000  H
  H159     1.0000 0.71200  0.57000  0.46800  Biso   1.000  H
  H160     1.0000 0.78800  0.43000  0.96800  Biso   1.000  H
