data_image0
_cell_length_a       10.46
_cell_length_b       18.612
_cell_length_c       7.631
_cell_angle_alpha    90
_cell_angle_beta     103.95
_cell_angle_gamma    90

_symmetry_space_group_name_H-M    "P 1"
_symmetry_int_tables_number       1

loop_
  _symmetry_equiv_pos_as_xyz
  'x, y, z'

loop_
  _atom_site_label
  _atom_site_occupancy
  _atom_site_fract_x
  _atom_site_fract_y
  _atom_site_fract_z
  _atom_site_thermal_displace_type
  _atom_site_B_iso_or_equiv
  _atom_site_type_symbol
  Cu1      1.0000 0.38236  0.91673  0.84508  Biso   1.000  Cu
  Cu2      1.0000 0.61764  0.41673  0.65492  Biso   1.000  Cu
  Cu3      1.0000 0.61764  0.08327  0.15492  Biso   1.000  Cu
  Cu4      1.0000 0.38236  0.58327  0.34508  Biso   1.000  Cu
  N1       1.0000 0.55960  0.87061  0.91130  Biso   1.000  N
  N2       1.0000 0.44040  0.37061  0.58870  Biso   1.000  N
  N3       1.0000 0.44040  0.12939  0.08870  Biso   1.000  N
  N4       1.0000 0.55960  0.62939  0.41130  Biso   1.000  N
  C1       1.0000 0.59090  0.80736  0.99490  Biso   1.000  C
  C2       1.0000 0.40910  0.30736  0.50510  Biso   1.000  C
  C3       1.0000 0.40910  0.19264  0.00510  Biso   1.000  C
  C4       1.0000 0.59090  0.69264  0.49490  Biso   1.000  C
  H1       1.0000 0.52620  0.78170  0.03800  Biso   1.000  H
  H2       1.0000 0.47380  0.28170  0.46200  Biso   1.000  H
  H3       1.0000 0.47380  0.21830  0.96200  Biso   1.000  H
  H4       1.0000 0.52620  0.71830  0.53800  Biso   1.000  H
  C5       1.0000 0.71580  0.77913  0.01900  Biso   1.000  C
  C6       1.0000 0.28420  0.27913  0.48100  Biso   1.000  C
  C7       1.0000 0.28420  0.22087  0.98100  Biso   1.000  C
  C8       1.0000 0.71580  0.72087  0.51900  Biso   1.000  C
  H5       1.0000 0.73750  0.73500  0.08170  Biso   1.000  H
  H6       1.0000 0.26250  0.23500  0.41830  Biso   1.000  H
  H7       1.0000 0.26250  0.26500  0.91830  Biso   1.000  H
  H8       1.0000 0.73750  0.76500  0.58170  Biso   1.000  H
  C9       1.0000 0.80810  0.81460  0.95270  Biso   1.000  C
  C10      1.0000 0.19190  0.31460  0.54730  Biso   1.000  C
  C11      1.0000 0.19190  0.18540  0.04730  Biso   1.000  C
  C12      1.0000 0.80810  0.68540  0.45270  Biso   1.000  C
  H9       1.0000 0.89400  0.79510  0.96750  Biso   1.000  H
  H10      1.0000 0.10600  0.29510  0.53250  Biso   1.000  H
  H11      1.0000 0.10600  0.20490  0.03250  Biso   1.000  H
  H12      1.0000 0.89400  0.70490  0.46750  Biso   1.000  H
  C13      1.0000 0.77550  0.87900  0.86390  Biso   1.000  C
  C14      1.0000 0.22450  0.37900  0.63610  Biso   1.000  C
  C15      1.0000 0.22450  0.12100  0.13610  Biso   1.000  C
  C16      1.0000 0.77550  0.62100  0.36390  Biso   1.000  C
  H13      1.0000 0.83790  0.90420  0.81510  Biso   1.000  H
  H14      1.0000 0.16210  0.40420  0.68490  Biso   1.000  H
  H15      1.0000 0.16210  0.09580  0.18490  Biso   1.000  H
  H16      1.0000 0.83790  0.59580  0.31510  Biso   1.000  H
  C17      1.0000 0.65080  0.90607  0.84750  Biso   1.000  C
  C18      1.0000 0.34920  0.40607  0.65250  Biso   1.000  C
  C19      1.0000 0.34920  0.09393  0.15250  Biso   1.000  C
  C20      1.0000 0.65080  0.59393  0.34750  Biso   1.000  C
  C21      1.0000 0.60830  0.97730  0.75690  Biso   1.000  C
  C22      1.0000 0.39170  0.47730  0.74310  Biso   1.000  C
  C23      1.0000 0.39170  0.02270  0.24310  Biso   1.000  C
  C24      1.0000 0.60830  0.52270  0.25690  Biso   1.000  C
  O1       1.0000 0.68585  0.01323  0.69740  Biso   1.000  O
  O2       1.0000 0.31415  0.51323  0.80260  Biso   1.000  O
  O3       1.0000 0.31415  0.98677  0.30260  Biso   1.000  O
  O4       1.0000 0.68585  0.48677  0.19740  Biso   1.000  O
  N5       1.0000 0.47997  0.99144  0.75650  Biso   1.000  N
  N6       1.0000 0.52003  0.49144  0.74350  Biso   1.000  N
  N7       1.0000 0.52003  0.00856  0.24350  Biso   1.000  N
  N8       1.0000 0.47997  0.50856  0.25650  Biso   1.000  N
  C25      1.0000 0.41140  0.05068  0.68100  Biso   1.000  C
  C26      1.0000 0.58860  0.55068  0.81900  Biso   1.000  C
  C27      1.0000 0.58860  0.94932  0.31900  Biso   1.000  C
  C28      1.0000 0.41140  0.44932  0.18100  Biso   1.000  C
  O5       1.0000 0.45043  0.10317  0.61350  Biso   1.000  O
  O6       1.0000 0.54957  0.60317  0.88650  Biso   1.000  O
  O7       1.0000 0.54957  0.89683  0.38650  Biso   1.000  O
  O8       1.0000 0.45043  0.39683  0.11350  Biso   1.000  O
  C29      1.0000 0.26830  0.04553  0.69100  Biso   1.000  C
  C30      1.0000 0.73170  0.54553  0.80900  Biso   1.000  C
  C31      1.0000 0.73170  0.95447  0.30900  Biso   1.000  C
  C32      1.0000 0.26830  0.45447  0.19100  Biso   1.000  C
  C33      1.0000 0.17800  0.09762  0.61720  Biso   1.000  C
  C34      1.0000 0.82200  0.59762  0.88280  Biso   1.000  C
  C35      1.0000 0.82200  0.90238  0.38280  Biso   1.000  C
  C36      1.0000 0.17800  0.40238  0.11720  Biso   1.000  C
  H17      1.0000 0.20310  0.13780  0.55640  Biso   1.000  H
  H18      1.0000 0.79690  0.63780  0.94360  Biso   1.000  H
  H19      1.0000 0.79690  0.86220  0.44360  Biso   1.000  H
  H20      1.0000 0.20310  0.36220  0.05640  Biso   1.000  H
  C37      1.0000 0.05020  0.09012  0.63350  Biso   1.000  C
  C38      1.0000 0.94980  0.59012  0.86650  Biso   1.000  C
  C39      1.0000 0.94980  0.90988  0.36650  Biso   1.000  C
  C40      1.0000 0.05020  0.40988  0.13350  Biso   1.000  C
  H21      1.0000 0.98590  0.12520  0.58260  Biso   1.000  H
  H22      1.0000 0.01410  0.62520  0.91740  Biso   1.000  H
  H23      1.0000 0.01410  0.87480  0.41740  Biso   1.000  H
  H24      1.0000 0.98590  0.37480  0.08260  Biso   1.000  H
  C41      1.0000 0.01570  0.03230  0.72270  Biso   1.000  C
  C42      1.0000 0.98430  0.53230  0.77730  Biso   1.000  C
  C43      1.0000 0.98430  0.96770  0.27730  Biso   1.000  C
  C44      1.0000 0.01570  0.46770  0.22270  Biso   1.000  C
  H25      1.0000 0.92840  0.02720  0.73710  Biso   1.000  H
  H26      1.0000 0.07160  0.52720  0.76290  Biso   1.000  H
  H27      1.0000 0.07160  0.97280  0.26290  Biso   1.000  H
  H28      1.0000 0.92840  0.47280  0.23710  Biso   1.000  H
  C45      1.0000 0.11110  0.98153  0.79150  Biso   1.000  C
  C46      1.0000 0.88890  0.48153  0.70850  Biso   1.000  C
  C47      1.0000 0.88890  0.01847  0.20850  Biso   1.000  C
  C48      1.0000 0.11110  0.51847  0.29150  Biso   1.000  C
  H29      1.0000 0.08770  0.94080  0.85220  Biso   1.000  H
  H30      1.0000 0.91230  0.44080  0.64780  Biso   1.000  H
  H31      1.0000 0.91230  0.05920  0.14780  Biso   1.000  H
  H32      1.0000 0.08770  0.55920  0.35220  Biso   1.000  H
  N9       1.0000 0.23537  0.98780  0.77560  Biso   1.000  N
  N10      1.0000 0.76463  0.48780  0.72440  Biso   1.000  N
  N11      1.0000 0.76463  0.01220  0.22440  Biso   1.000  N
  N12      1.0000 0.23537  0.51220  0.27560  Biso   1.000  N
  N13      1.0000 0.30750  0.86138  0.01680  Biso   1.000  N
  N14      1.0000 0.69250  0.36138  0.48320  Biso   1.000  N
  N15      1.0000 0.69250  0.13862  0.98320  Biso   1.000  N
  N16      1.0000 0.30750  0.63862  0.51680  Biso   1.000  N
  C49      1.0000 0.27270  0.83806  0.13680  Biso   1.000  C
  C50      1.0000 0.72730  0.33806  0.36320  Biso   1.000  C
  C51      1.0000 0.72730  0.16194  0.86320  Biso   1.000  C
  C52      1.0000 0.27270  0.66194  0.63680  Biso   1.000  C
  C53      1.0000 0.22680  0.80904  0.27820  Biso   1.000  C
  C54      1.0000 0.77320  0.30904  0.22180  Biso   1.000  C
  C55      1.0000 0.77320  0.19096  0.72180  Biso   1.000  C
  C56      1.0000 0.22680  0.69096  0.77820  Biso   1.000  C
  C57      1.0000 0.28060  0.83204  0.45650  Biso   1.000  C
  C58      1.0000 0.71940  0.33204  0.04350  Biso   1.000  C
  C59      1.0000 0.71940  0.16796  0.54350  Biso   1.000  C
  C60      1.0000 0.28060  0.66796  0.95650  Biso   1.000  C
  N17      1.0000 0.31900  0.84895  0.60290  Biso   1.000  N
  N18      1.0000 0.68100  0.34895  0.89710  Biso   1.000  N
  N19      1.0000 0.68100  0.15105  0.39710  Biso   1.000  N
  N20      1.0000 0.31900  0.65105  0.10290  Biso   1.000  N
  C61      1.0000 0.12600  0.75668  0.24620  Biso   1.000  C
  C62      1.0000 0.87400  0.25668  0.25380  Biso   1.000  C
  C63      1.0000 0.87400  0.24332  0.75380  Biso   1.000  C
  C64      1.0000 0.12600  0.74332  0.74620  Biso   1.000  C
  N21      1.0000 0.04270  0.71492  0.22080  Biso   1.000  N
  N22      1.0000 0.95730  0.21492  0.27920  Biso   1.000  N
  N23      1.0000 0.95730  0.28508  0.77920  Biso   1.000  N
  N24      1.0000 0.04270  0.78508  0.72080  Biso   1.000  N
