data_image0
_cell_length_a       13.9591
_cell_length_b       17.216
_cell_length_c       12.5358
_cell_angle_alpha    90
_cell_angle_beta     115.084
_cell_angle_gamma    90

_symmetry_space_group_name_H-M    "P 1"
_symmetry_int_tables_number       1

loop_
  _symmetry_equiv_pos_as_xyz
  'x, y, z'

loop_
  _atom_site_label
  _atom_site_occupancy
  _atom_site_fract_x
  _atom_site_fract_y
  _atom_site_fract_z
  _atom_site_thermal_displace_type
  _atom_site_B_iso_or_equiv
  _atom_site_type_symbol
  C1       1.0000 0.00144  0.77358  0.05953  Biso   1.000  C
  C2       1.0000 0.50144  0.27358  0.05953  Biso   1.000  C
  C3       1.0000 0.99856  0.77358  0.44047  Biso   1.000  C
  C4       1.0000 0.49856  0.27358  0.44047  Biso   1.000  C
  C5       1.0000 0.99856  0.22642  0.94047  Biso   1.000  C
  C6       1.0000 0.49856  0.72642  0.94047  Biso   1.000  C
  C7       1.0000 0.00144  0.22642  0.55953  Biso   1.000  C
  C8       1.0000 0.50144  0.72642  0.55953  Biso   1.000  C
  C9       1.0000 0.04715  0.75995  0.97171  Biso   1.000  C
  C10      1.0000 0.54715  0.25995  0.97171  Biso   1.000  C
  C11      1.0000 0.95285  0.75995  0.52829  Biso   1.000  C
  C12      1.0000 0.45285  0.25995  0.52829  Biso   1.000  C
  C13      1.0000 0.95285  0.24005  0.02829  Biso   1.000  C
  C14      1.0000 0.45285  0.74005  0.02829  Biso   1.000  C
  C15      1.0000 0.04715  0.24005  0.47171  Biso   1.000  C
  C16      1.0000 0.54715  0.74005  0.47171  Biso   1.000  C
  C17      1.0000 0.05890  0.68454  0.94051  Biso   1.000  C
  C18      1.0000 0.55890  0.18454  0.94051  Biso   1.000  C
  C19      1.0000 0.94110  0.68454  0.55949  Biso   1.000  C
  C20      1.0000 0.44110  0.18454  0.55949  Biso   1.000  C
  C21      1.0000 0.94110  0.31546  0.05949  Biso   1.000  C
  C22      1.0000 0.44110  0.81546  0.05949  Biso   1.000  C
  C23      1.0000 0.05890  0.31546  0.44051  Biso   1.000  C
  C24      1.0000 0.55890  0.81546  0.44051  Biso   1.000  C
  H1       1.0000 0.02720  0.64300  0.96380  Biso   1.000  H
  H2       1.0000 0.52720  0.14300  0.96380  Biso   1.000  H
  H3       1.0000 0.97280  0.64300  0.53620  Biso   1.000  H
  H4       1.0000 0.47280  0.14300  0.53620  Biso   1.000  H
  H5       1.0000 0.97280  0.35700  0.03620  Biso   1.000  H
  H6       1.0000 0.47280  0.85700  0.03620  Biso   1.000  H
  H7       1.0000 0.02720  0.35700  0.46380  Biso   1.000  H
  H8       1.0000 0.52720  0.85700  0.46380  Biso   1.000  H
  C25      1.0000 0.11650  0.66888  0.87558  Biso   1.000  C
  C26      1.0000 0.61650  0.16888  0.87558  Biso   1.000  C
  C27      1.0000 0.88350  0.66888  0.62442  Biso   1.000  C
  C28      1.0000 0.38350  0.16888  0.62442  Biso   1.000  C
  C29      1.0000 0.88350  0.33112  0.12442  Biso   1.000  C
  C30      1.0000 0.38350  0.83112  0.12442  Biso   1.000  C
  C31      1.0000 0.11650  0.33112  0.37558  Biso   1.000  C
  C32      1.0000 0.61650  0.83112  0.37558  Biso   1.000  C
  C33      1.0000 0.13846  0.58517  0.85858  Biso   1.000  C
  C34      1.0000 0.63846  0.08517  0.85858  Biso   1.000  C
  C35      1.0000 0.86154  0.58517  0.64142  Biso   1.000  C
  C36      1.0000 0.36154  0.08517  0.64142  Biso   1.000  C
  C37      1.0000 0.86154  0.41483  0.14142  Biso   1.000  C
  C38      1.0000 0.36154  0.91483  0.14142  Biso   1.000  C
  C39      1.0000 0.13846  0.41483  0.35858  Biso   1.000  C
  C40      1.0000 0.63846  0.91483  0.35858  Biso   1.000  C
  C41      1.0000 0.15587  0.73005  0.83382  Biso   1.000  C
  C42      1.0000 0.65587  0.23005  0.83382  Biso   1.000  C
  C43      1.0000 0.84413  0.73005  0.66618  Biso   1.000  C
  C44      1.0000 0.34413  0.23005  0.66618  Biso   1.000  C
  C45      1.0000 0.84413  0.26995  0.16618  Biso   1.000  C
  C46      1.0000 0.34413  0.76995  0.16618  Biso   1.000  C
  C47      1.0000 0.15587  0.26995  0.33382  Biso   1.000  C
  C48      1.0000 0.65587  0.76995  0.33382  Biso   1.000  C
  H9       1.0000 0.19350  0.71990  0.78750  Biso   1.000  H
  H10      1.0000 0.69350  0.21990  0.78750  Biso   1.000  H
  H11      1.0000 0.80650  0.71990  0.71250  Biso   1.000  H
  H12      1.0000 0.30650  0.21990  0.71250  Biso   1.000  H
  H13      1.0000 0.80650  0.28010  0.21250  Biso   1.000  H
  H14      1.0000 0.30650  0.78010  0.21250  Biso   1.000  H
  H15      1.0000 0.19350  0.28010  0.28750  Biso   1.000  H
  H16      1.0000 0.69350  0.78010  0.28750  Biso   1.000  H
  C49      1.0000 0.14010  0.80637  0.86009  Biso   1.000  C
  C50      1.0000 0.64010  0.30637  0.86009  Biso   1.000  C
  C51      1.0000 0.85990  0.80637  0.63991  Biso   1.000  C
  C52      1.0000 0.35990  0.30637  0.63991  Biso   1.000  C
  C53      1.0000 0.85990  0.19363  0.13991  Biso   1.000  C
  C54      1.0000 0.35990  0.69363  0.13991  Biso   1.000  C
  C55      1.0000 0.14010  0.19363  0.36009  Biso   1.000  C
  C56      1.0000 0.64010  0.69363  0.36009  Biso   1.000  C
  C57      1.0000 0.18188  0.87327  0.81555  Biso   1.000  C
  C58      1.0000 0.68188  0.37327  0.81555  Biso   1.000  C
  C59      1.0000 0.81812  0.87327  0.68445  Biso   1.000  C
  C60      1.0000 0.31812  0.37327  0.68445  Biso   1.000  C
  C61      1.0000 0.81812  0.12673  0.18445  Biso   1.000  C
  C62      1.0000 0.31812  0.62673  0.18445  Biso   1.000  C
  C63      1.0000 0.18188  0.12673  0.31555  Biso   1.000  C
  C64      1.0000 0.68188  0.62673  0.31555  Biso   1.000  C
  C65      1.0000 0.08744  0.82069  0.93059  Biso   1.000  C
  C66      1.0000 0.58744  0.32069  0.93059  Biso   1.000  C
  C67      1.0000 0.91256  0.82069  0.56941  Biso   1.000  C
  C68      1.0000 0.41256  0.32069  0.56941  Biso   1.000  C
  C69      1.0000 0.91256  0.17931  0.06941  Biso   1.000  C
  C70      1.0000 0.41256  0.67931  0.06941  Biso   1.000  C
  C71      1.0000 0.08744  0.17931  0.43059  Biso   1.000  C
  C72      1.0000 0.58744  0.67931  0.43059  Biso   1.000  C
  H17      1.0000 0.07900  0.87260  0.95080  Biso   1.000  H
  H18      1.0000 0.57900  0.37260  0.95080  Biso   1.000  H
  H19      1.0000 0.92100  0.87260  0.54920  Biso   1.000  H
  H20      1.0000 0.42100  0.37260  0.54920  Biso   1.000  H
  H21      1.0000 0.92100  0.12740  0.04920  Biso   1.000  H
  H22      1.0000 0.42100  0.62740  0.04920  Biso   1.000  H
  H23      1.0000 0.07900  0.12740  0.45080  Biso   1.000  H
  H24      1.0000 0.57900  0.62740  0.45080  Biso   1.000  H
  N1       1.0000 0.84167  0.83543  0.18678  Biso   1.000  N
  N2       1.0000 0.34167  0.33543  0.18678  Biso   1.000  N
  N3       1.0000 0.15833  0.83543  0.31322  Biso   1.000  N
  N4       1.0000 0.65833  0.33543  0.31322  Biso   1.000  N
  N5       1.0000 0.15833  0.16457  0.81322  Biso   1.000  N
  N6       1.0000 0.65833  0.66457  0.81322  Biso   1.000  N
  N7       1.0000 0.84167  0.16457  0.68678  Biso   1.000  N
  N8       1.0000 0.34167  0.66457  0.68678  Biso   1.000  N
  N9       1.0000 0.36636  0.47739  0.93469  Biso   1.000  N
  N10      1.0000 0.86636  0.97739  0.93469  Biso   1.000  N
  N11      1.0000 0.63364  0.47739  0.56531  Biso   1.000  N
  N12      1.0000 0.13364  0.97739  0.56531  Biso   1.000  N
  N13      1.0000 0.63364  0.52261  0.06531  Biso   1.000  N
  N14      1.0000 0.13364  0.02261  0.06531  Biso   1.000  N
  N15      1.0000 0.36636  0.52261  0.43469  Biso   1.000  N
  N16      1.0000 0.86636  0.02261  0.43469  Biso   1.000  N
  H25      1.0000 0.41070  0.50550  0.91340  Biso   1.000  H
  H26      1.0000 0.91070  0.00550  0.91340  Biso   1.000  H
  H27      1.0000 0.58930  0.50550  0.58660  Biso   1.000  H
  H28      1.0000 0.08930  0.00550  0.58660  Biso   1.000  H
  H29      1.0000 0.58930  0.49450  0.08660  Biso   1.000  H
  H30      1.0000 0.08930  0.99450  0.08660  Biso   1.000  H
  H31      1.0000 0.41070  0.49450  0.41340  Biso   1.000  H
  H32      1.0000 0.91070  0.99450  0.41340  Biso   1.000  H
  H33      1.0000 0.39680  0.43090  0.96470  Biso   1.000  H
  H34      1.0000 0.89680  0.93090  0.96470  Biso   1.000  H
  H35      1.0000 0.60320  0.43090  0.53530  Biso   1.000  H
  H36      1.0000 0.10320  0.93090  0.53530  Biso   1.000  H
  H37      1.0000 0.60320  0.56910  0.03530  Biso   1.000  H
  H38      1.0000 0.10320  0.06910  0.03530  Biso   1.000  H
  H39      1.0000 0.39680  0.56910  0.46470  Biso   1.000  H
  H40      1.0000 0.89680  0.06910  0.46470  Biso   1.000  H
  H41      1.0000 0.35380  0.50390  0.99030  Biso   1.000  H
  H42      1.0000 0.85380  0.00390  0.99030  Biso   1.000  H
  H43      1.0000 0.64620  0.50390  0.50970  Biso   1.000  H
  H44      1.0000 0.14620  0.00390  0.50970  Biso   1.000  H
  H45      1.0000 0.64620  0.49610  0.00970  Biso   1.000  H
  H46      1.0000 0.14620  0.99610  0.00970  Biso   1.000  H
  H47      1.0000 0.35380  0.49610  0.49030  Biso   1.000  H
  H48      1.0000 0.85380  0.99610  0.49030  Biso   1.000  H
  N17      1.0000 0.09494  0.44541  0.65669  Biso   1.000  N
  N18      1.0000 0.59494  0.94541  0.65669  Biso   1.000  N
  N19      1.0000 0.90506  0.44541  0.84331  Biso   1.000  N
  N20      1.0000 0.40506  0.94541  0.84331  Biso   1.000  N
  N21      1.0000 0.90506  0.55459  0.34331  Biso   1.000  N
  N22      1.0000 0.40506  0.05459  0.34331  Biso   1.000  N
  N23      1.0000 0.09494  0.55459  0.15669  Biso   1.000  N
  N24      1.0000 0.59494  0.05459  0.15669  Biso   1.000  N
  H49      1.0000 0.04710  0.48030  0.65950  Biso   1.000  H
  H50      1.0000 0.54710  0.98030  0.65950  Biso   1.000  H
  H51      1.0000 0.95290  0.48030  0.84050  Biso   1.000  H
  H52      1.0000 0.45290  0.98030  0.84050  Biso   1.000  H
  H53      1.0000 0.95290  0.51970  0.34050  Biso   1.000  H
  H54      1.0000 0.45290  0.01970  0.34050  Biso   1.000  H
  H55      1.0000 0.04710  0.51970  0.15950  Biso   1.000  H
  H56      1.0000 0.54710  0.01970  0.15950  Biso   1.000  H
  H57      1.0000 0.07080  0.39640  0.65700  Biso   1.000  H
  H58      1.0000 0.57080  0.89640  0.65700  Biso   1.000  H
  H59      1.0000 0.92920  0.39640  0.84300  Biso   1.000  H
  H60      1.0000 0.42920  0.89640  0.84300  Biso   1.000  H
  H61      1.0000 0.92920  0.60360  0.34300  Biso   1.000  H
  H62      1.0000 0.42920  0.10360  0.34300  Biso   1.000  H
  H63      1.0000 0.07080  0.60360  0.15700  Biso   1.000  H
  H64      1.0000 0.57080  0.10360  0.15700  Biso   1.000  H
  H65      1.0000 0.10410  0.45290  0.58970  Biso   1.000  H
  H66      1.0000 0.60410  0.95290  0.58970  Biso   1.000  H
  H67      1.0000 0.89590  0.45290  0.91030  Biso   1.000  H
  H68      1.0000 0.39590  0.95290  0.91030  Biso   1.000  H
  H69      1.0000 0.89590  0.54710  0.41030  Biso   1.000  H
  H70      1.0000 0.39590  0.04710  0.41030  Biso   1.000  H
  H71      1.0000 0.10410  0.54710  0.08970  Biso   1.000  H
  H72      1.0000 0.60410  0.04710  0.08970  Biso   1.000  H
  O1       1.0000 0.19702  0.57189  0.80563  Biso   1.000  O
  O2       1.0000 0.69702  0.07189  0.80563  Biso   1.000  O
  O3       1.0000 0.80298  0.57189  0.69437  Biso   1.000  O
  O4       1.0000 0.30298  0.07189  0.69437  Biso   1.000  O
  O5       1.0000 0.80298  0.42811  0.19437  Biso   1.000  O
  O6       1.0000 0.30298  0.92811  0.19437  Biso   1.000  O
  O7       1.0000 0.19702  0.42811  0.30563  Biso   1.000  O
  O8       1.0000 0.69702  0.92811  0.30563  Biso   1.000  O
  O9       1.0000 0.10057  0.53378  0.90016  Biso   1.000  O
  O10      1.0000 0.60057  0.03378  0.90016  Biso   1.000  O
  O11      1.0000 0.89943  0.53378  0.59984  Biso   1.000  O
  O12      1.0000 0.39943  0.03378  0.59984  Biso   1.000  O
  O13      1.0000 0.89943  0.46622  0.09984  Biso   1.000  O
  O14      1.0000 0.39943  0.96622  0.09984  Biso   1.000  O
  O15      1.0000 0.10057  0.46622  0.40016  Biso   1.000  O
  O16      1.0000 0.60057  0.96622  0.40016  Biso   1.000  O
  O17      1.0000 0.99569  0.84424  0.08805  Biso   1.000  O
  O18      1.0000 0.49569  0.34424  0.08805  Biso   1.000  O
  O19      1.0000 0.00431  0.84424  0.41195  Biso   1.000  O
  O20      1.0000 0.50431  0.34424  0.41195  Biso   1.000  O
  O21      1.0000 0.00431  0.15576  0.91195  Biso   1.000  O
  O22      1.0000 0.50431  0.65576  0.91195  Biso   1.000  O
  O23      1.0000 0.99569  0.15576  0.58805  Biso   1.000  O
  O24      1.0000 0.49569  0.65576  0.58805  Biso   1.000  O
  O25      1.0000 0.97928  0.71676  0.10626  Biso   1.000  O
  O26      1.0000 0.47928  0.21676  0.10626  Biso   1.000  O
  O27      1.0000 0.02072  0.71676  0.39374  Biso   1.000  O
  O28      1.0000 0.52072  0.21676  0.39374  Biso   1.000  O
  O29      1.0000 0.02072  0.28324  0.89374  Biso   1.000  O
  O30      1.0000 0.52072  0.78324  0.89374  Biso   1.000  O
  O31      1.0000 0.97928  0.28324  0.60626  Biso   1.000  O
  O32      1.0000 0.47928  0.78324  0.60626  Biso   1.000  O
  O33      1.0000 0.17753  0.94070  0.85181  Biso   1.000  O
  O34      1.0000 0.67753  0.44070  0.85181  Biso   1.000  O
  O35      1.0000 0.82247  0.94070  0.64819  Biso   1.000  O
  O36      1.0000 0.32247  0.44070  0.64819  Biso   1.000  O
  O37      1.0000 0.82247  0.05930  0.14819  Biso   1.000  O
  O38      1.0000 0.32247  0.55930  0.14819  Biso   1.000  O
  O39      1.0000 0.17753  0.05930  0.35181  Biso   1.000  O
  O40      1.0000 0.67753  0.55930  0.35181  Biso   1.000  O
  O41      1.0000 0.22002  0.85842  0.74226  Biso   1.000  O
  O42      1.0000 0.72002  0.35842  0.74226  Biso   1.000  O
  O43      1.0000 0.77998  0.85842  0.75774  Biso   1.000  O
  O44      1.0000 0.27998  0.35842  0.75774  Biso   1.000  O
  O45      1.0000 0.77998  0.14158  0.25774  Biso   1.000  O
  O46      1.0000 0.27998  0.64158  0.25774  Biso   1.000  O
  O47      1.0000 0.22002  0.14158  0.24226  Biso   1.000  O
  O48      1.0000 0.72002  0.64158  0.24226  Biso   1.000  O
  O49      1.0000 0.00000  0.97642  0.25000  Biso   1.000  O
  O50      1.0000 0.50000  0.47642  0.25000  Biso   1.000  O
  O51      1.0000 0.00000  0.02358  0.75000  Biso   1.000  O
  O52      1.0000 0.50000  0.52358  0.75000  Biso   1.000  O
  O53      1.0000 0.18664  0.38818  0.94307  Biso   1.000  O
  O54      1.0000 0.68664  0.88818  0.94307  Biso   1.000  O
  O55      1.0000 0.81336  0.38818  0.55693  Biso   1.000  O
  O56      1.0000 0.31336  0.88818  0.55693  Biso   1.000  O
  O57      1.0000 0.81336  0.61182  0.05693  Biso   1.000  O
  O58      1.0000 0.31336  0.11182  0.05693  Biso   1.000  O
  O59      1.0000 0.18664  0.61182  0.44307  Biso   1.000  O
  O60      1.0000 0.68664  0.11182  0.44307  Biso   1.000  O
  Cu1      1.0000 0.00000  0.84783  0.25000  Biso   1.000  Cu
  Cu2      1.0000 0.50000  0.34783  0.25000  Biso   1.000  Cu
  Cu3      1.0000 0.00000  0.15217  0.75000  Biso   1.000  Cu
  Cu4      1.0000 0.50000  0.65217  0.75000  Biso   1.000  Cu
  Cu5      1.0000 0.23098  0.45973  0.79481  Biso   1.000  Cu
  Cu6      1.0000 0.73098  0.95973  0.79481  Biso   1.000  Cu
  Cu7      1.0000 0.76902  0.45973  0.70519  Biso   1.000  Cu
  Cu8      1.0000 0.26902  0.95973  0.70519  Biso   1.000  Cu
  Cu9      1.0000 0.76902  0.54027  0.20519  Biso   1.000  Cu
  Cu10     1.0000 0.26902  0.04027  0.20519  Biso   1.000  Cu
  Cu11     1.0000 0.23098  0.54027  0.29481  Biso   1.000  Cu
  Cu12     1.0000 0.73098  0.04027  0.29481  Biso   1.000  Cu
  H73      1.0000 0.81440  0.85770  0.22800  Biso   1.000  H
  H74      1.0000 0.31440  0.35770  0.22800  Biso   1.000  H
  H75      1.0000 0.18560  0.85770  0.27200  Biso   1.000  H
  H76      1.0000 0.68560  0.35770  0.27200  Biso   1.000  H
  H77      1.0000 0.18560  0.14230  0.77200  Biso   1.000  H
  H78      1.0000 0.68560  0.64230  0.77200  Biso   1.000  H
  H79      1.0000 0.81440  0.14230  0.72800  Biso   1.000  H
  H80      1.0000 0.31440  0.64230  0.72800  Biso   1.000  H
  H81      1.0000 0.83700  0.78700  0.19300  Biso   1.000  H
  H82      1.0000 0.33700  0.28700  0.19300  Biso   1.000  H
  H83      1.0000 0.16300  0.78700  0.30700  Biso   1.000  H
  H84      1.0000 0.66300  0.28700  0.30700  Biso   1.000  H
  H85      1.0000 0.16300  0.21300  0.80700  Biso   1.000  H
  H86      1.0000 0.66300  0.71300  0.80700  Biso   1.000  H
  H87      1.0000 0.83700  0.21300  0.69300  Biso   1.000  H
  H88      1.0000 0.33700  0.71300  0.69300  Biso   1.000  H
  H89      1.0000 0.80800  0.84890  0.11900  Biso   1.000  H
  H90      1.0000 0.30800  0.34890  0.11900  Biso   1.000  H
  H91      1.0000 0.19200  0.84890  0.38100  Biso   1.000  H
  H92      1.0000 0.69200  0.34890  0.38100  Biso   1.000  H
  H93      1.0000 0.19200  0.15110  0.88100  Biso   1.000  H
  H94      1.0000 0.69200  0.65110  0.88100  Biso   1.000  H
  H95      1.0000 0.80800  0.15110  0.61900  Biso   1.000  H
  H96      1.0000 0.30800  0.65110  0.61900  Biso   1.000  H
  H97      1.0000 0.94830  0.00510  0.22600  Biso   1.000  H
  H98      1.0000 0.44830  0.50510  0.22600  Biso   1.000  H
  H99      1.0000 0.05170  0.00510  0.27400  Biso   1.000  H
  H100     1.0000 0.55170  0.50510  0.27400  Biso   1.000  H
  H101     1.0000 0.05170  0.99490  0.77400  Biso   1.000  H
  H102     1.0000 0.55170  0.49490  0.77400  Biso   1.000  H
  H103     1.0000 0.94830  0.99490  0.72600  Biso   1.000  H
  H104     1.0000 0.44830  0.49490  0.72600  Biso   1.000  H
  H105     1.0000 0.16100  0.43090  0.94300  Biso   1.000  H
  H106     1.0000 0.66100  0.93090  0.94300  Biso   1.000  H
  H107     1.0000 0.83900  0.43090  0.55700  Biso   1.000  H
  H108     1.0000 0.33900  0.93090  0.55700  Biso   1.000  H
  H109     1.0000 0.83900  0.56910  0.05700  Biso   1.000  H
  H110     1.0000 0.33900  0.06910  0.05700  Biso   1.000  H
  H111     1.0000 0.16100  0.56910  0.44300  Biso   1.000  H
  H112     1.0000 0.66100  0.06910  0.44300  Biso   1.000  H
  H113     1.0000 0.14400  0.35320  0.92500  Biso   1.000  H
  H114     1.0000 0.64400  0.85320  0.92500  Biso   1.000  H
  H115     1.0000 0.85600  0.35320  0.57500  Biso   1.000  H
  H116     1.0000 0.35600  0.85320  0.57500  Biso   1.000  H
  H117     1.0000 0.85600  0.64680  0.07500  Biso   1.000  H
  H118     1.0000 0.35600  0.14680  0.07500  Biso   1.000  H
  H119     1.0000 0.14400  0.64680  0.42500  Biso   1.000  H
  H120     1.0000 0.64400  0.14680  0.42500  Biso   1.000  H
