data_image0
_cell_length_a       13.9213
_cell_length_b       17.121
_cell_length_c       12.5271
_cell_angle_alpha    90
_cell_angle_beta     114.779
_cell_angle_gamma    90

_symmetry_space_group_name_H-M    "P 1"
_symmetry_int_tables_number       1

loop_
  _symmetry_equiv_pos_as_xyz
  'x, y, z'

loop_
  _atom_site_label
  _atom_site_occupancy
  _atom_site_fract_x
  _atom_site_fract_y
  _atom_site_fract_z
  _atom_site_thermal_displace_type
  _atom_site_B_iso_or_equiv
  _atom_site_type_symbol
  Cu1      1.0000 0.73127  0.46086  0.29339  Biso   1.000  Cu
  Cu2      1.0000 0.26873  0.46086  0.20661  Biso   1.000  Cu
  Cu3      1.0000 0.23127  0.96086  0.29339  Biso   1.000  Cu
  Cu4      1.0000 0.76873  0.96086  0.20661  Biso   1.000  Cu
  Cu5      1.0000 0.26873  0.53914  0.70661  Biso   1.000  Cu
  Cu6      1.0000 0.73127  0.53914  0.79339  Biso   1.000  Cu
  Cu7      1.0000 0.76873  0.03914  0.70661  Biso   1.000  Cu
  Cu8      1.0000 0.23127  0.03914  0.79339  Biso   1.000  Cu
  Cu9      1.0000 0.50000  0.84657  0.75000  Biso   1.000  Cu
  Cu10     1.0000 0.00000  0.34657  0.75000  Biso   1.000  Cu
  Cu11     1.0000 0.50000  0.15343  0.25000  Biso   1.000  Cu
  Cu12     1.0000 0.00000  0.65343  0.25000  Biso   1.000  Cu
  O1       1.0000 0.69791  0.57277  0.30540  Biso   1.000  O
  O2       1.0000 0.30209  0.57277  0.19460  Biso   1.000  O
  O3       1.0000 0.19791  0.07277  0.30540  Biso   1.000  O
  O4       1.0000 0.80209  0.07277  0.19460  Biso   1.000  O
  O5       1.0000 0.30209  0.42723  0.69460  Biso   1.000  O
  O6       1.0000 0.69791  0.42723  0.80540  Biso   1.000  O
  O7       1.0000 0.80209  0.92723  0.69460  Biso   1.000  O
  O8       1.0000 0.19791  0.92723  0.80540  Biso   1.000  O
  O9       1.0000 0.60093  0.53409  0.39799  Biso   1.000  O
  O10      1.0000 0.39907  0.53409  0.10201  Biso   1.000  O
  O11      1.0000 0.10093  0.03409  0.39799  Biso   1.000  O
  O12      1.0000 0.89907  0.03409  0.10201  Biso   1.000  O
  O13      1.0000 0.39907  0.46591  0.60201  Biso   1.000  O
  O14      1.0000 0.60093  0.46591  0.89799  Biso   1.000  O
  O15      1.0000 0.89907  0.96591  0.60201  Biso   1.000  O
  O16      1.0000 0.10093  0.96591  0.89799  Biso   1.000  O
  O17      1.0000 0.67671  0.94136  0.35252  Biso   1.000  O
  O18      1.0000 0.32329  0.94136  0.14748  Biso   1.000  O
  O19      1.0000 0.17671  0.44136  0.35252  Biso   1.000  O
  O20      1.0000 0.82329  0.44136  0.14748  Biso   1.000  O
  O21      1.0000 0.32329  0.05864  0.64748  Biso   1.000  O
  O22      1.0000 0.67671  0.05864  0.85252  Biso   1.000  O
  O23      1.0000 0.82329  0.55864  0.64748  Biso   1.000  O
  O24      1.0000 0.17671  0.55864  0.85252  Biso   1.000  O
  O25      1.0000 0.72030  0.85940  0.24397  Biso   1.000  O
  O26      1.0000 0.27970  0.85940  0.25603  Biso   1.000  O
  O27      1.0000 0.22030  0.35940  0.24397  Biso   1.000  O
  O28      1.0000 0.77970  0.35940  0.25603  Biso   1.000  O
  O29      1.0000 0.27970  0.14060  0.75603  Biso   1.000  O
  O30      1.0000 0.72030  0.14060  0.74397  Biso   1.000  O
  O31      1.0000 0.77970  0.64060  0.75603  Biso   1.000  O
  O32      1.0000 0.22030  0.64060  0.74397  Biso   1.000  O
  O33      1.0000 0.48130  0.71599  0.60668  Biso   1.000  O
  O34      1.0000 0.51870  0.71599  0.89332  Biso   1.000  O
  O35      1.0000 0.98130  0.21599  0.60668  Biso   1.000  O
  O36      1.0000 0.01870  0.21599  0.89332  Biso   1.000  O
  O37      1.0000 0.51870  0.28401  0.39332  Biso   1.000  O
  O38      1.0000 0.48130  0.28401  0.10668  Biso   1.000  O
  O39      1.0000 0.01870  0.78401  0.39332  Biso   1.000  O
  O40      1.0000 0.98130  0.78401  0.10668  Biso   1.000  O
  O41      1.0000 0.49689  0.84340  0.58919  Biso   1.000  O
  O42      1.0000 0.50311  0.84340  0.91081  Biso   1.000  O
  O43      1.0000 0.99689  0.34340  0.58919  Biso   1.000  O
  O44      1.0000 0.00311  0.34340  0.91081  Biso   1.000  O
  O45      1.0000 0.50311  0.15660  0.41081  Biso   1.000  O
  O46      1.0000 0.49689  0.15660  0.08919  Biso   1.000  O
  O47      1.0000 0.00311  0.65660  0.41081  Biso   1.000  O
  O48      1.0000 0.99689  0.65660  0.08919  Biso   1.000  O
  N1       1.0000 0.59585  0.44683  0.15671  Biso   1.000  N
  N2       1.0000 0.40415  0.44683  0.34329  Biso   1.000  N
  N3       1.0000 0.09585  0.94683  0.15671  Biso   1.000  N
  N4       1.0000 0.90415  0.94683  0.34329  Biso   1.000  N
  N5       1.0000 0.40415  0.55317  0.84329  Biso   1.000  N
  N6       1.0000 0.59585  0.55317  0.65671  Biso   1.000  N
  N7       1.0000 0.90415  0.05317  0.84329  Biso   1.000  N
  N8       1.0000 0.09585  0.05317  0.65671  Biso   1.000  N
  H1       1.0000 0.57300  0.40090  0.15900  Biso   1.000  H
  H2       1.0000 0.42700  0.40090  0.34100  Biso   1.000  H
  H3       1.0000 0.07300  0.90090  0.15900  Biso   1.000  H
  H4       1.0000 0.92700  0.90090  0.34100  Biso   1.000  H
  H5       1.0000 0.42700  0.59910  0.84100  Biso   1.000  H
  H6       1.0000 0.57300  0.59910  0.65900  Biso   1.000  H
  H7       1.0000 0.92700  0.09910  0.84100  Biso   1.000  H
  H8       1.0000 0.07300  0.09910  0.65900  Biso   1.000  H
  H9       1.0000 0.54900  0.47470  0.15400  Biso   1.000  H
  H10      1.0000 0.45100  0.47470  0.34600  Biso   1.000  H
  H11      1.0000 0.04900  0.97470  0.15400  Biso   1.000  H
  H12      1.0000 0.95100  0.97470  0.34600  Biso   1.000  H
  H13      1.0000 0.45100  0.52530  0.84600  Biso   1.000  H
  H14      1.0000 0.54900  0.52530  0.65400  Biso   1.000  H
  H15      1.0000 0.95100  0.02530  0.84600  Biso   1.000  H
  H16      1.0000 0.04900  0.02530  0.65400  Biso   1.000  H
  H17      1.0000 0.60700  0.45560  0.10100  Biso   1.000  H
  H18      1.0000 0.39300  0.45560  0.39900  Biso   1.000  H
  H19      1.0000 0.10700  0.95560  0.10100  Biso   1.000  H
  H20      1.0000 0.89300  0.95560  0.39900  Biso   1.000  H
  H21      1.0000 0.39300  0.54440  0.89900  Biso   1.000  H
  H22      1.0000 0.60700  0.54440  0.60100  Biso   1.000  H
  H23      1.0000 0.89300  0.04440  0.89900  Biso   1.000  H
  H24      1.0000 0.10700  0.04440  0.60100  Biso   1.000  H
  N9       1.0000 0.86544  0.47717  0.43295  Biso   1.000  N
  N10      1.0000 0.13456  0.47717  0.06705  Biso   1.000  N
  N11      1.0000 0.36544  0.97717  0.43295  Biso   1.000  N
  N12      1.0000 0.63456  0.97717  0.06705  Biso   1.000  N
  N13      1.0000 0.13456  0.52283  0.56705  Biso   1.000  N
  N14      1.0000 0.86544  0.52283  0.93295  Biso   1.000  N
  N15      1.0000 0.63456  0.02283  0.56705  Biso   1.000  N
  N16      1.0000 0.36544  0.02283  0.93295  Biso   1.000  N
  H25      1.0000 0.84990  0.49990  0.48100  Biso   1.000  H
  H26      1.0000 0.15010  0.49990  0.01900  Biso   1.000  H
  H27      1.0000 0.34990  0.99990  0.48100  Biso   1.000  H
  H28      1.0000 0.65010  0.99990  0.01900  Biso   1.000  H
  H29      1.0000 0.15010  0.50010  0.51900  Biso   1.000  H
  H30      1.0000 0.84990  0.50010  0.98100  Biso   1.000  H
  H31      1.0000 0.65010  0.00010  0.51900  Biso   1.000  H
  H32      1.0000 0.34990  0.00010  0.98100  Biso   1.000  H
  H33      1.0000 0.89600  0.43850  0.46200  Biso   1.000  H
  H34      1.0000 0.10400  0.43850  0.03800  Biso   1.000  H
  H35      1.0000 0.39600  0.93850  0.46200  Biso   1.000  H
  H36      1.0000 0.60400  0.93850  0.03800  Biso   1.000  H
  H37      1.0000 0.10400  0.56150  0.53800  Biso   1.000  H
  H38      1.0000 0.89600  0.56150  0.96200  Biso   1.000  H
  H39      1.0000 0.60400  0.06150  0.53800  Biso   1.000  H
  H40      1.0000 0.39600  0.06150  0.96200  Biso   1.000  H
  H41      1.0000 0.90500  0.50570  0.41500  Biso   1.000  H
  H42      1.0000 0.09500  0.50570  0.08500  Biso   1.000  H
  H43      1.0000 0.40500  0.00570  0.41500  Biso   1.000  H
  H44      1.0000 0.59500  0.00570  0.08500  Biso   1.000  H
  H45      1.0000 0.09500  0.49430  0.58500  Biso   1.000  H
  H46      1.0000 0.90500  0.49430  0.91500  Biso   1.000  H
  H47      1.0000 0.59500  0.99430  0.58500  Biso   1.000  H
  H48      1.0000 0.40500  0.99430  0.91500  Biso   1.000  H
  N17      1.0000 0.34283  0.83420  0.68630  Biso   1.000  N
  N18      1.0000 0.65717  0.83420  0.81370  Biso   1.000  N
  N19      1.0000 0.84283  0.33420  0.68630  Biso   1.000  N
  N20      1.0000 0.15717  0.33420  0.81370  Biso   1.000  N
  N21      1.0000 0.65717  0.16580  0.31370  Biso   1.000  N
  N22      1.0000 0.34283  0.16580  0.18630  Biso   1.000  N
  N23      1.0000 0.15717  0.66580  0.31370  Biso   1.000  N
  N24      1.0000 0.84283  0.66580  0.18630  Biso   1.000  N
  H49      1.0000 0.31680  0.85360  0.72900  Biso   1.000  H
  H50      1.0000 0.68320  0.85360  0.77100  Biso   1.000  H
  H51      1.0000 0.81680  0.35360  0.72900  Biso   1.000  H
  H52      1.0000 0.18320  0.35360  0.77100  Biso   1.000  H
  H53      1.0000 0.68320  0.14640  0.27100  Biso   1.000  H
  H54      1.0000 0.31680  0.14640  0.22900  Biso   1.000  H
  H55      1.0000 0.18320  0.64640  0.27100  Biso   1.000  H
  H56      1.0000 0.81680  0.64640  0.22900  Biso   1.000  H
  H57      1.0000 0.30900  0.85130  0.61600  Biso   1.000  H
  H58      1.0000 0.69100  0.85130  0.88400  Biso   1.000  H
  H59      1.0000 0.80900  0.35130  0.61600  Biso   1.000  H
  H60      1.0000 0.19100  0.35130  0.88400  Biso   1.000  H
  H61      1.0000 0.69100  0.14870  0.38400  Biso   1.000  H
  H62      1.0000 0.30900  0.14870  0.11600  Biso   1.000  H
  H63      1.0000 0.19100  0.64870  0.38400  Biso   1.000  H
  H64      1.0000 0.80900  0.64870  0.11600  Biso   1.000  H
  H65      1.0000 0.33100  0.78270  0.68800  Biso   1.000  H
  H66      1.0000 0.66900  0.78270  0.81200  Biso   1.000  H
  H67      1.0000 0.83100  0.28270  0.68800  Biso   1.000  H
  H68      1.0000 0.16900  0.28270  0.81200  Biso   1.000  H
  H69      1.0000 0.66900  0.21730  0.31200  Biso   1.000  H
  H70      1.0000 0.33100  0.21730  0.18800  Biso   1.000  H
  H71      1.0000 0.16900  0.71730  0.31200  Biso   1.000  H
  H72      1.0000 0.83100  0.71730  0.18800  Biso   1.000  H
  O49      1.0000 0.50000  0.97542  0.75000  Biso   1.000  O
  O50      1.0000 0.00000  0.47542  0.75000  Biso   1.000  O
  O51      1.0000 0.50000  0.02458  0.25000  Biso   1.000  O
  O52      1.0000 0.00000  0.52458  0.25000  Biso   1.000  O
  H73      1.0000 0.45000  0.00020  0.72500  Biso   1.000  H
  H74      1.0000 0.55000  0.00020  0.77500  Biso   1.000  H
  H75      1.0000 0.95000  0.50020  0.72500  Biso   1.000  H
  H76      1.0000 0.05000  0.50020  0.77500  Biso   1.000  H
  H77      1.0000 0.55000  0.99980  0.27500  Biso   1.000  H
  H78      1.0000 0.45000  0.99980  0.22500  Biso   1.000  H
  H79      1.0000 0.05000  0.49980  0.27500  Biso   1.000  H
  H80      1.0000 0.95000  0.49980  0.22500  Biso   1.000  H
  O53      1.0000 0.68621  0.38807  0.44328  Biso   1.000  O
  O54      1.0000 0.31379  0.38807  0.05672  Biso   1.000  O
  O55      1.0000 0.18621  0.88807  0.44328  Biso   1.000  O
  O56      1.0000 0.81379  0.88807  0.05672  Biso   1.000  O
  O57      1.0000 0.31379  0.61193  0.55672  Biso   1.000  O
  O58      1.0000 0.68621  0.61193  0.94328  Biso   1.000  O
  O59      1.0000 0.81379  0.11193  0.55672  Biso   1.000  O
  O60      1.0000 0.18621  0.11193  0.94328  Biso   1.000  O
  H81      1.0000 0.66500  0.42400  0.44800  Biso   1.000  H
  H82      1.0000 0.33500  0.42400  0.05200  Biso   1.000  H
  H83      1.0000 0.16500  0.92400  0.44800  Biso   1.000  H
  H84      1.0000 0.83500  0.92400  0.05200  Biso   1.000  H
  H85      1.0000 0.33500  0.57600  0.55200  Biso   1.000  H
  H86      1.0000 0.66500  0.57600  0.94800  Biso   1.000  H
  H87      1.0000 0.83500  0.07600  0.55200  Biso   1.000  H
  H88      1.0000 0.16500  0.07600  0.94800  Biso   1.000  H
  H89      1.0000 0.63900  0.35260  0.43000  Biso   1.000  H
  H90      1.0000 0.36100  0.35260  0.07000  Biso   1.000  H
  H91      1.0000 0.13900  0.85260  0.43000  Biso   1.000  H
  H92      1.0000 0.86100  0.85260  0.07000  Biso   1.000  H
  H93      1.0000 0.36100  0.64740  0.57000  Biso   1.000  H
  H94      1.0000 0.63900  0.64740  0.93000  Biso   1.000  H
  H95      1.0000 0.86100  0.14740  0.57000  Biso   1.000  H
  H96      1.0000 0.13900  0.14740  0.93000  Biso   1.000  H
  C1       1.0000 0.61693  0.66918  0.37535  Biso   1.000  C
  C2       1.0000 0.38307  0.66918  0.12465  Biso   1.000  C
  C3       1.0000 0.11693  0.16918  0.37535  Biso   1.000  C
  C4       1.0000 0.88307  0.16918  0.12465  Biso   1.000  C
  C5       1.0000 0.38307  0.33082  0.62465  Biso   1.000  C
  C6       1.0000 0.61693  0.33082  0.87535  Biso   1.000  C
  C7       1.0000 0.88307  0.83082  0.62465  Biso   1.000  C
  C8       1.0000 0.11693  0.83082  0.87535  Biso   1.000  C
  C9       1.0000 0.65555  0.73061  0.33347  Biso   1.000  C
  C10      1.0000 0.34445  0.73061  0.16653  Biso   1.000  C
  C11      1.0000 0.15555  0.23061  0.33347  Biso   1.000  C
  C12      1.0000 0.84445  0.23061  0.16653  Biso   1.000  C
  C13      1.0000 0.34445  0.26939  0.66653  Biso   1.000  C
  C14      1.0000 0.65555  0.26939  0.83347  Biso   1.000  C
  C15      1.0000 0.84445  0.76939  0.66653  Biso   1.000  C
  C16      1.0000 0.15555  0.76939  0.83347  Biso   1.000  C
  H97      1.0000 0.69070  0.72220  0.28990  Biso   1.000  H
  H98      1.0000 0.30930  0.72220  0.21010  Biso   1.000  H
  H99      1.0000 0.19070  0.22220  0.28990  Biso   1.000  H
  H100     1.0000 0.80930  0.22220  0.21010  Biso   1.000  H
  H101     1.0000 0.30930  0.27780  0.71010  Biso   1.000  H
  H102     1.0000 0.69070  0.27780  0.78990  Biso   1.000  H
  H103     1.0000 0.80930  0.77780  0.71010  Biso   1.000  H
  H104     1.0000 0.19070  0.77780  0.78990  Biso   1.000  H
  C17      1.0000 0.63994  0.80686  0.36024  Biso   1.000  C
  C18      1.0000 0.36006  0.80686  0.13976  Biso   1.000  C
  C19      1.0000 0.13994  0.30686  0.36024  Biso   1.000  C
  C20      1.0000 0.86006  0.30686  0.13976  Biso   1.000  C
  C21      1.0000 0.36006  0.19314  0.63976  Biso   1.000  C
  C22      1.0000 0.63994  0.19314  0.86024  Biso   1.000  C
  C23      1.0000 0.86006  0.69314  0.63976  Biso   1.000  C
  C24      1.0000 0.13994  0.69314  0.86024  Biso   1.000  C
  C25      1.0000 0.58794  0.82080  0.43092  Biso   1.000  C
  C26      1.0000 0.41206  0.82080  0.06908  Biso   1.000  C
  C27      1.0000 0.08794  0.32080  0.43092  Biso   1.000  C
  C28      1.0000 0.91206  0.32080  0.06908  Biso   1.000  C
  C29      1.0000 0.41206  0.17920  0.56908  Biso   1.000  C
  C30      1.0000 0.58794  0.17920  0.93092  Biso   1.000  C
  C31      1.0000 0.91206  0.67920  0.56908  Biso   1.000  C
  C32      1.0000 0.08794  0.67920  0.93092  Biso   1.000  C
  H105     1.0000 0.58020  0.86960  0.45120  Biso   1.000  H
  H106     1.0000 0.41980  0.86960  0.04880  Biso   1.000  H
  H107     1.0000 0.08020  0.36960  0.45120  Biso   1.000  H
  H108     1.0000 0.91980  0.36960  0.04880  Biso   1.000  H
  H109     1.0000 0.41980  0.13040  0.54880  Biso   1.000  H
  H110     1.0000 0.58020  0.13040  0.95120  Biso   1.000  H
  H111     1.0000 0.91980  0.63040  0.54880  Biso   1.000  H
  H112     1.0000 0.08020  0.63040  0.95120  Biso   1.000  H
  C33      1.0000 0.54807  0.75980  0.47225  Biso   1.000  C
  C34      1.0000 0.45193  0.75980  0.02775  Biso   1.000  C
  C35      1.0000 0.04807  0.25980  0.47225  Biso   1.000  C
  C36      1.0000 0.95193  0.25980  0.02775  Biso   1.000  C
  C37      1.0000 0.45193  0.24020  0.52775  Biso   1.000  C
  C38      1.0000 0.54807  0.24020  0.97225  Biso   1.000  C
  C39      1.0000 0.95193  0.74020  0.52775  Biso   1.000  C
  C40      1.0000 0.04807  0.74020  0.97225  Biso   1.000  C
  C41      1.0000 0.56030  0.68447  0.44071  Biso   1.000  C
  C42      1.0000 0.43970  0.68447  0.05929  Biso   1.000  C
  C43      1.0000 0.06030  0.18447  0.44071  Biso   1.000  C
  C44      1.0000 0.93970  0.18447  0.05929  Biso   1.000  C
  C45      1.0000 0.43970  0.31553  0.55929  Biso   1.000  C
  C46      1.0000 0.56030  0.31553  0.94071  Biso   1.000  C
  C47      1.0000 0.93970  0.81553  0.55929  Biso   1.000  C
  C48      1.0000 0.06030  0.81553  0.94071  Biso   1.000  C
  H113     1.0000 0.52910  0.64320  0.46080  Biso   1.000  H
  H114     1.0000 0.47090  0.64320  0.03920  Biso   1.000  H
  H115     1.0000 0.02910  0.14320  0.46080  Biso   1.000  H
  H116     1.0000 0.97090  0.14320  0.03920  Biso   1.000  H
  H117     1.0000 0.47090  0.35680  0.53920  Biso   1.000  H
  H118     1.0000 0.52910  0.35680  0.96080  Biso   1.000  H
  H119     1.0000 0.97090  0.85680  0.53920  Biso   1.000  H
  H120     1.0000 0.02910  0.85680  0.96080  Biso   1.000  H
  C49      1.0000 0.63914  0.58568  0.35747  Biso   1.000  C
  C50      1.0000 0.36086  0.58568  0.14253  Biso   1.000  C
  C51      1.0000 0.13914  0.08568  0.35747  Biso   1.000  C
  C52      1.0000 0.86086  0.08568  0.14253  Biso   1.000  C
  C53      1.0000 0.36086  0.41432  0.64253  Biso   1.000  C
  C54      1.0000 0.63914  0.41432  0.85747  Biso   1.000  C
  C55      1.0000 0.86086  0.91432  0.64253  Biso   1.000  C
  C56      1.0000 0.13914  0.91432  0.85747  Biso   1.000  C
  C57      1.0000 0.68160  0.87407  0.31634  Biso   1.000  C
  C58      1.0000 0.31840  0.87407  0.18366  Biso   1.000  C
  C59      1.0000 0.18160  0.37407  0.31634  Biso   1.000  C
  C60      1.0000 0.81840  0.37407  0.18366  Biso   1.000  C
  C61      1.0000 0.31840  0.12593  0.68366  Biso   1.000  C
  C62      1.0000 0.68160  0.12593  0.81634  Biso   1.000  C
  C63      1.0000 0.81840  0.62593  0.68366  Biso   1.000  C
  C64      1.0000 0.18160  0.62593  0.81634  Biso   1.000  C
  C65      1.0000 0.50290  0.77286  0.56031  Biso   1.000  C
  C66      1.0000 0.49710  0.77286  0.93969  Biso   1.000  C
  C67      1.0000 0.00290  0.27286  0.56031  Biso   1.000  C
  C68      1.0000 0.99710  0.27286  0.93969  Biso   1.000  C
  C69      1.0000 0.49710  0.22714  0.43969  Biso   1.000  C
  C70      1.0000 0.50290  0.22714  0.06031  Biso   1.000  C
  C71      1.0000 0.99710  0.72714  0.43969  Biso   1.000  C
  C72      1.0000 0.00290  0.72714  0.06031  Biso   1.000  C
