data_image0
_cell_length_a       10.44
_cell_length_b       18.517
_cell_length_c       7.688
_cell_angle_alpha    90
_cell_angle_beta     103.52
_cell_angle_gamma    90

_symmetry_space_group_name_H-M    "P 1"
_symmetry_int_tables_number       1

loop_
  _symmetry_equiv_pos_as_xyz
  'x, y, z'

loop_
  _atom_site_label
  _atom_site_occupancy
  _atom_site_fract_x
  _atom_site_fract_y
  _atom_site_fract_z
  _atom_site_thermal_displace_type
  _atom_site_B_iso_or_equiv
  _atom_site_type_symbol
  Cu1      1.0000 0.88219  0.08321  0.34627  Biso   1.000  Cu
  Cu2      1.0000 0.11781  0.58320  0.15373  Biso   1.000  Cu
  Cu3      1.0000 0.11781  0.91680  0.65373  Biso   1.000  Cu
  Cu4      1.0000 0.88219  0.41680  0.84627  Biso   1.000  Cu
  O1       1.0000 0.94940  0.89567  0.11260  Biso   1.000  O
  O2       1.0000 0.05060  0.39567  0.38740  Biso   1.000  O
  O3       1.0000 0.05060  0.10433  0.88740  Biso   1.000  O
  O4       1.0000 0.94940  0.60433  0.61260  Biso   1.000  O
  O5       1.0000 0.18537  0.98642  0.19420  Biso   1.000  O
  O6       1.0000 0.81463  0.48642  0.30580  Biso   1.000  O
  O7       1.0000 0.81463  0.01358  0.80580  Biso   1.000  O
  O8       1.0000 0.18537  0.51358  0.69420  Biso   1.000  O
  N1       1.0000 0.73430  0.01201  0.27560  Biso   1.000  N
  N2       1.0000 0.26570  0.51201  0.22440  Biso   1.000  N
  N3       1.0000 0.26570  0.98799  0.72440  Biso   1.000  N
  N4       1.0000 0.73430  0.48799  0.77560  Biso   1.000  N
  N5       1.0000 0.97960  0.00804  0.25580  Biso   1.000  N
  N6       1.0000 0.02040  0.50804  0.24420  Biso   1.000  N
  N7       1.0000 0.02040  0.99196  0.74420  Biso   1.000  N
  N8       1.0000 0.97960  0.49196  0.75580  Biso   1.000  N
  N9       1.0000 0.06000  0.12901  0.41370  Biso   1.000  N
  N10      1.0000 0.94000  0.62901  0.08630  Biso   1.000  N
  N11      1.0000 0.94000  0.87099  0.58630  Biso   1.000  N
  N12      1.0000 0.06000  0.37099  0.91370  Biso   1.000  N
  N13      1.0000 0.82040  0.15179  0.10600  Biso   1.000  N
  N14      1.0000 0.17960  0.65179  0.39400  Biso   1.000  N
  N15      1.0000 0.17960  0.84821  0.89400  Biso   1.000  N
  N16      1.0000 0.82040  0.34821  0.60600  Biso   1.000  N
  N17      1.0000 0.80790  0.13830  0.51940  Biso   1.000  N
  N18      1.0000 0.19210  0.63830  0.98060  Biso   1.000  N
  N19      1.0000 0.19210  0.86170  0.48060  Biso   1.000  N
  N20      1.0000 0.80790  0.36170  0.01940  Biso   1.000  N
  N21      1.0000 0.54250  0.28555  0.72420  Biso   1.000  N
  N22      1.0000 0.45750  0.78555  0.77580  Biso   1.000  N
  N23      1.0000 0.45750  0.71445  0.27580  Biso   1.000  N
  N24      1.0000 0.54250  0.21445  0.22420  Biso   1.000  N
  C1       1.0000 0.61000  0.01853  0.29200  Biso   1.000  C
  C2       1.0000 0.39000  0.51853  0.20800  Biso   1.000  C
  C3       1.0000 0.39000  0.98147  0.70800  Biso   1.000  C
  C4       1.0000 0.61000  0.48147  0.79200  Biso   1.000  C
  H1       1.0000 0.58680  0.05910  0.35380  Biso   1.000  H
  H2       1.0000 0.41320  0.55910  0.14620  Biso   1.000  H
  H3       1.0000 0.41320  0.94090  0.64620  Biso   1.000  H
  H4       1.0000 0.58680  0.44090  0.85380  Biso   1.000  H
  C5       1.0000 0.51430  0.96804  0.22160  Biso   1.000  C
  C6       1.0000 0.48570  0.46804  0.27840  Biso   1.000  C
  C7       1.0000 0.48570  0.03196  0.77840  Biso   1.000  C
  C8       1.0000 0.51430  0.53196  0.72160  Biso   1.000  C
  H5       1.0000 0.42680  0.97380  0.23530  Biso   1.000  H
  H6       1.0000 0.57320  0.47380  0.26470  Biso   1.000  H
  H7       1.0000 0.57320  0.02620  0.76470  Biso   1.000  H
  H8       1.0000 0.42680  0.52620  0.73530  Biso   1.000  H
  C9       1.0000 0.54740  0.90936  0.13150  Biso   1.000  C
  C10      1.0000 0.45260  0.40936  0.36850  Biso   1.000  C
  C11      1.0000 0.45260  0.09064  0.86850  Biso   1.000  C
  C12      1.0000 0.54740  0.59064  0.63150  Biso   1.000  C
  H9       1.0000 0.48280  0.87440  0.08130  Biso   1.000  H
  H10      1.0000 0.51720  0.37440  0.41870  Biso   1.000  H
  H11      1.0000 0.51720  0.12560  0.91870  Biso   1.000  H
  H12      1.0000 0.48280  0.62560  0.58130  Biso   1.000  H
  C13      1.0000 0.67640  0.90178  0.11470  Biso   1.000  C
  C14      1.0000 0.32360  0.40178  0.38530  Biso   1.000  C
  C15      1.0000 0.32360  0.09822  0.88530  Biso   1.000  C
  C16      1.0000 0.67640  0.59822  0.61470  Biso   1.000  C
  H13      1.0000 0.70120  0.86170  0.05280  Biso   1.000  H
  H14      1.0000 0.29880  0.36170  0.44720  Biso   1.000  H
  H15      1.0000 0.29880  0.13830  0.94720  Biso   1.000  H
  H16      1.0000 0.70120  0.63830  0.55280  Biso   1.000  H
  C17      1.0000 0.76800  0.95363  0.18950  Biso   1.000  C
  C18      1.0000 0.23200  0.45363  0.31050  Biso   1.000  C
  C19      1.0000 0.23200  0.04637  0.81050  Biso   1.000  C
  C20      1.0000 0.76800  0.54637  0.68950  Biso   1.000  C
  C21      1.0000 0.91090  0.94837  0.17950  Biso   1.000  C
  C22      1.0000 0.08910  0.44837  0.32050  Biso   1.000  C
  C23      1.0000 0.08910  0.05163  0.82050  Biso   1.000  C
  C24      1.0000 0.91090  0.55163  0.67950  Biso   1.000  C
  C25      1.0000 0.10800  0.02239  0.25560  Biso   1.000  C
  C26      1.0000 0.89200  0.52239  0.24440  Biso   1.000  C
  C27      1.0000 0.89200  0.97761  0.74440  Biso   1.000  C
  C28      1.0000 0.10800  0.47761  0.75560  Biso   1.000  C
  C29      1.0000 0.15150  0.09349  0.34820  Biso   1.000  C
  C30      1.0000 0.84850  0.59349  0.15180  Biso   1.000  C
  C31      1.0000 0.84850  0.90651  0.65180  Biso   1.000  C
  C32      1.0000 0.15150  0.40651  0.84820  Biso   1.000  C
  C33      1.0000 0.27680  0.12032  0.36570  Biso   1.000  C
  C34      1.0000 0.72320  0.62032  0.13430  Biso   1.000  C
  C35      1.0000 0.72320  0.87968  0.63430  Biso   1.000  C
  C36      1.0000 0.27680  0.37968  0.86570  Biso   1.000  C
  H17      1.0000 0.33930  0.09500  0.31670  Biso   1.000  H
  H18      1.0000 0.66070  0.59500  0.18330  Biso   1.000  H
  H19      1.0000 0.66070  0.90500  0.68330  Biso   1.000  H
  H20      1.0000 0.33930  0.40500  0.81670  Biso   1.000  H
  C37      1.0000 0.31040  0.18501  0.45620  Biso   1.000  C
  C38      1.0000 0.68960  0.68501  0.04380  Biso   1.000  C
  C39      1.0000 0.68960  0.81499  0.54380  Biso   1.000  C
  C40      1.0000 0.31040  0.31499  0.95620  Biso   1.000  C
  H21      1.0000 0.39640  0.20450  0.47030  Biso   1.000  H
  H22      1.0000 0.60360  0.70450  0.02970  Biso   1.000  H
  H23      1.0000 0.60360  0.79550  0.52970  Biso   1.000  H
  H24      1.0000 0.39640  0.29550  0.97030  Biso   1.000  H
  C41      1.0000 0.21810  0.22038  0.52490  Biso   1.000  C
  C42      1.0000 0.78190  0.72038  0.97510  Biso   1.000  C
  C43      1.0000 0.78190  0.77962  0.47510  Biso   1.000  C
  C44      1.0000 0.21810  0.27962  0.02490  Biso   1.000  C
  H25      1.0000 0.24020  0.26410  0.58960  Biso   1.000  H
  H26      1.0000 0.75980  0.76410  0.91040  Biso   1.000  H
  H27      1.0000 0.75980  0.73590  0.41040  Biso   1.000  H
  H28      1.0000 0.24020  0.23590  0.08960  Biso   1.000  H
  C45      1.0000 0.09220  0.19196  0.49950  Biso   1.000  C
  C46      1.0000 0.90780  0.69196  0.00050  Biso   1.000  C
  C47      1.0000 0.90780  0.80804  0.50050  Biso   1.000  C
  C48      1.0000 0.09220  0.30804  0.99950  Biso   1.000  C
  H29      1.0000 0.02750  0.21750  0.54360  Biso   1.000  H
  H30      1.0000 0.97250  0.71750  0.95640  Biso   1.000  H
  H31      1.0000 0.97250  0.78250  0.45640  Biso   1.000  H
  H32      1.0000 0.02750  0.28250  0.04360  Biso   1.000  H
  C49      1.0000 0.78150  0.16816  0.95870  Biso   1.000  C
  C50      1.0000 0.21850  0.66816  0.54130  Biso   1.000  C
  C51      1.0000 0.21850  0.83184  0.04130  Biso   1.000  C
  C52      1.0000 0.78150  0.33184  0.45870  Biso   1.000  C
  C53      1.0000 0.72780  0.19103  0.78170  Biso   1.000  C
  C54      1.0000 0.27220  0.69103  0.71830  Biso   1.000  C
  C55      1.0000 0.27220  0.80897  0.21830  Biso   1.000  C
  C56      1.0000 0.72780  0.30897  0.28170  Biso   1.000  C
  C57      1.0000 0.77350  0.16166  0.63900  Biso   1.000  C
  C58      1.0000 0.22650  0.66166  0.86100  Biso   1.000  C
  C59      1.0000 0.22650  0.83834  0.36100  Biso   1.000  C
  C60      1.0000 0.77350  0.33834  0.13900  Biso   1.000  C
  C61      1.0000 0.62630  0.24374  0.74840  Biso   1.000  C
  C62      1.0000 0.37370  0.74374  0.75160  Biso   1.000  C
  C63      1.0000 0.37370  0.75626  0.25160  Biso   1.000  C
  C64      1.0000 0.62630  0.25626  0.24840  Biso   1.000  C
