data_image0
_cell_length_a       14.3045
_cell_length_b       14.4687
_cell_length_c       16.3079
_cell_angle_alpha    90
_cell_angle_beta     90
_cell_angle_gamma    90

_symmetry_space_group_name_H-M    "P 1"
_symmetry_int_tables_number       1

loop_
  _symmetry_equiv_pos_as_xyz
  'x, y, z'

loop_
  _atom_site_label
  _atom_site_occupancy
  _atom_site_fract_x
  _atom_site_fract_y
  _atom_site_fract_z
  _atom_site_thermal_displace_type
  _atom_site_B_iso_or_equiv
  _atom_site_type_symbol
  Cu1      1.0000 0.26438  0.19466  0.53470  Biso   1.000  Cu
  Cu2      1.0000 0.23562  0.80534  0.03470  Biso   1.000  Cu
  Cu3      1.0000 0.76438  0.30534  0.46530  Biso   1.000  Cu
  Cu4      1.0000 0.73562  0.69466  0.96530  Biso   1.000  Cu
  Cu5      1.0000 0.73562  0.80534  0.46530  Biso   1.000  Cu
  Cu6      1.0000 0.76438  0.19466  0.96530  Biso   1.000  Cu
  Cu7      1.0000 0.23562  0.69466  0.53470  Biso   1.000  Cu
  Cu8      1.0000 0.26438  0.30534  0.03470  Biso   1.000  Cu
  C1       1.0000 0.96593  0.06860  0.27054  Biso   1.000  C
  C2       1.0000 0.53407  0.93140  0.77054  Biso   1.000  C
  C3       1.0000 0.46593  0.43140  0.72946  Biso   1.000  C
  C4       1.0000 0.03407  0.56860  0.22946  Biso   1.000  C
  C5       1.0000 0.03407  0.93140  0.72946  Biso   1.000  C
  C6       1.0000 0.46593  0.06860  0.22946  Biso   1.000  C
  C7       1.0000 0.53407  0.56860  0.27054  Biso   1.000  C
  C8       1.0000 0.96593  0.43140  0.77054  Biso   1.000  C
  C9       1.0000 0.98773  0.01170  0.20496  Biso   1.000  C
  C10      1.0000 0.51227  0.98830  0.70496  Biso   1.000  C
  C11      1.0000 0.48773  0.48830  0.79504  Biso   1.000  C
  C12      1.0000 0.01227  0.51170  0.29504  Biso   1.000  C
  C13      1.0000 0.01227  0.98830  0.79504  Biso   1.000  C
  C14      1.0000 0.48773  0.01170  0.29504  Biso   1.000  C
  C15      1.0000 0.51227  0.51170  0.20496  Biso   1.000  C
  C16      1.0000 0.98773  0.48830  0.70496  Biso   1.000  C
  C17      1.0000 0.03433  0.09180  0.32673  Biso   1.000  C
  C18      1.0000 0.46567  0.90820  0.82673  Biso   1.000  C
  C19      1.0000 0.53433  0.40820  0.67327  Biso   1.000  C
  C20      1.0000 0.96567  0.59180  0.17327  Biso   1.000  C
  C21      1.0000 0.96567  0.90820  0.67327  Biso   1.000  C
  C22      1.0000 0.53433  0.09180  0.17327  Biso   1.000  C
  C23      1.0000 0.46567  0.59180  0.32673  Biso   1.000  C
  C24      1.0000 0.03433  0.40820  0.82673  Biso   1.000  C
  C25      1.0000 0.12493  0.06020  0.31675  Biso   1.000  C
  C26      1.0000 0.37507  0.93980  0.81675  Biso   1.000  C
  C27      1.0000 0.62493  0.43980  0.68325  Biso   1.000  C
  C28      1.0000 0.87507  0.56020  0.18325  Biso   1.000  C
  C29      1.0000 0.87507  0.93980  0.68325  Biso   1.000  C
  C30      1.0000 0.62493  0.06020  0.18325  Biso   1.000  C
  C31      1.0000 0.37507  0.56020  0.31675  Biso   1.000  C
  C32      1.0000 0.12493  0.43980  0.81675  Biso   1.000  C
  C33      1.0000 0.07784  0.97915  0.19465  Biso   1.000  C
  C34      1.0000 0.42216  0.02085  0.69465  Biso   1.000  C
  C35      1.0000 0.57784  0.52085  0.80535  Biso   1.000  C
  C36      1.0000 0.92216  0.47915  0.30535  Biso   1.000  C
  C37      1.0000 0.92216  0.02085  0.80535  Biso   1.000  C
  C38      1.0000 0.57784  0.97915  0.30535  Biso   1.000  C
  C39      1.0000 0.42216  0.47915  0.19465  Biso   1.000  C
  C40      1.0000 0.07784  0.52085  0.69465  Biso   1.000  C
  C41      1.0000 0.14631  0.00366  0.25047  Biso   1.000  C
  C42      1.0000 0.35369  0.99634  0.75047  Biso   1.000  C
  C43      1.0000 0.64631  0.49634  0.74953  Biso   1.000  C
  C44      1.0000 0.85369  0.50366  0.24953  Biso   1.000  C
  C45      1.0000 0.85369  0.99634  0.74953  Biso   1.000  C
  C46      1.0000 0.64631  0.00366  0.24953  Biso   1.000  C
  C47      1.0000 0.35369  0.50366  0.25047  Biso   1.000  C
  C48      1.0000 0.14631  0.49634  0.75047  Biso   1.000  C
  C49      1.0000 0.19920  0.09001  0.37630  Biso   1.000  C
  C50      1.0000 0.30080  0.90999  0.87630  Biso   1.000  C
  C51      1.0000 0.69920  0.40999  0.62370  Biso   1.000  C
  C52      1.0000 0.80080  0.59001  0.12370  Biso   1.000  C
  C53      1.0000 0.80080  0.90999  0.62370  Biso   1.000  C
  C54      1.0000 0.69920  0.09001  0.12370  Biso   1.000  C
  C55      1.0000 0.30080  0.59001  0.37630  Biso   1.000  C
  C56      1.0000 0.19920  0.40999  0.87630  Biso   1.000  C
  C57      1.0000 0.09946  0.91830  0.12219  Biso   1.000  C
  C58      1.0000 0.40054  0.08170  0.62219  Biso   1.000  C
  C59      1.0000 0.59946  0.58170  0.87781  Biso   1.000  C
  C60      1.0000 0.90054  0.41830  0.37781  Biso   1.000  C
  C61      1.0000 0.90054  0.08170  0.87781  Biso   1.000  C
  C62      1.0000 0.59946  0.91830  0.37781  Biso   1.000  C
  C63      1.0000 0.40054  0.41830  0.12219  Biso   1.000  C
  C64      1.0000 0.09946  0.58170  0.62219  Biso   1.000  C
  C65      1.0000 0.10080  0.28890  0.57100  Biso   1.000  C
  C66      1.0000 0.39920  0.71110  0.07100  Biso   1.000  C
  C67      1.0000 0.60080  0.21110  0.42900  Biso   1.000  C
  C68      1.0000 0.89920  0.78890  0.92900  Biso   1.000  C
  C69      1.0000 0.89920  0.71110  0.42900  Biso   1.000  C
  C70      1.0000 0.60080  0.28890  0.92900  Biso   1.000  C
  C71      1.0000 0.39920  0.78890  0.57100  Biso   1.000  C
  C72      1.0000 0.10080  0.21110  0.07100  Biso   1.000  C
  C73      1.0000 0.16460  0.36530  0.54670  Biso   1.000  C
  C74      1.0000 0.33540  0.63470  0.04670  Biso   1.000  C
  C75      1.0000 0.66460  0.13470  0.45330  Biso   1.000  C
  C76      1.0000 0.83540  0.86530  0.95330  Biso   1.000  C
  C77      1.0000 0.83540  0.63470  0.45330  Biso   1.000  C
  C78      1.0000 0.66460  0.36530  0.95330  Biso   1.000  C
  C79      1.0000 0.33540  0.86530  0.54670  Biso   1.000  C
  C80      1.0000 0.16460  0.13470  0.04670  Biso   1.000  C
  C81      1.0000 0.21440  0.33020  0.40750  Biso   1.000  C
  C82      1.0000 0.28560  0.66980  0.90750  Biso   1.000  C
  C83      1.0000 0.71440  0.16980  0.59250  Biso   1.000  C
  C84      1.0000 0.78560  0.83020  0.09250  Biso   1.000  C
  C85      1.0000 0.78560  0.66980  0.59250  Biso   1.000  C
  C86      1.0000 0.71440  0.33020  0.09250  Biso   1.000  C
  C87      1.0000 0.28560  0.83020  0.40750  Biso   1.000  C
  C88      1.0000 0.21440  0.16980  0.90750  Biso   1.000  C
  C89      1.0000 0.32610  0.38450  0.50650  Biso   1.000  C
  C90      1.0000 0.17390  0.61550  0.00650  Biso   1.000  C
  C91      1.0000 0.82610  0.11550  0.49350  Biso   1.000  C
  C92      1.0000 0.67390  0.88450  0.99350  Biso   1.000  C
  C93      1.0000 0.67390  0.61550  0.49350  Biso   1.000  C
  C94      1.0000 0.82610  0.38450  0.99350  Biso   1.000  C
  C95      1.0000 0.17390  0.88450  0.50650  Biso   1.000  C
  C96      1.0000 0.32610  0.11550  0.00650  Biso   1.000  C
  C97      1.0000 0.09570  0.12970  0.61640  Biso   1.000  C
  C98      1.0000 0.40430  0.87030  0.11640  Biso   1.000  C
  C99      1.0000 0.59570  0.37030  0.38360  Biso   1.000  C
  C100     1.0000 0.90430  0.62970  0.88360  Biso   1.000  C
  C101     1.0000 0.90430  0.87030  0.38360  Biso   1.000  C
  C102     1.0000 0.59570  0.12970  0.88360  Biso   1.000  C
  C103     1.0000 0.40430  0.62970  0.61640  Biso   1.000  C
  C104     1.0000 0.09570  0.37030  0.11640  Biso   1.000  C
  C105     1.0000 0.18530  0.23920  0.69300  Biso   1.000  C
  C106     1.0000 0.31470  0.76080  0.19300  Biso   1.000  C
  C107     1.0000 0.68530  0.26080  0.30700  Biso   1.000  C
  C108     1.0000 0.81470  0.73920  0.80700  Biso   1.000  C
  C109     1.0000 0.81470  0.76080  0.30700  Biso   1.000  C
  C110     1.0000 0.68530  0.23920  0.80700  Biso   1.000  C
  C111     1.0000 0.31470  0.73920  0.69300  Biso   1.000  C
  C112     1.0000 0.18530  0.26080  0.19300  Biso   1.000  C
  O1       1.0000 0.87852  0.10230  0.28330  Biso   1.000  O
  O2       1.0000 0.62148  0.89770  0.78330  Biso   1.000  O
  O3       1.0000 0.37852  0.39770  0.71670  Biso   1.000  O
  O4       1.0000 0.12148  0.60230  0.21670  Biso   1.000  O
  O5       1.0000 0.12148  0.89770  0.71670  Biso   1.000  O
  O6       1.0000 0.37852  0.10230  0.21670  Biso   1.000  O
  O7       1.0000 0.62148  0.60230  0.28330  Biso   1.000  O
  O8       1.0000 0.87852  0.39770  0.78330  Biso   1.000  O
  O9       1.0000 0.17444  0.12345  0.44314  Biso   1.000  O
  O10      1.0000 0.32556  0.87655  0.94314  Biso   1.000  O
  O11      1.0000 0.67444  0.37655  0.55686  Biso   1.000  O
  O12      1.0000 0.82556  0.62345  0.05686  Biso   1.000  O
  O13      1.0000 0.82556  0.87655  0.55686  Biso   1.000  O
  O14      1.0000 0.67444  0.12345  0.05686  Biso   1.000  O
  O15      1.0000 0.32556  0.62345  0.44314  Biso   1.000  O
  O16      1.0000 0.17444  0.37655  0.94314  Biso   1.000  O
  O17      1.0000 0.28346  0.07902  0.35482  Biso   1.000  O
  O18      1.0000 0.21654  0.92098  0.85482  Biso   1.000  O
  O19      1.0000 0.78346  0.42098  0.64518  Biso   1.000  O
  O20      1.0000 0.71654  0.57902  0.14518  Biso   1.000  O
  O21      1.0000 0.71654  0.92098  0.64518  Biso   1.000  O
  O22      1.0000 0.78346  0.07902  0.14518  Biso   1.000  O
  O23      1.0000 0.21654  0.57902  0.35482  Biso   1.000  O
  O24      1.0000 0.28346  0.42098  0.85482  Biso   1.000  O
  O25      1.0000 0.03480  0.89469  0.07689  Biso   1.000  O
  O26      1.0000 0.46520  0.10531  0.57689  Biso   1.000  O
  O27      1.0000 0.53480  0.60531  0.92311  Biso   1.000  O
  O28      1.0000 0.96520  0.39469  0.42311  Biso   1.000  O
  O29      1.0000 0.96520  0.10531  0.92311  Biso   1.000  O
  O30      1.0000 0.53480  0.89469  0.42311  Biso   1.000  O
  O31      1.0000 0.46520  0.39469  0.07689  Biso   1.000  O
  O32      1.0000 0.03480  0.60531  0.57689  Biso   1.000  O
  O33      1.0000 0.18477  0.89696  0.11231  Biso   1.000  O
  O34      1.0000 0.31523  0.10304  0.61231  Biso   1.000  O
  O35      1.0000 0.68477  0.60304  0.88769  Biso   1.000  O
  O36      1.0000 0.81523  0.39696  0.38769  Biso   1.000  O
  O37      1.0000 0.81523  0.10304  0.88769  Biso   1.000  O
  O38      1.0000 0.68477  0.89696  0.38769  Biso   1.000  O
  O39      1.0000 0.31523  0.39696  0.11231  Biso   1.000  O
  O40      1.0000 0.18477  0.60304  0.61231  Biso   1.000  O
  O41      1.0000 0.37308  0.18390  0.46072  Biso   1.000  O
  O42      1.0000 0.12692  0.81610  0.96072  Biso   1.000  O
  O43      1.0000 0.87308  0.31610  0.53928  Biso   1.000  O
  O44      1.0000 0.62692  0.68390  0.03928  Biso   1.000  O
  O45      1.0000 0.62692  0.81610  0.53928  Biso   1.000  O
  O46      1.0000 0.87308  0.18390  0.03928  Biso   1.000  O
  O47      1.0000 0.12692  0.68390  0.46072  Biso   1.000  O
  O48      1.0000 0.37308  0.31610  0.96072  Biso   1.000  O
  N1       1.0000 0.15420  0.21303  0.60992  Biso   1.000  N
  N2       1.0000 0.34580  0.78697  0.10992  Biso   1.000  N
  N3       1.0000 0.65420  0.28697  0.39008  Biso   1.000  N
  N4       1.0000 0.84580  0.71303  0.89008  Biso   1.000  N
  N5       1.0000 0.84580  0.78697  0.39008  Biso   1.000  N
  N6       1.0000 0.65420  0.21303  0.89008  Biso   1.000  N
  N7       1.0000 0.34580  0.71303  0.60992  Biso   1.000  N
  N8       1.0000 0.15420  0.28697  0.10992  Biso   1.000  N
  N9       1.0000 0.24109  0.32840  0.49515  Biso   1.000  N
  N10      1.0000 0.25891  0.67160  0.99515  Biso   1.000  N
  N11      1.0000 0.74109  0.17160  0.50485  Biso   1.000  N
  N12      1.0000 0.75891  0.82840  0.00485  Biso   1.000  N
  N13      1.0000 0.75891  0.67160  0.50485  Biso   1.000  N
  N14      1.0000 0.74109  0.32840  0.00485  Biso   1.000  N
  N15      1.0000 0.25891  0.82840  0.49515  Biso   1.000  N
  N16      1.0000 0.24109  0.17160  0.99515  Biso   1.000  N
  H1       1.0000 0.94560  0.99350  0.17070  Biso   1.000  H
  H2       1.0000 0.55440  0.00650  0.67070  Biso   1.000  H
  H3       1.0000 0.44560  0.50650  0.82930  Biso   1.000  H
  H4       1.0000 0.05440  0.49350  0.32930  Biso   1.000  H
  H5       1.0000 0.05440  0.00650  0.82930  Biso   1.000  H
  H6       1.0000 0.44560  0.99350  0.32930  Biso   1.000  H
  H7       1.0000 0.55440  0.49350  0.17070  Biso   1.000  H
  H8       1.0000 0.94560  0.50650  0.67070  Biso   1.000  H
  H9       1.0000 0.01950  0.13000  0.36820  Biso   1.000  H
  H10      1.0000 0.48050  0.87000  0.86820  Biso   1.000  H
  H11      1.0000 0.51950  0.37000  0.63180  Biso   1.000  H
  H12      1.0000 0.98050  0.63000  0.13180  Biso   1.000  H
  H13      1.0000 0.98050  0.87000  0.63180  Biso   1.000  H
  H14      1.0000 0.51950  0.13000  0.13180  Biso   1.000  H
  H15      1.0000 0.48050  0.63000  0.36820  Biso   1.000  H
  H16      1.0000 0.01950  0.37000  0.86820  Biso   1.000  H
  H17      1.0000 0.20300  0.98300  0.24350  Biso   1.000  H
  H18      1.0000 0.29700  0.01700  0.74350  Biso   1.000  H
  H19      1.0000 0.70300  0.51700  0.75650  Biso   1.000  H
  H20      1.0000 0.79700  0.48300  0.25650  Biso   1.000  H
  H21      1.0000 0.79700  0.01700  0.75650  Biso   1.000  H
  H22      1.0000 0.70300  0.98300  0.25650  Biso   1.000  H
  H23      1.0000 0.29700  0.48300  0.24350  Biso   1.000  H
  H24      1.0000 0.20300  0.51700  0.74350  Biso   1.000  H
  H25      1.0000 0.85000  0.09600  0.25300  Biso   1.000  H
  H26      1.0000 0.65000  0.90400  0.75300  Biso   1.000  H
  H27      1.0000 0.35000  0.40400  0.74700  Biso   1.000  H
  H28      1.0000 0.15000  0.59600  0.24700  Biso   1.000  H
  H29      1.0000 0.15000  0.90400  0.74700  Biso   1.000  H
  H30      1.0000 0.35000  0.09600  0.24700  Biso   1.000  H
  H31      1.0000 0.65000  0.59600  0.25300  Biso   1.000  H
  H32      1.0000 0.85000  0.40400  0.75300  Biso   1.000  H
  H33      1.0000 0.07100  0.26400  0.52100  Biso   1.000  H
  H34      1.0000 0.42900  0.73600  0.02100  Biso   1.000  H
  H35      1.0000 0.57100  0.23600  0.47900  Biso   1.000  H
  H36      1.0000 0.92900  0.76400  0.97900  Biso   1.000  H
  H37      1.0000 0.92900  0.73600  0.47900  Biso   1.000  H
  H38      1.0000 0.57100  0.26400  0.97900  Biso   1.000  H
  H39      1.0000 0.42900  0.76400  0.52100  Biso   1.000  H
  H40      1.0000 0.07100  0.23600  0.02100  Biso   1.000  H
  H41      1.0000 0.05600  0.30900  0.60500  Biso   1.000  H
  H42      1.0000 0.44400  0.69100  0.10500  Biso   1.000  H
  H43      1.0000 0.55600  0.19100  0.39500  Biso   1.000  H
  H44      1.0000 0.94400  0.80900  0.89500  Biso   1.000  H
  H45      1.0000 0.94400  0.69100  0.39500  Biso   1.000  H
  H46      1.0000 0.55600  0.30900  0.89500  Biso   1.000  H
  H47      1.0000 0.44400  0.80900  0.60500  Biso   1.000  H
  H48      1.0000 0.05600  0.19100  0.10500  Biso   1.000  H
  H49      1.0000 0.13100  0.41300  0.51600  Biso   1.000  H
  H50      1.0000 0.36900  0.58700  0.01600  Biso   1.000  H
  H51      1.0000 0.63100  0.08700  0.48400  Biso   1.000  H
  H52      1.0000 0.86900  0.91300  0.98400  Biso   1.000  H
  H53      1.0000 0.86900  0.58700  0.48400  Biso   1.000  H
  H54      1.0000 0.63100  0.41300  0.98400  Biso   1.000  H
  H55      1.0000 0.36900  0.91300  0.51600  Biso   1.000  H
  H56      1.0000 0.13100  0.08700  0.01600  Biso   1.000  H
  H57      1.0000 0.19300  0.38900  0.59400  Biso   1.000  H
  H58      1.0000 0.30700  0.61100  0.09400  Biso   1.000  H
  H59      1.0000 0.69300  0.11100  0.40600  Biso   1.000  H
  H60      1.0000 0.80700  0.88900  0.90600  Biso   1.000  H
  H61      1.0000 0.80700  0.61100  0.40600  Biso   1.000  H
  H62      1.0000 0.69300  0.38900  0.90600  Biso   1.000  H
  H63      1.0000 0.30700  0.88900  0.59400  Biso   1.000  H
  H64      1.0000 0.19300  0.11100  0.09400  Biso   1.000  H
  H65      1.0000 0.26300  0.30100  0.37600  Biso   1.000  H
  H66      1.0000 0.23700  0.69900  0.87600  Biso   1.000  H
  H67      1.0000 0.76300  0.19900  0.62400  Biso   1.000  H
  H68      1.0000 0.73700  0.80100  0.12400  Biso   1.000  H
  H69      1.0000 0.73700  0.69900  0.62400  Biso   1.000  H
  H70      1.0000 0.76300  0.30100  0.12400  Biso   1.000  H
  H71      1.0000 0.23700  0.80100  0.37600  Biso   1.000  H
  H72      1.0000 0.26300  0.19900  0.87600  Biso   1.000  H
  H73      1.0000 0.15700  0.30000  0.40000  Biso   1.000  H
  H74      1.0000 0.34300  0.70000  0.90000  Biso   1.000  H
  H75      1.0000 0.65700  0.20000  0.60000  Biso   1.000  H
  H76      1.0000 0.84300  0.80000  0.10000  Biso   1.000  H
  H77      1.0000 0.84300  0.70000  0.60000  Biso   1.000  H
  H78      1.0000 0.65700  0.30000  0.10000  Biso   1.000  H
  H79      1.0000 0.34300  0.80000  0.40000  Biso   1.000  H
  H80      1.0000 0.15700  0.20000  0.90000  Biso   1.000  H
  H81      1.0000 0.21000  0.38900  0.38980  Biso   1.000  H
  H82      1.0000 0.29000  0.61100  0.88980  Biso   1.000  H
  H83      1.0000 0.71000  0.11100  0.61020  Biso   1.000  H
  H84      1.0000 0.79000  0.88900  0.11020  Biso   1.000  H
  H85      1.0000 0.79000  0.61100  0.61020  Biso   1.000  H
  H86      1.0000 0.71000  0.38900  0.11020  Biso   1.000  H
  H87      1.0000 0.29000  0.88900  0.38980  Biso   1.000  H
  H88      1.0000 0.21000  0.11100  0.88980  Biso   1.000  H
  H89      1.0000 0.31100  0.44600  0.49800  Biso   1.000  H
  H90      1.0000 0.18900  0.55400  0.99800  Biso   1.000  H
  H91      1.0000 0.81100  0.05400  0.50200  Biso   1.000  H
  H92      1.0000 0.68900  0.94600  0.00200  Biso   1.000  H
  H93      1.0000 0.68900  0.55400  0.50200  Biso   1.000  H
  H94      1.0000 0.81100  0.44600  0.00200  Biso   1.000  H
  H95      1.0000 0.18900  0.94600  0.49800  Biso   1.000  H
  H96      1.0000 0.31100  0.05400  0.99800  Biso   1.000  H
  H97      1.0000 0.37100  0.36300  0.47100  Biso   1.000  H
  H98      1.0000 0.12900  0.63700  0.97100  Biso   1.000  H
  H99      1.0000 0.87100  0.13700  0.52900  Biso   1.000  H
  H100     1.0000 0.62900  0.86300  0.02900  Biso   1.000  H
  H101     1.0000 0.62900  0.63700  0.52900  Biso   1.000  H
  H102     1.0000 0.87100  0.36300  0.02900  Biso   1.000  H
  H103     1.0000 0.12900  0.86300  0.47100  Biso   1.000  H
  H104     1.0000 0.37100  0.13700  0.97100  Biso   1.000  H
  H105     1.0000 0.34200  0.38400  0.56400  Biso   1.000  H
  H106     1.0000 0.15800  0.61600  0.06400  Biso   1.000  H
  H107     1.0000 0.84200  0.11600  0.43600  Biso   1.000  H
  H108     1.0000 0.65800  0.88400  0.93600  Biso   1.000  H
  H109     1.0000 0.65800  0.61600  0.43600  Biso   1.000  H
  H110     1.0000 0.84200  0.38400  0.93600  Biso   1.000  H
  H111     1.0000 0.15800  0.88400  0.56400  Biso   1.000  H
  H112     1.0000 0.34200  0.11600  0.06400  Biso   1.000  H
  H113     1.0000 0.07400  0.10800  0.56600  Biso   1.000  H
  H114     1.0000 0.42600  0.89200  0.06600  Biso   1.000  H
  H115     1.0000 0.57400  0.39200  0.43400  Biso   1.000  H
  H116     1.0000 0.92600  0.60800  0.93400  Biso   1.000  H
  H117     1.0000 0.92600  0.89200  0.43400  Biso   1.000  H
  H118     1.0000 0.57400  0.10800  0.93400  Biso   1.000  H
  H119     1.0000 0.42600  0.60800  0.56600  Biso   1.000  H
  H120     1.0000 0.07400  0.39200  0.06600  Biso   1.000  H
  H121     1.0000 0.04100  0.14000  0.64600  Biso   1.000  H
  H122     1.0000 0.45900  0.86000  0.14600  Biso   1.000  H
  H123     1.0000 0.54100  0.36000  0.35400  Biso   1.000  H
  H124     1.0000 0.95900  0.64000  0.85400  Biso   1.000  H
  H125     1.0000 0.95900  0.86000  0.35400  Biso   1.000  H
  H126     1.0000 0.54100  0.14000  0.85400  Biso   1.000  H
  H127     1.0000 0.45900  0.64000  0.64600  Biso   1.000  H
  H128     1.0000 0.04100  0.36000  0.14600  Biso   1.000  H
  H129     1.0000 0.13200  0.08100  0.63800  Biso   1.000  H
  H130     1.0000 0.36800  0.91900  0.13800  Biso   1.000  H
  H131     1.0000 0.63200  0.41900  0.36200  Biso   1.000  H
  H132     1.0000 0.86800  0.58100  0.86200  Biso   1.000  H
  H133     1.0000 0.86800  0.91900  0.36200  Biso   1.000  H
  H134     1.0000 0.63200  0.08100  0.86200  Biso   1.000  H
  H135     1.0000 0.36800  0.58100  0.63800  Biso   1.000  H
  H136     1.0000 0.13200  0.41900  0.13800  Biso   1.000  H
  H137     1.0000 0.22700  0.28500  0.69100  Biso   1.000  H
  H138     1.0000 0.27300  0.71500  0.19100  Biso   1.000  H
  H139     1.0000 0.72700  0.21500  0.30900  Biso   1.000  H
  H140     1.0000 0.77300  0.78500  0.80900  Biso   1.000  H
  H141     1.0000 0.77300  0.71500  0.30900  Biso   1.000  H
  H142     1.0000 0.72700  0.28500  0.80900  Biso   1.000  H
  H143     1.0000 0.27300  0.78500  0.69100  Biso   1.000  H
  H144     1.0000 0.22700  0.21500  0.19100  Biso   1.000  H
  H145     1.0000 0.21500  0.18900  0.71700  Biso   1.000  H
  H146     1.0000 0.28500  0.81100  0.21700  Biso   1.000  H
  H147     1.0000 0.71500  0.31100  0.28300  Biso   1.000  H
  H148     1.0000 0.78500  0.68900  0.78300  Biso   1.000  H
  H149     1.0000 0.78500  0.81100  0.28300  Biso   1.000  H
  H150     1.0000 0.71500  0.18900  0.78300  Biso   1.000  H
  H151     1.0000 0.28500  0.68900  0.71700  Biso   1.000  H
  H152     1.0000 0.21500  0.31100  0.21700  Biso   1.000  H
  H153     1.0000 0.13200  0.24900  0.72500  Biso   1.000  H
  H154     1.0000 0.36800  0.75100  0.22500  Biso   1.000  H
  H155     1.0000 0.63200  0.25100  0.27500  Biso   1.000  H
  H156     1.0000 0.86800  0.74900  0.77500  Biso   1.000  H
  H157     1.0000 0.86800  0.75100  0.27500  Biso   1.000  H
  H158     1.0000 0.63200  0.24900  0.77500  Biso   1.000  H
  H159     1.0000 0.36800  0.74900  0.72500  Biso   1.000  H
  H160     1.0000 0.13200  0.25100  0.22500  Biso   1.000  H
  H161     1.0000 0.35100  0.14800  0.42700  Biso   1.000  H
  H162     1.0000 0.14900  0.85200  0.92700  Biso   1.000  H
  H163     1.0000 0.85100  0.35200  0.57300  Biso   1.000  H
  H164     1.0000 0.64900  0.64800  0.07300  Biso   1.000  H
  H165     1.0000 0.64900  0.85200  0.57300  Biso   1.000  H
  H166     1.0000 0.85100  0.14800  0.07300  Biso   1.000  H
  H167     1.0000 0.14900  0.64800  0.42700  Biso   1.000  H
  H168     1.0000 0.35100  0.35200  0.92700  Biso   1.000  H
  H169     1.0000 0.40800  0.16100  0.48800  Biso   1.000  H
  H170     1.0000 0.09200  0.83900  0.98800  Biso   1.000  H
  H171     1.0000 0.90800  0.33900  0.51200  Biso   1.000  H
  H172     1.0000 0.59200  0.66100  0.01200  Biso   1.000  H
  H173     1.0000 0.59200  0.83900  0.51200  Biso   1.000  H
  H174     1.0000 0.90800  0.16100  0.01200  Biso   1.000  H
  H175     1.0000 0.09200  0.66100  0.48800  Biso   1.000  H
  H176     1.0000 0.40800  0.33900  0.98800  Biso   1.000  H
