data_image0
_cell_length_a       12.266
_cell_length_b       10.52
_cell_length_c       13.811
_cell_angle_alpha    90
_cell_angle_beta     111.03
_cell_angle_gamma    90

_symmetry_space_group_name_H-M    "P 1"
_symmetry_int_tables_number       1

loop_
  _symmetry_equiv_pos_as_xyz
  'x, y, z'

loop_
  _atom_site_label
  _atom_site_occupancy
  _atom_site_fract_x
  _atom_site_fract_y
  _atom_site_fract_z
  _atom_site_thermal_displace_type
  _atom_site_B_iso_or_equiv
  _atom_site_type_symbol
  C1       1.0000 0.00300  0.99630  0.22930  Biso   1.000  C
  C2       1.0000 0.49700  0.49630  0.27070  Biso   1.000  C
  C3       1.0000 0.99700  0.00370  0.77070  Biso   1.000  C
  C4       1.0000 0.50300  0.50370  0.72930  Biso   1.000  C
  C5       1.0000 0.11570  0.05360  0.30120  Biso   1.000  C
  C6       1.0000 0.38430  0.55360  0.19880  Biso   1.000  C
  C7       1.0000 0.88430  0.94640  0.69880  Biso   1.000  C
  C8       1.0000 0.61570  0.44640  0.80120  Biso   1.000  C
  C9       1.0000 0.22010  0.00350  0.30150  Biso   1.000  C
  C10      1.0000 0.27990  0.50350  0.19850  Biso   1.000  C
  C11      1.0000 0.77990  0.99650  0.69850  Biso   1.000  C
  C12      1.0000 0.72010  0.49650  0.80150  Biso   1.000  C
  H1       1.0000 0.22070  0.93260  0.26150  Biso   1.000  H
  H2       1.0000 0.27930  0.43260  0.23850  Biso   1.000  H
  H3       1.0000 0.77930  0.06740  0.73850  Biso   1.000  H
  H4       1.0000 0.72070  0.56740  0.76150  Biso   1.000  H
  C13      1.0000 0.32310  0.06040  0.36220  Biso   1.000  C
  C14      1.0000 0.17690  0.56040  0.13780  Biso   1.000  C
  C15      1.0000 0.67690  0.93960  0.63780  Biso   1.000  C
  C16      1.0000 0.82310  0.43960  0.86220  Biso   1.000  C
  C17      1.0000 0.32660  0.16590  0.42270  Biso   1.000  C
  C18      1.0000 0.17340  0.66590  0.07730  Biso   1.000  C
  C19      1.0000 0.67340  0.83410  0.57730  Biso   1.000  C
  C20      1.0000 0.82660  0.33410  0.92270  Biso   1.000  C
  H5       1.0000 0.39710  0.20440  0.46100  Biso   1.000  H
  H6       1.0000 0.10290  0.70440  0.03900  Biso   1.000  H
  H7       1.0000 0.60290  0.79560  0.53900  Biso   1.000  H
  H8       1.0000 0.89710  0.29560  0.96100  Biso   1.000  H
  C21      1.0000 0.22120  0.21300  0.42460  Biso   1.000  C
  C22      1.0000 0.27880  0.71300  0.07540  Biso   1.000  C
  C23      1.0000 0.77880  0.78700  0.57540  Biso   1.000  C
  C24      1.0000 0.72120  0.28700  0.92460  Biso   1.000  C
  C25      1.0000 0.11690  0.15650  0.36350  Biso   1.000  C
  C26      1.0000 0.38310  0.65650  0.13650  Biso   1.000  C
  C27      1.0000 0.88310  0.84350  0.63650  Biso   1.000  C
  C28      1.0000 0.61690  0.34350  0.86350  Biso   1.000  C
  H9       1.0000 0.04670  0.18850  0.36470  Biso   1.000  H
  H10      1.0000 0.45330  0.68850  0.13530  Biso   1.000  H
  H11      1.0000 0.95330  0.81150  0.63530  Biso   1.000  H
  H12      1.0000 0.54670  0.31150  0.86470  Biso   1.000  H
  C29      1.0000 0.22040  0.32890  0.48950  Biso   1.000  C
  C30      1.0000 0.27960  0.82890  0.01050  Biso   1.000  C
  C31      1.0000 0.77960  0.67110  0.51050  Biso   1.000  C
  C32      1.0000 0.72040  0.17110  0.98950  Biso   1.000  C
  C33      1.0000 0.66330  0.74450  0.09830  Biso   1.000  C
  C34      1.0000 0.83670  0.24450  0.40170  Biso   1.000  C
  C35      1.0000 0.33670  0.25550  0.90170  Biso   1.000  C
  C36      1.0000 0.16330  0.75550  0.59830  Biso   1.000  C
  H13      1.0000 0.65450  0.66530  0.13060  Biso   1.000  H
  H14      1.0000 0.84550  0.16530  0.36940  Biso   1.000  H
  H15      1.0000 0.34550  0.33470  0.86940  Biso   1.000  H
  H16      1.0000 0.15450  0.83470  0.63060  Biso   1.000  H
  H17      1.0000 0.58620  0.78010  0.06320  Biso   1.000  H
  H18      1.0000 0.91380  0.28010  0.43680  Biso   1.000  H
  H19      1.0000 0.41380  0.21990  0.93680  Biso   1.000  H
  H20      1.0000 0.08620  0.71990  0.56320  Biso   1.000  H
  C37      1.0000 0.72040  0.72020  0.02230  Biso   1.000  C
  C38      1.0000 0.77960  0.22020  0.47770  Biso   1.000  C
  C39      1.0000 0.27960  0.27980  0.97770  Biso   1.000  C
  C40      1.0000 0.22040  0.77980  0.52230  Biso   1.000  C
  H21      1.0000 0.79450  0.67750  0.05600  Biso   1.000  H
  H22      1.0000 0.70550  0.17750  0.44400  Biso   1.000  H
  H23      1.0000 0.20550  0.32250  0.94400  Biso   1.000  H
  H24      1.0000 0.29450  0.82250  0.55600  Biso   1.000  H
  H25      1.0000 0.67130  0.66570  0.96720  Biso   1.000  H
  H26      1.0000 0.82870  0.16570  0.53280  Biso   1.000  H
  H27      1.0000 0.32870  0.33430  0.03280  Biso   1.000  H
  H28      1.0000 0.17130  0.83430  0.46720  Biso   1.000  H
  C41      1.0000 0.65860  0.89800  0.22670  Biso   1.000  C
  C42      1.0000 0.84140  0.39800  0.27330  Biso   1.000  C
  C43      1.0000 0.34140  0.10200  0.77330  Biso   1.000  C
  C44      1.0000 0.15860  0.60200  0.72670  Biso   1.000  C
  H29      1.0000 0.59740  0.94300  0.17420  Biso   1.000  H
  H30      1.0000 0.90260  0.44300  0.32580  Biso   1.000  H
  H31      1.0000 0.40260  0.05700  0.82580  Biso   1.000  H
  H32      1.0000 0.09740  0.55700  0.67420  Biso   1.000  H
  H33      1.0000 0.70370  0.95670  0.27890  Biso   1.000  H
  H34      1.0000 0.79630  0.45670  0.22110  Biso   1.000  H
  H35      1.0000 0.29630  0.04330  0.72110  Biso   1.000  H
  H36      1.0000 0.20370  0.54330  0.77890  Biso   1.000  H
  H37      1.0000 0.62490  0.83500  0.25780  Biso   1.000  H
  H38      1.0000 0.87510  0.33500  0.24220  Biso   1.000  H
  H39      1.0000 0.37510  0.16500  0.74220  Biso   1.000  H
  H40      1.0000 0.12490  0.66500  0.75780  Biso   1.000  H
  C45      1.0000 0.82930  0.76570  0.25830  Biso   1.000  C
  C46      1.0000 0.67070  0.26570  0.24170  Biso   1.000  C
  C47      1.0000 0.17070  0.23430  0.74170  Biso   1.000  C
  C48      1.0000 0.32930  0.73430  0.75830  Biso   1.000  C
  H41      1.0000 0.87880  0.72590  0.22690  Biso   1.000  H
  H42      1.0000 0.62120  0.22590  0.27310  Biso   1.000  H
  H43      1.0000 0.12120  0.27410  0.77310  Biso   1.000  H
  H44      1.0000 0.37880  0.77410  0.72690  Biso   1.000  H
  H45      1.0000 0.79600  0.70180  0.28900  Biso   1.000  H
  H46      1.0000 0.70400  0.20180  0.21100  Biso   1.000  H
  H47      1.0000 0.20400  0.29820  0.71100  Biso   1.000  H
  H48      1.0000 0.29600  0.79820  0.78900  Biso   1.000  H
  H49      1.0000 0.87440  0.82390  0.31100  Biso   1.000  H
  H50      1.0000 0.62560  0.32390  0.18900  Biso   1.000  H
  H51      1.0000 0.12560  0.17610  0.68900  Biso   1.000  H
  H52      1.0000 0.37440  0.67610  0.81100  Biso   1.000  H
  C49      1.0000 0.63220  0.88330  0.89410  Biso   1.000  C
  C50      1.0000 0.86780  0.38330  0.60590  Biso   1.000  C
  C51      1.0000 0.36780  0.11670  0.10590  Biso   1.000  C
  C52      1.0000 0.13220  0.61670  0.39410  Biso   1.000  C
  H53      1.0000 0.64600  0.96300  0.86660  Biso   1.000  H
  H54      1.0000 0.85400  0.46300  0.63340  Biso   1.000  H
  H55      1.0000 0.35400  0.03700  0.13340  Biso   1.000  H
  H56      1.0000 0.14600  0.53700  0.36660  Biso   1.000  H
  H57      1.0000 0.57020  0.89310  0.92060  Biso   1.000  H
  H58      1.0000 0.92980  0.39310  0.57940  Biso   1.000  H
  H59      1.0000 0.42980  0.10690  0.07940  Biso   1.000  H
  H60      1.0000 0.07020  0.60690  0.42060  Biso   1.000  H
  H61      1.0000 0.61040  0.82050  0.84010  Biso   1.000  H
  H62      1.0000 0.88960  0.32050  0.65990  Biso   1.000  H
  H63      1.0000 0.38960  0.17950  0.15990  Biso   1.000  H
  H64      1.0000 0.11040  0.67950  0.34010  Biso   1.000  H
  C53      1.0000 0.83530  0.83070  0.93800  Biso   1.000  C
  C54      1.0000 0.66470  0.33070  0.56200  Biso   1.000  C
  C55      1.0000 0.16470  0.16930  0.06200  Biso   1.000  C
  C56      1.0000 0.33530  0.66930  0.43800  Biso   1.000  C
  H65      1.0000 0.84660  0.91080  0.90970  Biso   1.000  H
  H66      1.0000 0.65340  0.41080  0.59030  Biso   1.000  H
  H67      1.0000 0.15340  0.08920  0.09030  Biso   1.000  H
  H68      1.0000 0.34660  0.58920  0.40970  Biso   1.000  H
  H69      1.0000 0.81560  0.76700  0.88470  Biso   1.000  H
  H70      1.0000 0.68440  0.26700  0.61530  Biso   1.000  H
  H71      1.0000 0.18440  0.23300  0.11530  Biso   1.000  H
  H72      1.0000 0.31560  0.73300  0.38470  Biso   1.000  H
  H73      1.0000 0.90600  0.80670  0.99320  Biso   1.000  H
  H74      1.0000 0.59400  0.30670  0.50680  Biso   1.000  H
  H75      1.0000 0.09400  0.19330  0.00680  Biso   1.000  H
  H76      1.0000 0.40600  0.69330  0.49320  Biso   1.000  H
  O1       1.0000 0.90760  0.04610  0.22930  Biso   1.000  O
  O2       1.0000 0.59240  0.54610  0.27070  Biso   1.000  O
  O3       1.0000 0.09240  0.95390  0.77070  Biso   1.000  O
  O4       1.0000 0.40760  0.45390  0.72930  Biso   1.000  O
  O5       1.0000 0.00620  0.90820  0.17200  Biso   1.000  O
  O6       1.0000 0.49380  0.40820  0.32800  Biso   1.000  O
  O7       1.0000 0.99380  0.09180  0.82800  Biso   1.000  O
  O8       1.0000 0.50620  0.59180  0.67200  Biso   1.000  O
  O9       1.0000 0.13210  0.35320  0.50990  Biso   1.000  O
  O10      1.0000 0.36790  0.85320  0.99010  Biso   1.000  O
  O11      1.0000 0.86790  0.64680  0.49010  Biso   1.000  O
  O12      1.0000 0.63210  0.14680  0.00990  Biso   1.000  O
  O13      1.0000 0.31330  0.39480  0.51900  Biso   1.000  O
  O14      1.0000 0.18670  0.89480  0.98100  Biso   1.000  O
  O15      1.0000 0.68670  0.60520  0.48100  Biso   1.000  O
  O16      1.0000 0.81330  0.10520  0.01900  Biso   1.000  O
  O17      1.0000 0.43050  0.90920  0.31370  Biso   1.000  O
  O18      1.0000 0.06950  0.40920  0.18630  Biso   1.000  O
  O19      1.0000 0.56950  0.09080  0.68630  Biso   1.000  O
  O20      1.0000 0.93050  0.59080  0.81370  Biso   1.000  O
  O21      1.0000 0.52390  0.06540  0.40660  Biso   1.000  O
  O22      1.0000 0.97610  0.56540  0.09340  Biso   1.000  O
  O23      1.0000 0.47610  0.93460  0.59340  Biso   1.000  O
  O24      1.0000 0.02390  0.43460  0.90660  Biso   1.000  O
  N1       1.0000 0.43460  0.00780  0.36080  Biso   1.000  N
  N2       1.0000 0.06540  0.50780  0.13920  Biso   1.000  N
  N3       1.0000 0.56540  0.99220  0.63920  Biso   1.000  N
  N4       1.0000 0.93460  0.49220  0.86080  Biso   1.000  N
  N5       1.0000 0.73550  0.83490  0.17900  Biso   1.000  N
  N6       1.0000 0.76450  0.33490  0.32100  Biso   1.000  N
  N7       1.0000 0.26450  0.16510  0.82100  Biso   1.000  N
  N8       1.0000 0.23550  0.66510  0.67900  Biso   1.000  N
  N9       1.0000 0.73970  0.84220  0.97870  Biso   1.000  N
  N10      1.0000 0.76030  0.34220  0.52130  Biso   1.000  N
  N11      1.0000 0.26030  0.15780  0.02130  Biso   1.000  N
  N12      1.0000 0.23970  0.65780  0.47870  Biso   1.000  N
  Cu1      1.0000 0.79699  0.96271  0.10180  Biso   1.000  Cu
  Cu2      1.0000 0.70301  0.46271  0.39820  Biso   1.000  Cu
  Cu3      1.0000 0.20301  0.03729  0.89820  Biso   1.000  Cu
  Cu4      1.0000 0.29699  0.53729  0.60180  Biso   1.000  Cu
