data_image0
_cell_length_a       9.4403
_cell_length_b       14.647
_cell_length_c       15.286
_cell_angle_alpha    90
_cell_angle_beta     101.39
_cell_angle_gamma    90

_symmetry_space_group_name_H-M    "P 1"
_symmetry_int_tables_number       1

loop_
  _symmetry_equiv_pos_as_xyz
  'x, y, z'

loop_
  _atom_site_label
  _atom_site_occupancy
  _atom_site_fract_x
  _atom_site_fract_y
  _atom_site_fract_z
  _atom_site_thermal_displace_type
  _atom_site_B_iso_or_equiv
  _atom_site_type_symbol
  C1       1.0000 0.99840  0.65680  0.91050  Biso   1.000  C
  C2       1.0000 0.50160  0.15680  0.58950  Biso   1.000  C
  C3       1.0000 0.00160  0.34320  0.08950  Biso   1.000  C
  C4       1.0000 0.49840  0.84320  0.41050  Biso   1.000  C
  H1       1.0000 0.91420  0.68460  0.92000  Biso   1.000  H
  H2       1.0000 0.58580  0.18460  0.58000  Biso   1.000  H
  H3       1.0000 0.08580  0.31540  0.08000  Biso   1.000  H
  H4       1.0000 0.41420  0.81540  0.42000  Biso   1.000  H
  C5       1.0000 0.98780  0.58590  0.84900  Biso   1.000  C
  C6       1.0000 0.51220  0.08590  0.65100  Biso   1.000  C
  C7       1.0000 0.01220  0.41410  0.15100  Biso   1.000  C
  C8       1.0000 0.48780  0.91410  0.34900  Biso   1.000  C
  H5       1.0000 0.89780  0.56710  0.81780  Biso   1.000  H
  H6       1.0000 0.60220  0.06710  0.68220  Biso   1.000  H
  H7       1.0000 0.10220  0.43290  0.18220  Biso   1.000  H
  H8       1.0000 0.39780  0.93290  0.31780  Biso   1.000  H
  C9       1.0000 0.11080  0.54390  0.83480  Biso   1.000  C
  C10      1.0000 0.38920  0.04390  0.66520  Biso   1.000  C
  C11      1.0000 0.88920  0.45610  0.16520  Biso   1.000  C
  C12      1.0000 0.61080  0.95610  0.33480  Biso   1.000  C
  H9       1.0000 0.10510  0.49560  0.79480  Biso   1.000  H
  H10      1.0000 0.39490  0.99560  0.70520  Biso   1.000  H
  H11      1.0000 0.89490  0.50440  0.20520  Biso   1.000  H
  H12      1.0000 0.60510  0.00440  0.29480  Biso   1.000  H
  C13      1.0000 0.24600  0.57465  0.88124  Biso   1.000  C
  C14      1.0000 0.25400  0.07465  0.61876  Biso   1.000  C
  C15      1.0000 0.75400  0.42535  0.11876  Biso   1.000  C
  C16      1.0000 0.74600  0.92535  0.38124  Biso   1.000  C
  C17      1.0000 0.24690  0.64664  0.94096  Biso   1.000  C
  C18      1.0000 0.25310  0.14664  0.55904  Biso   1.000  C
  C19      1.0000 0.75310  0.35336  0.05904  Biso   1.000  C
  C20      1.0000 0.74690  0.85336  0.44096  Biso   1.000  C
  C21      1.0000 0.38260  0.68398  0.98959  Biso   1.000  C
  C22      1.0000 0.11740  0.18398  0.51041  Biso   1.000  C
  C23      1.0000 0.61740  0.31602  0.01041  Biso   1.000  C
  C24      1.0000 0.88260  0.81602  0.48959  Biso   1.000  C
  C25      1.0000 0.49470  0.78832  0.09217  Biso   1.000  C
  C26      1.0000 0.00530  0.28832  0.40783  Biso   1.000  C
  C27      1.0000 0.50530  0.21168  0.90783  Biso   1.000  C
  C28      1.0000 0.99470  0.71168  0.59217  Biso   1.000  C
  H13      1.0000 0.48900  0.83570  0.13180  Biso   1.000  H
  H14      1.0000 0.01100  0.33570  0.36820  Biso   1.000  H
  H15      1.0000 0.51100  0.16430  0.86820  Biso   1.000  H
  H16      1.0000 0.98900  0.66430  0.63180  Biso   1.000  H
  C29      1.0000 0.63060  0.75700  0.08400  Biso   1.000  C
  C30      1.0000 0.86940  0.25700  0.41600  Biso   1.000  C
  C31      1.0000 0.36940  0.24300  0.91600  Biso   1.000  C
  C32      1.0000 0.13060  0.74300  0.58400  Biso   1.000  C
  H17      1.0000 0.71360  0.78310  0.11760  Biso   1.000  H
  H18      1.0000 0.78640  0.28310  0.38240  Biso   1.000  H
  H19      1.0000 0.28640  0.21690  0.88240  Biso   1.000  H
  H20      1.0000 0.21360  0.71690  0.61760  Biso   1.000  H
  C33      1.0000 0.64070  0.68726  0.02590  Biso   1.000  C
  C34      1.0000 0.85930  0.18726  0.47410  Biso   1.000  C
  C35      1.0000 0.35930  0.31274  0.97410  Biso   1.000  C
  C36      1.0000 0.14070  0.81274  0.52590  Biso   1.000  C
  H21      1.0000 0.73060  0.66610  0.01890  Biso   1.000  H
  H22      1.0000 0.76940  0.16610  0.48110  Biso   1.000  H
  H23      1.0000 0.26940  0.33390  0.98110  Biso   1.000  H
  H24      1.0000 0.23060  0.83390  0.51890  Biso   1.000  H
  C37      1.0000 0.51400  0.64820  0.97710  Biso   1.000  C
  C38      1.0000 0.98600  0.14820  0.52290  Biso   1.000  C
  C39      1.0000 0.48600  0.35180  0.02290  Biso   1.000  C
  C40      1.0000 0.01400  0.85180  0.47710  Biso   1.000  C
  C41      1.0000 0.51340  0.57144  0.91635  Biso   1.000  C
  C42      1.0000 0.98660  0.07144  0.58365  Biso   1.000  C
  C43      1.0000 0.48660  0.42856  0.08365  Biso   1.000  C
  C44      1.0000 0.01340  0.92856  0.41635  Biso   1.000  C
  C45      1.0000 0.38280  0.53536  0.86985  Biso   1.000  C
  C46      1.0000 0.11720  0.03536  0.63015  Biso   1.000  C
  C47      1.0000 0.61720  0.46464  0.13015  Biso   1.000  C
  C48      1.0000 0.88280  0.96464  0.36985  Biso   1.000  C
  C49      1.0000 0.63510  0.46460  0.85320  Biso   1.000  C
  C50      1.0000 0.86490  0.96460  0.64680  Biso   1.000  C
  C51      1.0000 0.36490  0.53540  0.14680  Biso   1.000  C
  C52      1.0000 0.13510  0.03540  0.35320  Biso   1.000  C
  H25      1.0000 0.72110  0.43740  0.84580  Biso   1.000  H
  H26      1.0000 0.77890  0.93740  0.65420  Biso   1.000  H
  H27      1.0000 0.27890  0.56260  0.15420  Biso   1.000  H
  H28      1.0000 0.22110  0.06260  0.34580  Biso   1.000  H
  C53      1.0000 0.50620  0.42900  0.80645  Biso   1.000  C
  C54      1.0000 0.99380  0.92900  0.69355  Biso   1.000  C
  C55      1.0000 0.49380  0.57100  0.19355  Biso   1.000  C
  C56      1.0000 0.00620  0.07100  0.30645  Biso   1.000  C
  H29      1.0000 0.50860  0.37970  0.76840  Biso   1.000  H
  H30      1.0000 0.99140  0.87970  0.73160  Biso   1.000  H
  H31      1.0000 0.49140  0.62030  0.23160  Biso   1.000  H
  H32      1.0000 0.00860  0.12030  0.26840  Biso   1.000  H
  C57      1.0000 0.25430  0.92581  0.88158  Biso   1.000  C
  C58      1.0000 0.24570  0.42581  0.61842  Biso   1.000  C
  C59      1.0000 0.74570  0.07419  0.11842  Biso   1.000  C
  C60      1.0000 0.75430  0.57419  0.38158  Biso   1.000  C
  C61      1.0000 0.39800  0.89964  0.86000  Biso   1.000  C
  C62      1.0000 0.10200  0.39964  0.64000  Biso   1.000  C
  C63      1.0000 0.60200  0.10036  0.14000  Biso   1.000  C
  C64      1.0000 0.89800  0.60036  0.36000  Biso   1.000  C
  C65      1.0000 0.51590  0.95704  0.88522  Biso   1.000  C
  C66      1.0000 0.98410  0.45704  0.61478  Biso   1.000  C
  C67      1.0000 0.48410  0.04296  0.11478  Biso   1.000  C
  C68      1.0000 0.01590  0.54296  0.38522  Biso   1.000  C
  H33      1.0000 0.50760  0.00830  0.91970  Biso   1.000  H
  H34      1.0000 0.99240  0.50830  0.58030  Biso   1.000  H
  H35      1.0000 0.49240  0.99170  0.08030  Biso   1.000  H
  H36      1.0000 0.00760  0.49170  0.41970  Biso   1.000  H
  C69      1.0000 0.64660  0.93877  0.85953  Biso   1.000  C
  C70      1.0000 0.85340  0.43877  0.64047  Biso   1.000  C
  C71      1.0000 0.35340  0.06123  0.14047  Biso   1.000  C
  C72      1.0000 0.14660  0.56123  0.35953  Biso   1.000  C
  C73      1.0000 0.76730  0.00616  0.88265  Biso   1.000  C
  C74      1.0000 0.73270  0.50616  0.61735  Biso   1.000  C
  C75      1.0000 0.23270  0.99384  0.11735  Biso   1.000  C
  C76      1.0000 0.26730  0.49384  0.38265  Biso   1.000  C
  C77      1.0000 0.65810  0.86260  0.80711  Biso   1.000  C
  C78      1.0000 0.84190  0.36260  0.69289  Biso   1.000  C
  C79      1.0000 0.34190  0.13740  0.19289  Biso   1.000  C
  C80      1.0000 0.15810  0.63740  0.30711  Biso   1.000  C
  H37      1.0000 0.74490  0.85020  0.78950  Biso   1.000  H
  H38      1.0000 0.75510  0.35020  0.71050  Biso   1.000  H
  H39      1.0000 0.25510  0.14980  0.21050  Biso   1.000  H
  H40      1.0000 0.24490  0.64980  0.28950  Biso   1.000  H
  C81      1.0000 0.53990  0.80457  0.78073  Biso   1.000  C
  C82      1.0000 0.96010  0.30457  0.71927  Biso   1.000  C
  C83      1.0000 0.46010  0.19543  0.21927  Biso   1.000  C
  C84      1.0000 0.03990  0.69543  0.28073  Biso   1.000  C
  C85      1.0000 0.55090  0.73005  0.71440  Biso   1.000  C
  C86      1.0000 0.94910  0.23005  0.78560  Biso   1.000  C
  C87      1.0000 0.44910  0.26995  0.28560  Biso   1.000  C
  C88      1.0000 0.05090  0.76995  0.21440  Biso   1.000  C
  C89      1.0000 0.41150  0.82212  0.80938  Biso   1.000  C
  C90      1.0000 0.08850  0.32212  0.69062  Biso   1.000  C
  C91      1.0000 0.58850  0.17788  0.19062  Biso   1.000  C
  C92      1.0000 0.91150  0.67788  0.30938  Biso   1.000  C
  H41      1.0000 0.33430  0.78190  0.79470  Biso   1.000  H
  H42      1.0000 0.16570  0.28190  0.70530  Biso   1.000  H
  H43      1.0000 0.66570  0.21810  0.20530  Biso   1.000  H
  H44      1.0000 0.83430  0.71810  0.29470  Biso   1.000  H
  N1       1.0000 0.12480  0.68635  0.95622  Biso   1.000  N
  N2       1.0000 0.37520  0.18635  0.54378  Biso   1.000  N
  N3       1.0000 0.87520  0.31365  0.04378  Biso   1.000  N
  N4       1.0000 0.62480  0.81365  0.45622  Biso   1.000  N
  N5       1.0000 0.37260  0.75351  0.04583  Biso   1.000  N
  N6       1.0000 0.12740  0.25351  0.45417  Biso   1.000  N
  N7       1.0000 0.62740  0.24649  0.95417  Biso   1.000  N
  N8       1.0000 0.87260  0.74649  0.54583  Biso   1.000  N
  N9       1.0000 0.37940  0.46333  0.81457  Biso   1.000  N
  N10      1.0000 0.12060  0.96333  0.68543  Biso   1.000  N
  N11      1.0000 0.62060  0.53667  0.18543  Biso   1.000  N
  N12      1.0000 0.87940  0.03667  0.31457  Biso   1.000  N
  N13      1.0000 0.64210  0.53531  0.90776  Biso   1.000  N
  N14      1.0000 0.85790  0.03531  0.59224  Biso   1.000  N
  N15      1.0000 0.35790  0.46469  0.09224  Biso   1.000  N
  N16      1.0000 0.14210  0.96469  0.40776  Biso   1.000  N
  O1       1.0000 0.16637  0.86566  0.88941  Biso   1.000  O
  O2       1.0000 0.33363  0.36566  0.61059  Biso   1.000  O
  O3       1.0000 0.83363  0.13434  0.11059  Biso   1.000  O
  O4       1.0000 0.66637  0.63434  0.38941  Biso   1.000  O
  O5       1.0000 0.23613  0.01180  0.88939  Biso   1.000  O
  O6       1.0000 0.26387  0.51180  0.61061  Biso   1.000  O
  O7       1.0000 0.76387  0.98820  0.11061  Biso   1.000  O
  O8       1.0000 0.73613  0.48820  0.38939  Biso   1.000  O
  O9       1.0000 0.73849  0.07869  0.91746  Biso   1.000  O
  O10      1.0000 0.76151  0.57869  0.58254  Biso   1.000  O
  O11      1.0000 0.26151  0.92131  0.08254  Biso   1.000  O
  O12      1.0000 0.23849  0.42131  0.41746  Biso   1.000  O
  O13      1.0000 0.88847  0.98571  0.86448  Biso   1.000  O
  O14      1.0000 0.61153  0.48571  0.63552  Biso   1.000  O
  O15      1.0000 0.11153  0.01429  0.13552  Biso   1.000  O
  O16      1.0000 0.38847  0.51429  0.36448  Biso   1.000  O
  O17      1.0000 0.46098  0.66486  0.70878  Biso   1.000  O
  O18      1.0000 0.03902  0.16486  0.79122  Biso   1.000  O
  O19      1.0000 0.53902  0.33514  0.29122  Biso   1.000  O
  O20      1.0000 0.96098  0.83514  0.20878  Biso   1.000  O
  O21      1.0000 0.64490  0.74007  0.66795  Biso   1.000  O
  O22      1.0000 0.85510  0.24007  0.83205  Biso   1.000  O
  O23      1.0000 0.35510  0.25993  0.33205  Biso   1.000  O
  O24      1.0000 0.14490  0.75993  0.16795  Biso   1.000  O
  O25      1.0000 0.96099  0.84909  0.01265  Biso   1.000  O
  O26      1.0000 0.53901  0.34909  0.48735  Biso   1.000  O
  O27      1.0000 0.03901  0.15091  0.98735  Biso   1.000  O
  O28      1.0000 0.46099  0.65091  0.51265  Biso   1.000  O
  Cu1      1.0000 0.15964  0.80381  0.03562  Biso   1.000  Cu
  Cu2      1.0000 0.34036  0.30381  0.46437  Biso   1.000  Cu
  Cu3      1.0000 0.84036  0.19619  0.96437  Biso   1.000  Cu
  Cu4      1.0000 0.65964  0.69619  0.53563  Biso   1.000  Cu
  Cu5      1.0000 0.05402  0.07221  0.88842  Biso   1.000  Cu
  Cu6      1.0000 0.44598  0.57221  0.61158  Biso   1.000  Cu
  Cu7      1.0000 0.94598  0.92779  0.11158  Biso   1.000  Cu
  Cu8      1.0000 0.55402  0.42779  0.38842  Biso   1.000  Cu
  H45      1.0000 0.95400  0.87300  0.97200  Biso   1.000  H
  H46      1.0000 0.54600  0.37300  0.52800  Biso   1.000  H
  H47      1.0000 0.04600  0.12700  0.02800  Biso   1.000  H
  H48      1.0000 0.45400  0.62700  0.47200  Biso   1.000  H
