data_image0
_cell_length_a       8.8662
_cell_length_b       10.172
_cell_length_c       16.634
_cell_angle_alpha    90
_cell_angle_beta     90
_cell_angle_gamma    90

_symmetry_space_group_name_H-M    "P 1"
_symmetry_int_tables_number       1

loop_
  _symmetry_equiv_pos_as_xyz
  'x, y, z'

loop_
  _atom_site_label
  _atom_site_occupancy
  _atom_site_fract_x
  _atom_site_fract_y
  _atom_site_fract_z
  _atom_site_thermal_displace_type
  _atom_site_B_iso_or_equiv
  _atom_site_type_symbol
  Cu1      1.0000 0.99272  0.51192  0.25257  Biso   1.000  Cu
  Cu2      1.0000 0.50728  0.48808  0.75257  Biso   1.000  Cu
  Cu3      1.0000 0.00728  0.01192  0.24743  Biso   1.000  Cu
  Cu4      1.0000 0.49272  0.98808  0.74743  Biso   1.000  Cu
  O1       1.0000 0.19137  0.42599  0.27504  Biso   1.000  O
  O2       1.0000 0.30863  0.57401  0.77504  Biso   1.000  O
  O3       1.0000 0.80863  0.92599  0.22496  Biso   1.000  O
  O4       1.0000 0.69137  0.07401  0.72496  Biso   1.000  O
  H1       1.0000 0.19200  0.34330  0.27080  Biso   1.000  H
  H2       1.0000 0.30800  0.65670  0.77080  Biso   1.000  H
  H3       1.0000 0.80800  0.84330  0.22920  Biso   1.000  H
  H4       1.0000 0.69200  0.15670  0.72920  Biso   1.000  H
  H5       1.0000 0.26180  0.45300  0.24470  Biso   1.000  H
  H6       1.0000 0.23820  0.54700  0.74470  Biso   1.000  H
  H7       1.0000 0.73820  0.95300  0.25530  Biso   1.000  H
  H8       1.0000 0.76180  0.04700  0.75530  Biso   1.000  H
  O5       1.0000 0.07447  0.76390  0.55540  Biso   1.000  O
  O6       1.0000 0.42553  0.23610  0.05540  Biso   1.000  O
  O7       1.0000 0.92553  0.26390  0.94460  Biso   1.000  O
  O8       1.0000 0.57447  0.73610  0.44460  Biso   1.000  O
  O9       1.0000 0.91300  0.81961  0.65129  Biso   1.000  O
  O10      1.0000 0.58700  0.18039  0.15129  Biso   1.000  O
  O11      1.0000 0.08700  0.31961  0.84871  Biso   1.000  O
  O12      1.0000 0.41300  0.68039  0.34871  Biso   1.000  O
  H9       1.0000 0.98090  0.87060  0.66350  Biso   1.000  H
  H10      1.0000 0.51910  0.12940  0.16350  Biso   1.000  H
  H11      1.0000 0.01910  0.37060  0.83650  Biso   1.000  H
  H12      1.0000 0.48090  0.62940  0.33650  Biso   1.000  H
  O13      1.0000 0.82170  0.65340  0.94944  Biso   1.000  O
  O14      1.0000 0.67830  0.34660  0.44944  Biso   1.000  O
  O15      1.0000 0.17830  0.15340  0.55056  Biso   1.000  O
  O16      1.0000 0.32170  0.84660  0.05056  Biso   1.000  O
  O17      1.0000 0.92630  0.67870  0.83002  Biso   1.000  O
  O18      1.0000 0.57370  0.32130  0.33002  Biso   1.000  O
  O19      1.0000 0.07370  0.17870  0.66998  Biso   1.000  O
  O20      1.0000 0.42630  0.82130  0.16998  Biso   1.000  O
  H13      1.0000 0.97020  0.61920  0.80640  Biso   1.000  H
  H14      1.0000 0.52980  0.38080  0.30640  Biso   1.000  H
  H15      1.0000 0.02980  0.11920  0.69360  Biso   1.000  H
  H16      1.0000 0.47020  0.88080  0.19360  Biso   1.000  H
  N1       1.0000 0.89360  0.57830  0.49031  Biso   1.000  N
  N2       1.0000 0.60640  0.42170  0.99031  Biso   1.000  N
  N3       1.0000 0.10640  0.07830  0.00969  Biso   1.000  N
  N4       1.0000 0.39360  0.92170  0.50969  Biso   1.000  N
  N5       1.0000 0.98260  0.47170  0.49845  Biso   1.000  N
  N6       1.0000 0.51740  0.52830  0.99845  Biso   1.000  N
  N7       1.0000 0.01740  0.97170  0.00155  Biso   1.000  N
  N8       1.0000 0.48260  0.02830  0.50155  Biso   1.000  N
  N9       1.0000 0.02160  0.43530  0.42648  Biso   1.000  N
  N10      1.0000 0.47840  0.56470  0.92648  Biso   1.000  N
  N11      1.0000 0.97840  0.93530  0.07352  Biso   1.000  N
  N12      1.0000 0.52160  0.06470  0.57352  Biso   1.000  N
  N13      1.0000 0.95730  0.51958  0.37160  Biso   1.000  N
  N14      1.0000 0.54270  0.48042  0.87160  Biso   1.000  N
  N15      1.0000 0.04270  0.01958  0.12840  Biso   1.000  N
  N16      1.0000 0.45730  0.98042  0.62840  Biso   1.000  N
  N17      1.0000 0.09200  0.57810  0.01531  Biso   1.000  N
  N18      1.0000 0.40800  0.42190  0.51531  Biso   1.000  N
  N19      1.0000 0.90800  0.07810  0.48469  Biso   1.000  N
  N20      1.0000 0.59200  0.92190  0.98469  Biso   1.000  N
  N21      1.0000 0.15120  0.45800  0.02426  Biso   1.000  N
  N22      1.0000 0.34880  0.54200  0.52426  Biso   1.000  N
  N23      1.0000 0.84880  0.95800  0.47574  Biso   1.000  N
  N24      1.0000 0.65120  0.04200  0.97574  Biso   1.000  N
  N25      1.0000 0.12520  0.42230  0.09774  Biso   1.000  N
  N26      1.0000 0.37480  0.57770  0.59774  Biso   1.000  N
  N27      1.0000 0.87480  0.92230  0.40226  Biso   1.000  N
  N28      1.0000 0.62520  0.07770  0.90226  Biso   1.000  N
  N29      1.0000 0.04900  0.52020  0.13626  Biso   1.000  N
  N30      1.0000 0.45100  0.47980  0.63626  Biso   1.000  N
  N31      1.0000 0.95100  0.02020  0.36374  Biso   1.000  N
  N32      1.0000 0.54900  0.97980  0.86374  Biso   1.000  N
  C1       1.0000 0.87970  0.60680  0.41282  Biso   1.000  C
  C2       1.0000 0.62030  0.39320  0.91282  Biso   1.000  C
  C3       1.0000 0.12030  0.10680  0.08718  Biso   1.000  C
  C4       1.0000 0.37970  0.89320  0.58718  Biso   1.000  C
  H17      1.0000 0.82480  0.67630  0.39140  Biso   1.000  H
  H18      1.0000 0.67520  0.32370  0.89140  Biso   1.000  H
  H19      1.0000 0.17520  0.17630  0.10860  Biso   1.000  H
  H20      1.0000 0.32480  0.82370  0.60860  Biso   1.000  H
  C5       1.0000 0.83900  0.64940  0.56077  Biso   1.000  C
  C6       1.0000 0.66100  0.35060  0.06077  Biso   1.000  C
  C7       1.0000 0.16100  0.14940  0.93923  Biso   1.000  C
  C8       1.0000 0.33900  0.85060  0.43923  Biso   1.000  C
  H21      1.0000 0.81790  0.58770  0.60380  Biso   1.000  H
  H22      1.0000 0.68210  0.41230  0.10380  Biso   1.000  H
  H23      1.0000 0.18210  0.08770  0.89620  Biso   1.000  H
  H24      1.0000 0.31790  0.91230  0.39620  Biso   1.000  H
  H25      1.0000 0.74600  0.69470  0.54750  Biso   1.000  H
  H26      1.0000 0.75400  0.30530  0.04750  Biso   1.000  H
  H27      1.0000 0.25400  0.19470  0.95250  Biso   1.000  H
  H28      1.0000 0.24600  0.80530  0.45250  Biso   1.000  H
  C9       1.0000 0.95550  0.74800  0.58857  Biso   1.000  C
  C10      1.0000 0.54450  0.25200  0.08857  Biso   1.000  C
  C11      1.0000 0.04450  0.24800  0.91143  Biso   1.000  C
  C12      1.0000 0.45550  0.75200  0.41143  Biso   1.000  C
  C13      1.0000 0.02970  0.61500  0.08443  Biso   1.000  C
  C14      1.0000 0.47030  0.38500  0.58443  Biso   1.000  C
  C15      1.0000 0.97030  0.11500  0.41557  Biso   1.000  C
  C16      1.0000 0.52970  0.88500  0.91557  Biso   1.000  C
  H29      1.0000 0.98100  0.69440  0.09410  Biso   1.000  H
  H30      1.0000 0.51900  0.30560  0.59410  Biso   1.000  H
  H31      1.0000 0.01900  0.19440  0.40590  Biso   1.000  H
  H32      1.0000 0.48100  0.80560  0.90590  Biso   1.000  H
  C17      1.0000 0.09060  0.64300  0.93721  Biso   1.000  C
  C18      1.0000 0.40940  0.35700  0.43721  Biso   1.000  C
  C19      1.0000 0.90940  0.14300  0.56279  Biso   1.000  C
  C20      1.0000 0.59060  0.85700  0.06279  Biso   1.000  C
  H33      1.0000 0.14890  0.59200  0.89900  Biso   1.000  H
  H34      1.0000 0.35110  0.40800  0.39900  Biso   1.000  H
  H35      1.0000 0.85110  0.09200  0.60100  Biso   1.000  H
  H36      1.0000 0.64890  0.90800  0.10100  Biso   1.000  H
  H37      1.0000 0.13650  0.72930  0.94180  Biso   1.000  H
  H38      1.0000 0.36350  0.27070  0.44180  Biso   1.000  H
  H39      1.0000 0.86350  0.22930  0.55820  Biso   1.000  H
  H40      1.0000 0.63650  0.77070  0.05820  Biso   1.000  H
  C21      1.0000 0.92990  0.65680  0.90742  Biso   1.000  C
  C22      1.0000 0.57010  0.34320  0.40742  Biso   1.000  C
  C23      1.0000 0.07010  0.15680  0.59258  Biso   1.000  C
  C24      1.0000 0.42990  0.84320  0.09258  Biso   1.000  C
  Cl1      1.0000 0.76847  0.61567  0.22551  Biso   1.000  Cl
  Cl2      1.0000 0.73153  0.38433  0.72551  Biso   1.000  Cl
  Cl3      1.0000 0.23153  0.11567  0.27449  Biso   1.000  Cl
  Cl4      1.0000 0.26847  0.88433  0.77449  Biso   1.000  Cl
  Cl5      1.0000 0.86612  0.26646  0.23855  Biso   1.000  Cl
  Cl6      1.0000 0.63388  0.73354  0.73855  Biso   1.000  Cl
  Cl7      1.0000 0.13388  0.76646  0.26145  Biso   1.000  Cl
  Cl8      1.0000 0.36612  0.23354  0.76145  Biso   1.000  Cl
  O21      1.0000 0.42760  0.50600  0.18856  Biso   1.000  O
  O22      1.0000 0.07240  0.49400  0.68856  Biso   1.000  O
  O23      1.0000 0.57240  0.00600  0.31144  Biso   1.000  O
  O24      1.0000 0.92760  0.99400  0.81144  Biso   1.000  O
  H41      1.0000 0.50640  0.53860  0.20940  Biso   1.000  H
  H42      1.0000 0.99360  0.46140  0.70940  Biso   1.000  H
  H43      1.0000 0.49360  0.03860  0.29060  Biso   1.000  H
  H44      1.0000 0.00640  0.96140  0.79060  Biso   1.000  H
  H45      1.0000 0.40200  0.56370  0.15430  Biso   1.000  H
  H46      1.0000 0.09800  0.43630  0.65430  Biso   1.000  H
  H47      1.0000 0.59800  0.06370  0.34570  Biso   1.000  H
  H48      1.0000 0.90200  0.93630  0.84570  Biso   1.000  H
