data_image0
_cell_length_a       27.022
_cell_length_b       9.114
_cell_length_c       17.005
_cell_angle_alpha    90
_cell_angle_beta     118.116
_cell_angle_gamma    90

_symmetry_space_group_name_H-M    "P 1"
_symmetry_int_tables_number       1

loop_
  _symmetry_equiv_pos_as_xyz
  'x, y, z'

loop_
  _atom_site_label
  _atom_site_occupancy
  _atom_site_fract_x
  _atom_site_fract_y
  _atom_site_fract_z
  _atom_site_thermal_displace_type
  _atom_site_B_iso_or_equiv
  _atom_site_type_symbol
  Cu1      1.0000 0.16979  0.09634  0.22931  Biso   1.000  Cu
  Cu2      1.0000 0.66979  0.59634  0.22931  Biso   1.000  Cu
  Cu3      1.0000 0.83021  0.09634  0.27069  Biso   1.000  Cu
  Cu4      1.0000 0.33021  0.59634  0.27069  Biso   1.000  Cu
  Cu5      1.0000 0.83021  0.90366  0.77069  Biso   1.000  Cu
  Cu6      1.0000 0.33021  0.40366  0.77069  Biso   1.000  Cu
  Cu7      1.0000 0.16979  0.90366  0.72931  Biso   1.000  Cu
  Cu8      1.0000 0.66979  0.40366  0.72931  Biso   1.000  Cu
  Cl1      1.0000 0.10311  0.25791  0.15194  Biso   1.000  Cl
  Cl2      1.0000 0.60311  0.75791  0.15194  Biso   1.000  Cl
  Cl3      1.0000 0.89689  0.25791  0.34806  Biso   1.000  Cl
  Cl4      1.0000 0.39689  0.75791  0.34806  Biso   1.000  Cl
  Cl5      1.0000 0.89689  0.74209  0.84806  Biso   1.000  Cl
  Cl6      1.0000 0.39689  0.24209  0.84806  Biso   1.000  Cl
  Cl7      1.0000 0.10311  0.74209  0.65194  Biso   1.000  Cl
  Cl8      1.0000 0.60311  0.24209  0.65194  Biso   1.000  Cl
  Cl9      1.0000 0.18137  0.52524  0.90810  Biso   1.000  Cl
  Cl10     1.0000 0.68137  0.02524  0.90810  Biso   1.000  Cl
  Cl11     1.0000 0.81863  0.52524  0.59190  Biso   1.000  Cl
  Cl12     1.0000 0.31863  0.02524  0.59190  Biso   1.000  Cl
  Cl13     1.0000 0.81863  0.47476  0.09190  Biso   1.000  Cl
  Cl14     1.0000 0.31863  0.97476  0.09190  Biso   1.000  Cl
  Cl15     1.0000 0.18137  0.47476  0.40810  Biso   1.000  Cl
  Cl16     1.0000 0.68137  0.97476  0.40810  Biso   1.000  Cl
  O1       1.0000 0.28267  0.58590  0.36052  Biso   1.000  O
  O2       1.0000 0.78267  0.08590  0.36052  Biso   1.000  O
  O3       1.0000 0.71733  0.58590  0.13948  Biso   1.000  O
  O4       1.0000 0.21733  0.08590  0.13948  Biso   1.000  O
  O5       1.0000 0.71733  0.41410  0.63948  Biso   1.000  O
  O6       1.0000 0.21733  0.91410  0.63948  Biso   1.000  O
  O7       1.0000 0.28267  0.41410  0.86052  Biso   1.000  O
  O8       1.0000 0.78267  0.91410  0.86052  Biso   1.000  O
  O9       1.0000 0.22086  0.26550  0.29922  Biso   1.000  O
  O10      1.0000 0.72086  0.76550  0.29922  Biso   1.000  O
  O11      1.0000 0.77914  0.26550  0.20078  Biso   1.000  O
  O12      1.0000 0.27914  0.76550  0.20078  Biso   1.000  O
  O13      1.0000 0.77914  0.73450  0.70078  Biso   1.000  O
  O14      1.0000 0.27914  0.23450  0.70078  Biso   1.000  O
  O15      1.0000 0.22086  0.73450  0.79922  Biso   1.000  O
  O16      1.0000 0.72086  0.23450  0.79922  Biso   1.000  O
  H1       1.0000 0.20870  0.33860  0.31250  Biso   1.000  H
  H2       1.0000 0.70870  0.83860  0.31250  Biso   1.000  H
  H3       1.0000 0.79130  0.33860  0.18750  Biso   1.000  H
  H4       1.0000 0.29130  0.83860  0.18750  Biso   1.000  H
  H5       1.0000 0.79130  0.66140  0.68750  Biso   1.000  H
  H6       1.0000 0.29130  0.16140  0.68750  Biso   1.000  H
  H7       1.0000 0.20870  0.66140  0.81250  Biso   1.000  H
  H8       1.0000 0.70870  0.16140  0.81250  Biso   1.000  H
  N1       1.0000 0.23205  0.98300  0.31723  Biso   1.000  N
  N2       1.0000 0.73205  0.48300  0.31723  Biso   1.000  N
  N3       1.0000 0.76795  0.98300  0.18277  Biso   1.000  N
  N4       1.0000 0.26795  0.48300  0.18277  Biso   1.000  N
  N5       1.0000 0.76795  0.01700  0.68277  Biso   1.000  N
  N6       1.0000 0.26795  0.51700  0.68277  Biso   1.000  N
  N7       1.0000 0.23205  0.01700  0.81723  Biso   1.000  N
  N8       1.0000 0.73205  0.51700  0.81723  Biso   1.000  N
  N9       1.0000 0.18287  0.76990  0.30686  Biso   1.000  N
  N10      1.0000 0.68287  0.26990  0.30686  Biso   1.000  N
  N11      1.0000 0.81713  0.76990  0.19314  Biso   1.000  N
  N12      1.0000 0.31713  0.26990  0.19314  Biso   1.000  N
  N13      1.0000 0.81713  0.23010  0.69314  Biso   1.000  N
  N14      1.0000 0.31713  0.73010  0.69314  Biso   1.000  N
  N15      1.0000 0.18287  0.23010  0.80686  Biso   1.000  N
  N16      1.0000 0.68287  0.73010  0.80686  Biso   1.000  N
  H9       1.0000 0.18190  0.69660  0.33790  Biso   1.000  H
  H10      1.0000 0.68190  0.19660  0.33790  Biso   1.000  H
  H11      1.0000 0.81810  0.69660  0.16210  Biso   1.000  H
  H12      1.0000 0.31810  0.19660  0.16210  Biso   1.000  H
  H13      1.0000 0.81810  0.30340  0.66210  Biso   1.000  H
  H14      1.0000 0.31810  0.80340  0.66210  Biso   1.000  H
  H15      1.0000 0.18190  0.30340  0.83790  Biso   1.000  H
  H16      1.0000 0.68190  0.80340  0.83790  Biso   1.000  H
  N17      1.0000 0.27319  0.79570  0.42409  Biso   1.000  N
  N18      1.0000 0.77319  0.29570  0.42409  Biso   1.000  N
  N19      1.0000 0.72681  0.79570  0.07591  Biso   1.000  N
  N20      1.0000 0.22681  0.29570  0.07591  Biso   1.000  N
  N21      1.0000 0.72681  0.20430  0.57591  Biso   1.000  N
  N22      1.0000 0.22681  0.70430  0.57591  Biso   1.000  N
  N23      1.0000 0.27319  0.20430  0.92409  Biso   1.000  N
  N24      1.0000 0.77319  0.70430  0.92409  Biso   1.000  N
  H17      1.0000 0.28550  0.84540  0.47270  Biso   1.000  H
  H18      1.0000 0.78550  0.34540  0.47270  Biso   1.000  H
  H19      1.0000 0.71450  0.84540  0.02730  Biso   1.000  H
  H20      1.0000 0.21450  0.34540  0.02730  Biso   1.000  H
  H21      1.0000 0.71450  0.15460  0.52730  Biso   1.000  H
  H22      1.0000 0.21450  0.65460  0.52730  Biso   1.000  H
  H23      1.0000 0.28550  0.15460  0.97270  Biso   1.000  H
  H24      1.0000 0.78550  0.65460  0.97270  Biso   1.000  H
  N25      1.0000 0.12651  0.91210  0.17770  Biso   1.000  N
  N26      1.0000 0.62651  0.41210  0.17770  Biso   1.000  N
  N27      1.0000 0.87349  0.91210  0.32230  Biso   1.000  N
  N28      1.0000 0.37349  0.41210  0.32230  Biso   1.000  N
  N29      1.0000 0.87349  0.08790  0.82230  Biso   1.000  N
  N30      1.0000 0.37349  0.58790  0.82230  Biso   1.000  N
  N31      1.0000 0.12651  0.08790  0.67770  Biso   1.000  N
  N32      1.0000 0.62651  0.58790  0.67770  Biso   1.000  N
  C1       1.0000 0.22914  0.85530  0.34590  Biso   1.000  C
  C2       1.0000 0.72914  0.35530  0.34590  Biso   1.000  C
  C3       1.0000 0.77086  0.85530  0.15410  Biso   1.000  C
  C4       1.0000 0.27086  0.35530  0.15410  Biso   1.000  C
  C5       1.0000 0.77086  0.14470  0.65410  Biso   1.000  C
  C6       1.0000 0.27086  0.64470  0.65410  Biso   1.000  C
  C7       1.0000 0.22914  0.14470  0.84590  Biso   1.000  C
  C8       1.0000 0.72914  0.64470  0.84590  Biso   1.000  C
  C9       1.0000 0.28443  0.06660  0.35310  Biso   1.000  C
  C10      1.0000 0.78443  0.56660  0.35310  Biso   1.000  C
  C11      1.0000 0.71557  0.06660  0.14690  Biso   1.000  C
  C12      1.0000 0.21557  0.56660  0.14690  Biso   1.000  C
  C13      1.0000 0.71557  0.93340  0.64690  Biso   1.000  C
  C14      1.0000 0.21557  0.43340  0.64690  Biso   1.000  C
  C15      1.0000 0.28443  0.93340  0.85310  Biso   1.000  C
  C16      1.0000 0.78443  0.43340  0.85310  Biso   1.000  C
  H25      1.0000 0.29770  0.07350  0.30930  Biso   1.000  H
  H26      1.0000 0.79770  0.57350  0.30930  Biso   1.000  H
  H27      1.0000 0.70230  0.07350  0.19070  Biso   1.000  H
  H28      1.0000 0.20230  0.57350  0.19070  Biso   1.000  H
  H29      1.0000 0.70230  0.92650  0.69070  Biso   1.000  H
  H30      1.0000 0.20230  0.42650  0.69070  Biso   1.000  H
  H31      1.0000 0.29770  0.92650  0.80930  Biso   1.000  H
  H32      1.0000 0.79770  0.42650  0.80930  Biso   1.000  H
  H33      1.0000 0.31310  0.01930  0.40610  Biso   1.000  H
  H34      1.0000 0.81310  0.51930  0.40610  Biso   1.000  H
  H35      1.0000 0.68690  0.01930  0.09390  Biso   1.000  H
  H36      1.0000 0.18690  0.51930  0.09390  Biso   1.000  H
  H37      1.0000 0.68690  0.98070  0.59390  Biso   1.000  H
  H38      1.0000 0.18690  0.48070  0.59390  Biso   1.000  H
  H39      1.0000 0.31310  0.98070  0.90610  Biso   1.000  H
  H40      1.0000 0.81310  0.48070  0.90610  Biso   1.000  H
  C17      1.0000 0.27152  0.21730  0.37550  Biso   1.000  C
  C18      1.0000 0.77152  0.71730  0.37550  Biso   1.000  C
  C19      1.0000 0.72848  0.21730  0.12450  Biso   1.000  C
  C20      1.0000 0.22848  0.71730  0.12450  Biso   1.000  C
  C21      1.0000 0.72848  0.78270  0.62450  Biso   1.000  C
  C22      1.0000 0.22848  0.28270  0.62450  Biso   1.000  C
  C23      1.0000 0.27152  0.78270  0.87550  Biso   1.000  C
  C24      1.0000 0.77152  0.28270  0.87550  Biso   1.000  C
  H41      1.0000 0.26610  0.21300  0.42800  Biso   1.000  H
  H42      1.0000 0.76610  0.71300  0.42800  Biso   1.000  H
  H43      1.0000 0.73390  0.21300  0.07200  Biso   1.000  H
  H44      1.0000 0.23390  0.71300  0.07200  Biso   1.000  H
  H45      1.0000 0.73390  0.78700  0.57200  Biso   1.000  H
  H46      1.0000 0.23390  0.28700  0.57200  Biso   1.000  H
  H47      1.0000 0.26610  0.78700  0.92800  Biso   1.000  H
  H48      1.0000 0.76610  0.28700  0.92800  Biso   1.000  H
  H49      1.0000 0.30210  0.28430  0.38730  Biso   1.000  H
  H50      1.0000 0.80210  0.78430  0.38730  Biso   1.000  H
  H51      1.0000 0.69790  0.28430  0.11270  Biso   1.000  H
  H52      1.0000 0.19790  0.78430  0.11270  Biso   1.000  H
  H53      1.0000 0.69790  0.71570  0.61270  Biso   1.000  H
  H54      1.0000 0.19790  0.21570  0.61270  Biso   1.000  H
  H55      1.0000 0.30210  0.71570  0.88730  Biso   1.000  H
  H56      1.0000 0.80210  0.21570  0.88730  Biso   1.000  H
  C25      1.0000 0.29738  0.66280  0.42650  Biso   1.000  C
  C26      1.0000 0.79738  0.16280  0.42650  Biso   1.000  C
  C27      1.0000 0.70262  0.66280  0.07350  Biso   1.000  C
  C28      1.0000 0.20262  0.16280  0.07350  Biso   1.000  C
  C29      1.0000 0.70262  0.33720  0.57350  Biso   1.000  C
  C30      1.0000 0.20262  0.83720  0.57350  Biso   1.000  C
  C31      1.0000 0.29738  0.33720  0.92650  Biso   1.000  C
  C32      1.0000 0.79738  0.83720  0.92650  Biso   1.000  C
  C33      1.0000 0.13662  0.78510  0.22277  Biso   1.000  C
  C34      1.0000 0.63662  0.28510  0.22277  Biso   1.000  C
  C35      1.0000 0.86338  0.78510  0.27723  Biso   1.000  C
  C36      1.0000 0.36338  0.28510  0.27723  Biso   1.000  C
  C37      1.0000 0.86338  0.21490  0.77723  Biso   1.000  C
  C38      1.0000 0.36338  0.71490  0.77723  Biso   1.000  C
  C39      1.0000 0.13662  0.21490  0.72277  Biso   1.000  C
  C40      1.0000 0.63662  0.71490  0.72277  Biso   1.000  C
  C41      1.0000 0.10217  0.66270  0.18840  Biso   1.000  C
  C42      1.0000 0.60217  0.16270  0.18840  Biso   1.000  C
  C43      1.0000 0.89783  0.66270  0.31160  Biso   1.000  C
  C44      1.0000 0.39783  0.16270  0.31160  Biso   1.000  C
  C45      1.0000 0.89783  0.33730  0.81160  Biso   1.000  C
  C46      1.0000 0.39783  0.83730  0.81160  Biso   1.000  C
  C47      1.0000 0.10217  0.33730  0.68840  Biso   1.000  C
  C48      1.0000 0.60217  0.83730  0.68840  Biso   1.000  C
  H57      1.0000 0.10960  0.57700  0.22180  Biso   1.000  H
  H58      1.0000 0.60960  0.07700  0.22180  Biso   1.000  H
  H59      1.0000 0.89040  0.57700  0.27820  Biso   1.000  H
  H60      1.0000 0.39040  0.07700  0.27820  Biso   1.000  H
  H61      1.0000 0.89040  0.42300  0.77820  Biso   1.000  H
  H62      1.0000 0.39040  0.92300  0.77820  Biso   1.000  H
  H63      1.0000 0.10960  0.42300  0.72180  Biso   1.000  H
  H64      1.0000 0.60960  0.92300  0.72180  Biso   1.000  H
  C49      1.0000 0.05711  0.67060  0.10460  Biso   1.000  C
  C50      1.0000 0.55711  0.17060  0.10460  Biso   1.000  C
  C51      1.0000 0.94289  0.67060  0.39540  Biso   1.000  C
  C52      1.0000 0.44289  0.17060  0.39540  Biso   1.000  C
  C53      1.0000 0.94289  0.32940  0.89540  Biso   1.000  C
  C54      1.0000 0.44289  0.82940  0.89540  Biso   1.000  C
  C55      1.0000 0.05711  0.32940  0.60460  Biso   1.000  C
  C56      1.0000 0.55711  0.82940  0.60460  Biso   1.000  C
  H65      1.0000 0.03320  0.59080  0.08040  Biso   1.000  H
  H66      1.0000 0.53320  0.09080  0.08040  Biso   1.000  H
  H67      1.0000 0.96680  0.59080  0.41960  Biso   1.000  H
  H68      1.0000 0.46680  0.09080  0.41960  Biso   1.000  H
  H69      1.0000 0.96680  0.40920  0.91960  Biso   1.000  H
  H70      1.0000 0.46680  0.90920  0.91960  Biso   1.000  H
  H71      1.0000 0.03320  0.40920  0.58040  Biso   1.000  H
  H72      1.0000 0.53320  0.90920  0.58040  Biso   1.000  H
  C57      1.0000 0.04787  0.80040  0.05640  Biso   1.000  C
  C58      1.0000 0.54787  0.30040  0.05640  Biso   1.000  C
  C59      1.0000 0.95213  0.80040  0.44360  Biso   1.000  C
  C60      1.0000 0.45213  0.30040  0.44360  Biso   1.000  C
  C61      1.0000 0.95213  0.19960  0.94360  Biso   1.000  C
  C62      1.0000 0.45213  0.69960  0.94360  Biso   1.000  C
  C63      1.0000 0.04787  0.19960  0.55640  Biso   1.000  C
  C64      1.0000 0.54787  0.69960  0.55640  Biso   1.000  C
  H73      1.0000 0.01800  0.80760  0.99910  Biso   1.000  H
  H74      1.0000 0.51800  0.30760  0.99910  Biso   1.000  H
  H75      1.0000 0.98200  0.80760  0.50090  Biso   1.000  H
  H76      1.0000 0.48200  0.30760  0.50090  Biso   1.000  H
  H77      1.0000 0.98200  0.19240  0.00090  Biso   1.000  H
  H78      1.0000 0.48200  0.69240  0.00090  Biso   1.000  H
  H79      1.0000 0.01800  0.19240  0.49910  Biso   1.000  H
  H80      1.0000 0.51800  0.69240  0.49910  Biso   1.000  H
  C65      1.0000 0.08269  0.91650  0.09380  Biso   1.000  C
  C66      1.0000 0.58269  0.41650  0.09380  Biso   1.000  C
  C67      1.0000 0.91731  0.91650  0.40620  Biso   1.000  C
  C68      1.0000 0.41731  0.41650  0.40620  Biso   1.000  C
  C69      1.0000 0.91731  0.08350  0.90620  Biso   1.000  C
  C70      1.0000 0.41731  0.58350  0.90620  Biso   1.000  C
  C71      1.0000 0.08269  0.08350  0.59380  Biso   1.000  C
  C72      1.0000 0.58269  0.58350  0.59380  Biso   1.000  C
  H81      1.0000 0.07630  0.00220  0.06070  Biso   1.000  H
  H82      1.0000 0.57630  0.50220  0.06070  Biso   1.000  H
  H83      1.0000 0.92370  0.00220  0.43930  Biso   1.000  H
  H84      1.0000 0.42370  0.50220  0.43930  Biso   1.000  H
  H85      1.0000 0.92370  0.99780  0.93930  Biso   1.000  H
  H86      1.0000 0.42370  0.49780  0.93930  Biso   1.000  H
  H87      1.0000 0.07630  0.99780  0.56070  Biso   1.000  H
  H88      1.0000 0.57630  0.49780  0.56070  Biso   1.000  H
  C73      1.0000 0.34260  0.61690  0.51567  Biso   1.000  C
  C74      1.0000 0.84260  0.11690  0.51567  Biso   1.000  C
  C75      1.0000 0.65740  0.61690  0.98433  Biso   1.000  C
  C76      1.0000 0.15740  0.11690  0.98433  Biso   1.000  C
  C77      1.0000 0.65740  0.38310  0.48433  Biso   1.000  C
  C78      1.0000 0.15740  0.88310  0.48433  Biso   1.000  C
  C79      1.0000 0.34260  0.38310  0.01567  Biso   1.000  C
  C80      1.0000 0.84260  0.88310  0.01567  Biso   1.000  C
  C81      1.0000 0.33865  0.47980  0.54640  Biso   1.000  C
  C82      1.0000 0.83865  0.97980  0.54640  Biso   1.000  C
  C83      1.0000 0.66135  0.47980  0.95360  Biso   1.000  C
  C84      1.0000 0.16135  0.97980  0.95360  Biso   1.000  C
  C85      1.0000 0.66135  0.52020  0.45360  Biso   1.000  C
  C86      1.0000 0.16135  0.02020  0.45360  Biso   1.000  C
  C87      1.0000 0.33865  0.52020  0.04640  Biso   1.000  C
  C88      1.0000 0.83865  0.02020  0.04640  Biso   1.000  C
  H89      1.0000 0.30800  0.42010  0.51240  Biso   1.000  H
  H90      1.0000 0.80800  0.92010  0.51240  Biso   1.000  H
  H91      1.0000 0.69200  0.42010  0.98760  Biso   1.000  H
  H92      1.0000 0.19200  0.92010  0.98760  Biso   1.000  H
  H93      1.0000 0.69200  0.57990  0.48760  Biso   1.000  H
  H94      1.0000 0.19200  0.07990  0.48760  Biso   1.000  H
  H95      1.0000 0.30800  0.57990  0.01240  Biso   1.000  H
  H96      1.0000 0.80800  0.07990  0.01240  Biso   1.000  H
  C89      1.0000 0.38024  0.43080  0.62800  Biso   1.000  C
  C90      1.0000 0.88024  0.93080  0.62800  Biso   1.000  C
  C91      1.0000 0.61976  0.43080  0.87200  Biso   1.000  C
  C92      1.0000 0.11976  0.93080  0.87200  Biso   1.000  C
  C93      1.0000 0.61976  0.56920  0.37200  Biso   1.000  C
  C94      1.0000 0.11976  0.06920  0.37200  Biso   1.000  C
  C95      1.0000 0.38024  0.56920  0.12800  Biso   1.000  C
  C96      1.0000 0.88024  0.06920  0.12800  Biso   1.000  C
  H97      1.0000 0.37750  0.33870  0.64900  Biso   1.000  H
  H98      1.0000 0.87750  0.83870  0.64900  Biso   1.000  H
  H99      1.0000 0.62250  0.33870  0.85100  Biso   1.000  H
  H100     1.0000 0.12250  0.83870  0.85100  Biso   1.000  H
  H101     1.0000 0.62250  0.66130  0.35100  Biso   1.000  H
  H102     1.0000 0.12250  0.16130  0.35100  Biso   1.000  H
  H103     1.0000 0.37750  0.66130  0.14900  Biso   1.000  H
  H104     1.0000 0.87750  0.16130  0.14900  Biso   1.000  H
  C97      1.0000 0.42588  0.51930  0.67800  Biso   1.000  C
  C98      1.0000 0.92588  0.01930  0.67800  Biso   1.000  C
  C99      1.0000 0.57412  0.51930  0.82200  Biso   1.000  C
  C100     1.0000 0.07412  0.01930  0.82200  Biso   1.000  C
  C101     1.0000 0.57412  0.48070  0.32200  Biso   1.000  C
  C102     1.0000 0.07412  0.98070  0.32200  Biso   1.000  C
  C103     1.0000 0.42588  0.48070  0.17800  Biso   1.000  C
  C104     1.0000 0.92588  0.98070  0.17800  Biso   1.000  C
  H105     1.0000 0.45370  0.48710  0.73300  Biso   1.000  H
  H106     1.0000 0.95370  0.98710  0.73300  Biso   1.000  H
  H107     1.0000 0.54630  0.48710  0.76700  Biso   1.000  H
  H108     1.0000 0.04630  0.98710  0.76700  Biso   1.000  H
  H109     1.0000 0.54630  0.51290  0.26700  Biso   1.000  H
  H110     1.0000 0.04630  0.01290  0.26700  Biso   1.000  H
  H111     1.0000 0.45370  0.51290  0.23300  Biso   1.000  H
  H112     1.0000 0.95370  0.01290  0.23300  Biso   1.000  H
  C105     1.0000 0.43036  0.65480  0.64660  Biso   1.000  C
  C106     1.0000 0.93036  0.15480  0.64660  Biso   1.000  C
  C107     1.0000 0.56964  0.65480  0.85340  Biso   1.000  C
  C108     1.0000 0.06964  0.15480  0.85340  Biso   1.000  C
  C109     1.0000 0.56964  0.34520  0.35340  Biso   1.000  C
  C110     1.0000 0.06964  0.84520  0.35340  Biso   1.000  C
  C111     1.0000 0.43036  0.34520  0.14660  Biso   1.000  C
  C112     1.0000 0.93036  0.84520  0.14660  Biso   1.000  C
  H113     1.0000 0.46160  0.71290  0.68010  Biso   1.000  H
  H114     1.0000 0.96160  0.21290  0.68010  Biso   1.000  H
  H115     1.0000 0.53840  0.71290  0.81990  Biso   1.000  H
  H116     1.0000 0.03840  0.21290  0.81990  Biso   1.000  H
  H117     1.0000 0.53840  0.28710  0.31990  Biso   1.000  H
  H118     1.0000 0.03840  0.78710  0.31990  Biso   1.000  H
  H119     1.0000 0.46160  0.28710  0.18010  Biso   1.000  H
  H120     1.0000 0.96160  0.78710  0.18010  Biso   1.000  H
  C113     1.0000 0.38856  0.70610  0.56520  Biso   1.000  C
  C114     1.0000 0.88856  0.20610  0.56520  Biso   1.000  C
  C115     1.0000 0.61144  0.70610  0.93480  Biso   1.000  C
  C116     1.0000 0.11144  0.20610  0.93480  Biso   1.000  C
  C117     1.0000 0.61144  0.29390  0.43480  Biso   1.000  C
  C118     1.0000 0.11144  0.79390  0.43480  Biso   1.000  C
  C119     1.0000 0.38856  0.29390  0.06520  Biso   1.000  C
  C120     1.0000 0.88856  0.79390  0.06520  Biso   1.000  C
  H121     1.0000 0.39140  0.79850  0.54440  Biso   1.000  H
  H122     1.0000 0.89140  0.29850  0.54440  Biso   1.000  H
  H123     1.0000 0.60860  0.79850  0.95560  Biso   1.000  H
  H124     1.0000 0.10860  0.29850  0.95560  Biso   1.000  H
  H125     1.0000 0.60860  0.20150  0.45560  Biso   1.000  H
  H126     1.0000 0.10860  0.70150  0.45560  Biso   1.000  H
  H127     1.0000 0.39140  0.20150  0.04440  Biso   1.000  H
  H128     1.0000 0.89140  0.70150  0.04440  Biso   1.000  H
  O17      1.0000 0.04070  0.50800  0.81900  Biso   1.000  O
  O18      1.0000 0.54070  0.00800  0.81900  Biso   1.000  O
  O19      1.0000 0.95930  0.50800  0.68100  Biso   1.000  O
  O20      1.0000 0.45930  0.00800  0.68100  Biso   1.000  O
  O21      1.0000 0.95930  0.49200  0.18100  Biso   1.000  O
  O22      1.0000 0.45930  0.99200  0.18100  Biso   1.000  O
  O23      1.0000 0.04070  0.49200  0.31900  Biso   1.000  O
  O24      1.0000 0.54070  0.99200  0.31900  Biso   1.000  O
  O25      1.0000 0.01360  0.60400  0.77900  Biso   1.000  O
  O26      1.0000 0.51360  0.10400  0.77900  Biso   1.000  O
  O27      1.0000 0.98640  0.60400  0.72100  Biso   1.000  O
  O28      1.0000 0.48640  0.10400  0.72100  Biso   1.000  O
  O29      1.0000 0.98640  0.39600  0.22100  Biso   1.000  O
  O30      1.0000 0.48640  0.89600  0.22100  Biso   1.000  O
  O31      1.0000 0.01360  0.39600  0.27900  Biso   1.000  O
  O32      1.0000 0.51360  0.89600  0.27900  Biso   1.000  O
  O33      1.0000 0.04550  0.56400  0.87710  Biso   1.000  O
  O34      1.0000 0.54550  0.06400  0.87710  Biso   1.000  O
  O35      1.0000 0.95450  0.56400  0.62290  Biso   1.000  O
  O36      1.0000 0.45450  0.06400  0.62290  Biso   1.000  O
  O37      1.0000 0.95450  0.43600  0.12290  Biso   1.000  O
  O38      1.0000 0.45450  0.93600  0.12290  Biso   1.000  O
  O39      1.0000 0.04550  0.43600  0.37710  Biso   1.000  O
  O40      1.0000 0.54550  0.93600  0.37710  Biso   1.000  O
