data_image0
_cell_length_a       7.3555
_cell_length_b       20.271
_cell_length_c       10.464
_cell_angle_alpha    90
_cell_angle_beta     104.489
_cell_angle_gamma    90

_symmetry_space_group_name_H-M    "P 1"
_symmetry_int_tables_number       1

loop_
  _symmetry_equiv_pos_as_xyz
  'x, y, z'

loop_
  _atom_site_label
  _atom_site_occupancy
  _atom_site_fract_x
  _atom_site_fract_y
  _atom_site_fract_z
  _atom_site_thermal_displace_type
  _atom_site_B_iso_or_equiv
  _atom_site_type_symbol
  Cu1      1.0000 0.00000  0.50000  0.00000  Biso   1.000  Cu
  Cu2      1.0000 0.50000  0.00000  0.00000  Biso   1.000  Cu
  Na1      1.0000 0.68456  0.50000  0.66934  Biso   1.000  Na
  Na2      1.0000 0.18456  0.00000  0.66934  Biso   1.000  Na
  Na3      1.0000 0.31544  0.50000  0.33066  Biso   1.000  Na
  Na4      1.0000 0.81544  0.00000  0.33066  Biso   1.000  Na
  O1       1.0000 0.69979  0.89398  0.69889  Biso   1.000  O
  O2       1.0000 0.19979  0.39398  0.69889  Biso   1.000  O
  O3       1.0000 0.30021  0.89398  0.30111  Biso   1.000  O
  O4       1.0000 0.80021  0.39398  0.30111  Biso   1.000  O
  O5       1.0000 0.30021  0.10602  0.30111  Biso   1.000  O
  O6       1.0000 0.80021  0.60602  0.30111  Biso   1.000  O
  O7       1.0000 0.69979  0.10602  0.69889  Biso   1.000  O
  O8       1.0000 0.19979  0.60602  0.69889  Biso   1.000  O
  O9       1.0000 0.80990  0.81061  0.82750  Biso   1.000  O
  O10      1.0000 0.30990  0.31061  0.82750  Biso   1.000  O
  O11      1.0000 0.19010  0.81061  0.17250  Biso   1.000  O
  O12      1.0000 0.69010  0.31061  0.17250  Biso   1.000  O
  O13      1.0000 0.19010  0.18939  0.17250  Biso   1.000  O
  O14      1.0000 0.69010  0.68939  0.17250  Biso   1.000  O
  O15      1.0000 0.80990  0.18939  0.82750  Biso   1.000  O
  O16      1.0000 0.30990  0.68939  0.82750  Biso   1.000  O
  O17      1.0000 0.81050  0.69261  0.82830  Biso   1.000  O
  O18      1.0000 0.31050  0.19261  0.82830  Biso   1.000  O
  O19      1.0000 0.18950  0.69261  0.17170  Biso   1.000  O
  O20      1.0000 0.68950  0.19261  0.17170  Biso   1.000  O
  O21      1.0000 0.18950  0.30739  0.17170  Biso   1.000  O
  O22      1.0000 0.68950  0.80739  0.17170  Biso   1.000  O
  O23      1.0000 0.81050  0.30739  0.82830  Biso   1.000  O
  O24      1.0000 0.31050  0.80739  0.82830  Biso   1.000  O
  H1       1.0000 0.80670  0.73300  0.82710  Biso   1.000  H
  H2       1.0000 0.30670  0.23300  0.82710  Biso   1.000  H
  H3       1.0000 0.19330  0.73300  0.17290  Biso   1.000  H
  H4       1.0000 0.69330  0.23300  0.17290  Biso   1.000  H
  H5       1.0000 0.19330  0.26700  0.17290  Biso   1.000  H
  H6       1.0000 0.69330  0.76700  0.17290  Biso   1.000  H
  H7       1.0000 0.80670  0.26700  0.82710  Biso   1.000  H
  H8       1.0000 0.30670  0.76700  0.82710  Biso   1.000  H
  O25      1.0000 0.69630  0.61128  0.69892  Biso   1.000  O
  O26      1.0000 0.19630  0.11128  0.69892  Biso   1.000  O
  O27      1.0000 0.30370  0.61128  0.30108  Biso   1.000  O
  O28      1.0000 0.80370  0.11128  0.30108  Biso   1.000  O
  O29      1.0000 0.30370  0.38872  0.30108  Biso   1.000  O
  O30      1.0000 0.80370  0.88872  0.30108  Biso   1.000  O
  O31      1.0000 0.69630  0.38872  0.69892  Biso   1.000  O
  O32      1.0000 0.19630  0.88872  0.69892  Biso   1.000  O
  O33      1.0000 0.66090  0.50000  0.43081  Biso   1.000  O
  O34      1.0000 0.16090  0.00000  0.43081  Biso   1.000  O
  O35      1.0000 0.33910  0.50000  0.56919  Biso   1.000  O
  O36      1.0000 0.83910  0.00000  0.56919  Biso   1.000  O
  H9       1.0000 0.70130  0.53330  0.40120  Biso   1.000  H
  H10      1.0000 0.20130  0.03330  0.40120  Biso   1.000  H
  H11      1.0000 0.29870  0.53330  0.59880  Biso   1.000  H
  H12      1.0000 0.79870  0.03330  0.59880  Biso   1.000  H
  H13      1.0000 0.29870  0.46670  0.59880  Biso   1.000  H
  H14      1.0000 0.79870  0.96670  0.59880  Biso   1.000  H
  H15      1.0000 0.70130  0.46670  0.40120  Biso   1.000  H
  H16      1.0000 0.20130  0.96670  0.40120  Biso   1.000  H
  O37      1.0000 0.02010  0.50000  0.78407  Biso   1.000  O
  O38      1.0000 0.52010  0.00000  0.78407  Biso   1.000  O
  O39      1.0000 0.97990  0.50000  0.21593  Biso   1.000  O
  O40      1.0000 0.47990  0.00000  0.21593  Biso   1.000  O
  H17      1.0000 0.07530  0.46820  0.76360  Biso   1.000  H
  H18      1.0000 0.57530  0.96820  0.76360  Biso   1.000  H
  H19      1.0000 0.92470  0.46820  0.23640  Biso   1.000  H
  H20      1.0000 0.42470  0.96820  0.23640  Biso   1.000  H
  H21      1.0000 0.92470  0.53180  0.23640  Biso   1.000  H
  H22      1.0000 0.42470  0.03180  0.23640  Biso   1.000  H
  H23      1.0000 0.07530  0.53180  0.76360  Biso   1.000  H
  H24      1.0000 0.57530  0.03180  0.76360  Biso   1.000  H
  O41      1.0000 0.71800  0.50000  0.92224  Biso   1.000  O
  O42      1.0000 0.21800  0.00000  0.92224  Biso   1.000  O
  O43      1.0000 0.28200  0.50000  0.07776  Biso   1.000  O
  O44      1.0000 0.78200  0.00000  0.07776  Biso   1.000  O
  H25      1.0000 0.65200  0.53020  0.93950  Biso   1.000  H
  H26      1.0000 0.15200  0.03020  0.93950  Biso   1.000  H
  H27      1.0000 0.34800  0.53020  0.06050  Biso   1.000  H
  H28      1.0000 0.84800  0.03020  0.06050  Biso   1.000  H
  H29      1.0000 0.34800  0.46980  0.06050  Biso   1.000  H
  H30      1.0000 0.84800  0.96980  0.06050  Biso   1.000  H
  H31      1.0000 0.65200  0.46980  0.93950  Biso   1.000  H
  H32      1.0000 0.15200  0.96980  0.93950  Biso   1.000  H
  O45      1.0000 0.00000  0.40264  0.00000  Biso   1.000  O
  O46      1.0000 0.50000  0.90264  0.00000  Biso   1.000  O
  O47      1.0000 0.00000  0.59736  0.00000  Biso   1.000  O
  O48      1.0000 0.50000  0.09736  0.00000  Biso   1.000  O
  H33      1.0000 0.05840  0.37930  0.06010  Biso   1.000  H
  H34      1.0000 0.55840  0.87930  0.06010  Biso   1.000  H
  H35      1.0000 0.94160  0.37930  0.93990  Biso   1.000  H
  H36      1.0000 0.44160  0.87930  0.93990  Biso   1.000  H
  H37      1.0000 0.94160  0.62070  0.93990  Biso   1.000  H
  H38      1.0000 0.44160  0.12070  0.93990  Biso   1.000  H
  H39      1.0000 0.05840  0.62070  0.06010  Biso   1.000  H
  H40      1.0000 0.55840  0.12070  0.06010  Biso   1.000  H
  C1       1.0000 0.50000  0.68567  0.50000  Biso   1.000  C
  C2       1.0000 0.00000  0.18567  0.50000  Biso   1.000  C
  C3       1.0000 0.50000  0.31433  0.50000  Biso   1.000  C
  C4       1.0000 0.00000  0.81433  0.50000  Biso   1.000  C
  H41      1.0000 0.50000  0.63980  0.50000  Biso   1.000  H
  H42      1.0000 0.00000  0.13980  0.50000  Biso   1.000  H
  H43      1.0000 0.50000  0.36020  0.50000  Biso   1.000  H
  H44      1.0000 0.00000  0.86020  0.50000  Biso   1.000  H
  C5       1.0000 0.60635  0.71771  0.61176  Biso   1.000  C
  C6       1.0000 0.10635  0.21771  0.61176  Biso   1.000  C
  C7       1.0000 0.39365  0.71771  0.38824  Biso   1.000  C
  C8       1.0000 0.89365  0.21771  0.38824  Biso   1.000  C
  C9       1.0000 0.39365  0.28229  0.38824  Biso   1.000  C
  C10      1.0000 0.89365  0.78229  0.38824  Biso   1.000  C
  C11      1.0000 0.60635  0.28229  0.61176  Biso   1.000  C
  C12      1.0000 0.10635  0.78229  0.61176  Biso   1.000  C
  C13      1.0000 0.60679  0.78746  0.61166  Biso   1.000  C
  C14      1.0000 0.10679  0.28746  0.61166  Biso   1.000  C
  C15      1.0000 0.39321  0.78746  0.38834  Biso   1.000  C
  C16      1.0000 0.89321  0.28746  0.38834  Biso   1.000  C
  C17      1.0000 0.39321  0.21254  0.38834  Biso   1.000  C
  C18      1.0000 0.89321  0.71254  0.38834  Biso   1.000  C
  C19      1.0000 0.60679  0.21254  0.61166  Biso   1.000  C
  C20      1.0000 0.10679  0.71254  0.61166  Biso   1.000  C
  C21      1.0000 0.50000  0.81944  0.50000  Biso   1.000  C
  C22      1.0000 0.00000  0.31944  0.50000  Biso   1.000  C
  C23      1.0000 0.50000  0.18056  0.50000  Biso   1.000  C
  C24      1.0000 0.00000  0.68056  0.50000  Biso   1.000  C
  H45      1.0000 0.50000  0.86530  0.50000  Biso   1.000  H
  H46      1.0000 0.00000  0.36530  0.50000  Biso   1.000  H
  H47      1.0000 0.50000  0.13470  0.50000  Biso   1.000  H
  H48      1.0000 0.00000  0.63470  0.50000  Biso   1.000  H
  C25      1.0000 0.71170  0.83426  0.71937  Biso   1.000  C
  C26      1.0000 0.21170  0.33426  0.71937  Biso   1.000  C
  C27      1.0000 0.28830  0.83426  0.28063  Biso   1.000  C
  C28      1.0000 0.78830  0.33426  0.28063  Biso   1.000  C
  C29      1.0000 0.28830  0.16574  0.28063  Biso   1.000  C
  C30      1.0000 0.78830  0.66574  0.28063  Biso   1.000  C
  C31      1.0000 0.71170  0.16574  0.71937  Biso   1.000  C
  C32      1.0000 0.21170  0.66574  0.71937  Biso   1.000  C
  C33      1.0000 0.70950  0.67000  0.71880  Biso   1.000  C
  C34      1.0000 0.20950  0.17000  0.71880  Biso   1.000  C
  C35      1.0000 0.29050  0.67000  0.28120  Biso   1.000  C
  C36      1.0000 0.79050  0.17000  0.28120  Biso   1.000  C
  C37      1.0000 0.29050  0.33000  0.28120  Biso   1.000  C
  C38      1.0000 0.79050  0.83000  0.28120  Biso   1.000  C
  C39      1.0000 0.70950  0.33000  0.71880  Biso   1.000  C
  C40      1.0000 0.20950  0.83000  0.71880  Biso   1.000  C
  O49      1.0000 0.50000  0.40675  0.00000  Biso   1.000  O
  O50      1.0000 0.00000  0.90675  0.00000  Biso   1.000  O
  O51      1.0000 0.50000  0.59325  0.00000  Biso   1.000  O
  O52      1.0000 0.00000  0.09325  0.00000  Biso   1.000  O
  H49      1.0000 0.44540  0.38110  0.94130  Biso   1.000  H
  H50      1.0000 0.94540  0.88110  0.94130  Biso   1.000  H
  H51      1.0000 0.55460  0.38110  0.05870  Biso   1.000  H
  H52      1.0000 0.05460  0.88110  0.05870  Biso   1.000  H
  H53      1.0000 0.55460  0.61890  0.05870  Biso   1.000  H
  H54      1.0000 0.05460  0.11890  0.05870  Biso   1.000  H
  H55      1.0000 0.44540  0.61890  0.94130  Biso   1.000  H
  H56      1.0000 0.94540  0.11890  0.94130  Biso   1.000  H
