data_image0
_cell_length_a       10.535
_cell_length_b       8.836
_cell_length_c       14.188
_cell_angle_alpha    90
_cell_angle_beta     99.08
_cell_angle_gamma    90

_symmetry_space_group_name_H-M    "P 1"
_symmetry_int_tables_number       1

loop_
  _symmetry_equiv_pos_as_xyz
  'x, y, z'

loop_
  _atom_site_label
  _atom_site_occupancy
  _atom_site_fract_x
  _atom_site_fract_y
  _atom_site_fract_z
  _atom_site_thermal_displace_type
  _atom_site_B_iso_or_equiv
  _atom_site_type_symbol
  Cu1      1.0000 0.04117  0.00000  0.09875  Biso   1.000  Cu
  Cu2      1.0000 0.95883  0.50000  0.90125  Biso   1.000  Cu
  Cu3      1.0000 0.54015  0.96802  0.09161  Biso   1.000  Cu
  Cu4      1.0000 0.45985  0.46802  0.90839  Biso   1.000  Cu
  S1       1.0000 0.40570  0.39150  0.38340  Biso   1.000  S
  S2       1.0000 0.59430  0.89150  0.61660  Biso   1.000  S
  S3       1.0000 0.12510  0.55910  0.20810  Biso   1.000  S
  S4       1.0000 0.87490  0.05910  0.79190  Biso   1.000  S
  S5       1.0000 0.95860  0.17770  0.41270  Biso   1.000  S
  S6       1.0000 0.04140  0.67770  0.58730  Biso   1.000  S
  S7       1.0000 0.64230  0.53010  0.22850  Biso   1.000  S
  S8       1.0000 0.35770  0.03010  0.77150  Biso   1.000  S
  O1       1.0000 0.41100  0.93510  0.20690  Biso   1.000  O
  O2       1.0000 0.58900  0.43510  0.79310  Biso   1.000  O
  O3       1.0000 0.01240  0.82490  0.00620  Biso   1.000  O
  O4       1.0000 0.98760  0.32490  0.99380  Biso   1.000  O
  O5       1.0000 0.10630  0.61120  0.96700  Biso   1.000  O
  O6       1.0000 0.89370  0.11120  0.03300  Biso   1.000  O
  O7       1.0000 0.90900  0.92460  0.20820  Biso   1.000  O
  O8       1.0000 0.09100  0.42460  0.79180  Biso   1.000  O
  O9       1.0000 0.51490  0.77740  0.01520  Biso   1.000  O
  O10      1.0000 0.48510  0.27740  0.98480  Biso   1.000  O
  O11      1.0000 0.60930  0.56020  0.98760  Biso   1.000  O
  O12      1.0000 0.39070  0.06020  0.01240  Biso   1.000  O
  N1       1.0000 0.11720  0.15770  0.19510  Biso   1.000  N
  N2       1.0000 0.88280  0.65770  0.80490  Biso   1.000  N
  N3       1.0000 0.20060  0.90080  0.13880  Biso   1.000  N
  N4       1.0000 0.79940  0.40080  0.86120  Biso   1.000  N
  N5       1.0000 0.62600  0.15470  0.15510  Biso   1.000  N
  N6       1.0000 0.37400  0.65470  0.84490  Biso   1.000  N
  N7       1.0000 0.70010  0.87350  0.14080  Biso   1.000  N
  N8       1.0000 0.29990  0.37350  0.85920  Biso   1.000  N
  C1       1.0000 0.25550  0.12380  0.23180  Biso   1.000  C
  C2       1.0000 0.74450  0.62380  0.76820  Biso   1.000  C
  C3       1.0000 0.29520  0.97360  0.18970  Biso   1.000  C
  C4       1.0000 0.70480  0.47360  0.81030  Biso   1.000  C
  C5       1.0000 0.22420  0.76350  0.08750  Biso   1.000  C
  C6       1.0000 0.77580  0.26350  0.91250  Biso   1.000  C
  C7       1.0000 0.10460  0.73150  0.01470  Biso   1.000  C
  C8       1.0000 0.89540  0.23150  0.98530  Biso   1.000  C
  C9       1.0000 0.27960  0.11680  0.34070  Biso   1.000  C
  C10      1.0000 0.72040  0.61680  0.65930  Biso   1.000  C
  C11      1.0000 0.27110  0.26830  0.39090  Biso   1.000  C
  C12      1.0000 0.72890  0.76830  0.60910  Biso   1.000  C
  C13      1.0000 0.52160  0.31970  0.48350  Biso   1.000  C
  C14      1.0000 0.47840  0.81970  0.51650  Biso   1.000  C
  C15      1.0000 0.25690  0.62670  0.15160  Biso   1.000  C
  C16      1.0000 0.74310  0.12670  0.84840  Biso   1.000  C
  C17      1.0000 0.13560  0.67760  0.31160  Biso   1.000  C
  C18      1.0000 0.86440  0.17760  0.68840  Biso   1.000  C
  C19      1.0000 0.74470  0.11020  0.22030  Biso   1.000  C
  C20      1.0000 0.25530  0.61020  0.77970  Biso   1.000  C
  C21      1.0000 0.79210  0.95730  0.18780  Biso   1.000  C
  C22      1.0000 0.20790  0.45730  0.81220  Biso   1.000  C
  C23      1.0000 0.72840  0.73080  0.09790  Biso   1.000  C
  C24      1.0000 0.27160  0.23080  0.90210  Biso   1.000  C
  C25      1.0000 0.60760  0.68620  0.02740  Biso   1.000  C
  C26      1.0000 0.39240  0.18620  0.97260  Biso   1.000  C
  C27      1.0000 0.71080  0.09890  0.32080  Biso   1.000  C
  C28      1.0000 0.28920  0.59890  0.67920  Biso   1.000  C
  C29      1.0000 0.81930  0.05620  0.39900  Biso   1.000  C
  C30      1.0000 0.18070  0.55620  0.60100  Biso   1.000  C
  C31      1.0000 0.89200  0.35370  0.43990  Biso   1.000  C
  C32      1.0000 0.10800  0.85370  0.56010  Biso   1.000  C
  C33      1.0000 0.76780  0.60290  0.16820  Biso   1.000  C
  C34      1.0000 0.23220  0.10290  0.83180  Biso   1.000  C
  C35      1.0000 0.63850  0.66640  0.32040  Biso   1.000  C
  C36      1.0000 0.36150  0.16640  0.67960  Biso   1.000  C
  H1       1.0000 0.31380  0.20320  0.20500  Biso   1.000  H
  H2       1.0000 0.68620  0.70320  0.79500  Biso   1.000  H
  H3       1.0000 0.10770  0.25740  0.16540  Biso   1.000  H
  H4       1.0000 0.89230  0.75740  0.83460  Biso   1.000  H
  H5       1.0000 0.07760  0.13980  0.23730  Biso   1.000  H
  H6       1.0000 0.92240  0.63980  0.76270  Biso   1.000  H
  H7       1.0000 0.28930  0.77900  0.05750  Biso   1.000  H
  H8       1.0000 0.71070  0.27900  0.94250  Biso   1.000  H
  H9       1.0000 0.35330  0.06120  0.34920  Biso   1.000  H
  H10      1.0000 0.64670  0.56120  0.65080  Biso   1.000  H
  H11      1.0000 0.20810  0.03740  0.36680  Biso   1.000  H
  H12      1.0000 0.79190  0.53740  0.63320  Biso   1.000  H
  H13      1.0000 0.18650  0.32800  0.35600  Biso   1.000  H
  H14      1.0000 0.81350  0.82800  0.64400  Biso   1.000  H
  H15      1.0000 0.28010  0.25560  0.46940  Biso   1.000  H
  H16      1.0000 0.71990  0.75560  0.53060  Biso   1.000  H
  H17      1.0000 0.47280  0.36460  0.53470  Biso   1.000  H
  H18      1.0000 0.52720  0.86460  0.46530  Biso   1.000  H
  H19      1.0000 0.61240  0.36660  0.50640  Biso   1.000  H
  H20      1.0000 0.38760  0.86660  0.49360  Biso   1.000  H
  H21      1.0000 0.55550  0.20780  0.48220  Biso   1.000  H
  H22      1.0000 0.44450  0.70780  0.51780  Biso   1.000  H
  H23      1.0000 0.33270  0.64400  0.19630  Biso   1.000  H
  H24      1.0000 0.66730  0.14400  0.80370  Biso   1.000  H
  H25      1.0000 0.27790  0.55070  0.11810  Biso   1.000  H
  H26      1.0000 0.72210  0.05070  0.88190  Biso   1.000  H
  H27      1.0000 0.06640  0.62100  0.35710  Biso   1.000  H
  H28      1.0000 0.93360  0.12100  0.64290  Biso   1.000  H
  H29      1.0000 0.21560  0.68770  0.34040  Biso   1.000  H
  H30      1.0000 0.78440  0.18770  0.65960  Biso   1.000  H
  H31      1.0000 0.11180  0.77510  0.30720  Biso   1.000  H
  H32      1.0000 0.88820  0.27510  0.69280  Biso   1.000  H
  H33      1.0000 0.81630  0.18700  0.20830  Biso   1.000  H
  H34      1.0000 0.18370  0.68700  0.79170  Biso   1.000  H
  H35      1.0000 0.59060  0.25890  0.16560  Biso   1.000  H
  H36      1.0000 0.40940  0.75890  0.83440  Biso   1.000  H
  H37      1.0000 0.64840  0.19570  0.08840  Biso   1.000  H
  H38      1.0000 0.35160  0.69570  0.91160  Biso   1.000  H
  H39      1.0000 0.79440  0.75070  0.05910  Biso   1.000  H
  H40      1.0000 0.20560  0.25070  0.94090  Biso   1.000  H
  H41      1.0000 0.67410  0.18780  0.33810  Biso   1.000  H
  H42      1.0000 0.32590  0.68780  0.66190  Biso   1.000  H
  H43      1.0000 0.63840  0.02260  0.32840  Biso   1.000  H
  H44      1.0000 0.36160  0.52260  0.67160  Biso   1.000  H
  H45      1.0000 0.78880  0.05050  0.45680  Biso   1.000  H
  H46      1.0000 0.21120  0.55050  0.54320  Biso   1.000  H
  H47      1.0000 0.86180  0.94590  0.38590  Biso   1.000  H
  H48      1.0000 0.13820  0.44590  0.61410  Biso   1.000  H
  H49      1.0000 0.96600  0.43430  0.45220  Biso   1.000  H
  H50      1.0000 0.03400  0.93430  0.54780  Biso   1.000  H
  H51      1.0000 0.82080  0.38350  0.39140  Biso   1.000  H
  H52      1.0000 0.17920  0.88350  0.60860  Biso   1.000  H
  H53      1.0000 0.78950  0.51070  0.13040  Biso   1.000  H
  H54      1.0000 0.21050  0.01070  0.86960  Biso   1.000  H
  H55      1.0000 0.84510  0.65290  0.21660  Biso   1.000  H
  H56      1.0000 0.15490  0.15290  0.78340  Biso   1.000  H
  H57      1.0000 0.57320  0.62440  0.36400  Biso   1.000  H
  H58      1.0000 0.42680  0.12440  0.63600  Biso   1.000  H
  H59      1.0000 0.61630  0.77190  0.30040  Biso   1.000  H
  H60      1.0000 0.38370  0.27190  0.69960  Biso   1.000  H
  H61      1.0000 0.72070  0.67670  0.34870  Biso   1.000  H
  H62      1.0000 0.27930  0.17670  0.65130  Biso   1.000  H
