data_image0
_cell_length_a       12.73
_cell_length_b       14.872
_cell_length_c       11.539
_cell_angle_alpha    90
_cell_angle_beta     95.077
_cell_angle_gamma    90

_symmetry_space_group_name_H-M    "P 1"
_symmetry_int_tables_number       1

loop_
  _symmetry_equiv_pos_as_xyz
  'x, y, z'

loop_
  _atom_site_label
  _atom_site_occupancy
  _atom_site_fract_x
  _atom_site_fract_y
  _atom_site_fract_z
  _atom_site_thermal_displace_type
  _atom_site_B_iso_or_equiv
  _atom_site_type_symbol
  Cu1      1.0000 0.39142  0.05812  0.70430  Biso   1.000  Cu
  Cu2      1.0000 0.60858  0.55812  0.79570  Biso   1.000  Cu
  Cu3      1.0000 0.60858  0.94188  0.29570  Biso   1.000  Cu
  Cu4      1.0000 0.39142  0.44188  0.20430  Biso   1.000  Cu
  O1       1.0000 0.50449  0.17441  0.80310  Biso   1.000  O
  O2       1.0000 0.49551  0.67441  0.69690  Biso   1.000  O
  O3       1.0000 0.49551  0.82559  0.19690  Biso   1.000  O
  O4       1.0000 0.50449  0.32559  0.30310  Biso   1.000  O
  O5       1.0000 0.50345  0.11870  0.62530  Biso   1.000  O
  O6       1.0000 0.49655  0.61870  0.87470  Biso   1.000  O
  O7       1.0000 0.49655  0.88130  0.37470  Biso   1.000  O
  O8       1.0000 0.50345  0.38130  0.12530  Biso   1.000  O
  O9       1.0000 0.97393  0.35036  0.56433  Biso   1.000  O
  O10      1.0000 0.02607  0.85036  0.93567  Biso   1.000  O
  O11      1.0000 0.02607  0.64964  0.43567  Biso   1.000  O
  O12      1.0000 0.97393  0.14964  0.06433  Biso   1.000  O
  O13      1.0000 0.27900  0.51111  0.05070  Biso   1.000  O
  O14      1.0000 0.72100  0.01111  0.44930  Biso   1.000  O
  O15      1.0000 0.72100  0.48889  0.94930  Biso   1.000  O
  O16      1.0000 0.27900  0.98889  0.55070  Biso   1.000  O
  O17      1.0000 0.27095  0.37555  0.12291  Biso   1.000  O
  O18      1.0000 0.72905  0.87555  0.37709  Biso   1.000  O
  O19      1.0000 0.72905  0.62445  0.87709  Biso   1.000  O
  O20      1.0000 0.27095  0.12445  0.62291  Biso   1.000  O
  N1       1.0000 0.31695  0.02104  0.84120  Biso   1.000  N
  N2       1.0000 0.68305  0.52104  0.65880  Biso   1.000  N
  N3       1.0000 0.68305  0.97896  0.15880  Biso   1.000  N
  N4       1.0000 0.31695  0.47896  0.34120  Biso   1.000  N
  N5       1.0000 0.48892  0.96062  0.76390  Biso   1.000  N
  N6       1.0000 0.51108  0.46062  0.73610  Biso   1.000  N
  N7       1.0000 0.51108  0.03938  0.23610  Biso   1.000  N
  N8       1.0000 0.48892  0.53938  0.26390  Biso   1.000  N
  C1       1.0000 0.54440  0.16604  0.70960  Biso   1.000  C
  C2       1.0000 0.45560  0.66604  0.79040  Biso   1.000  C
  C3       1.0000 0.45560  0.83396  0.29040  Biso   1.000  C
  C4       1.0000 0.54440  0.33396  0.20960  Biso   1.000  C
  C5       1.0000 0.64890  0.21053  0.69530  Biso   1.000  C
  C6       1.0000 0.35110  0.71053  0.80470  Biso   1.000  C
  C7       1.0000 0.35110  0.78947  0.30470  Biso   1.000  C
  C8       1.0000 0.64890  0.28947  0.19530  Biso   1.000  C
  C9       1.0000 0.70630  0.19010  0.60270  Biso   1.000  C
  C10      1.0000 0.29370  0.69010  0.89730  Biso   1.000  C
  C11      1.0000 0.29370  0.80990  0.39730  Biso   1.000  C
  C12      1.0000 0.70630  0.30990  0.10270  Biso   1.000  C
  H1       1.0000 0.67980  0.14890  0.54700  Biso   1.000  H
  H2       1.0000 0.32020  0.64890  0.95300  Biso   1.000  H
  H3       1.0000 0.32020  0.85110  0.45300  Biso   1.000  H
  H4       1.0000 0.67980  0.35110  0.04700  Biso   1.000  H
  C13      1.0000 0.80260  0.23030  0.59220  Biso   1.000  C
  C14      1.0000 0.19740  0.73030  0.90780  Biso   1.000  C
  C15      1.0000 0.19740  0.76970  0.40780  Biso   1.000  C
  C16      1.0000 0.80260  0.26970  0.09220  Biso   1.000  C
  H5       1.0000 0.84000  0.21690  0.52870  Biso   1.000  H
  H6       1.0000 0.16000  0.71690  0.97130  Biso   1.000  H
  H7       1.0000 0.16000  0.78310  0.47130  Biso   1.000  H
  H8       1.0000 0.84000  0.28310  0.02870  Biso   1.000  H
  C17      1.0000 0.84410  0.29063  0.67600  Biso   1.000  C
  C18      1.0000 0.15590  0.79063  0.82400  Biso   1.000  C
  C19      1.0000 0.15590  0.70937  0.32400  Biso   1.000  C
  C20      1.0000 0.84410  0.20937  0.17600  Biso   1.000  C
  C21      1.0000 0.78640  0.31146  0.76900  Biso   1.000  C
  C22      1.0000 0.21360  0.81146  0.73100  Biso   1.000  C
  C23      1.0000 0.21360  0.68854  0.23100  Biso   1.000  C
  C24      1.0000 0.78640  0.18854  0.26900  Biso   1.000  C
  H9       1.0000 0.81330  0.35210  0.82530  Biso   1.000  H
  H10      1.0000 0.18670  0.85210  0.67470  Biso   1.000  H
  H11      1.0000 0.18670  0.64790  0.17470  Biso   1.000  H
  H12      1.0000 0.81330  0.14790  0.32530  Biso   1.000  H
  C25      1.0000 0.68930  0.27215  0.77810  Biso   1.000  C
  C26      1.0000 0.31070  0.77215  0.72190  Biso   1.000  C
  C27      1.0000 0.31070  0.72785  0.22190  Biso   1.000  C
  C28      1.0000 0.68930  0.22785  0.27810  Biso   1.000  C
  H13      1.0000 0.65070  0.28700  0.84010  Biso   1.000  H
  H14      1.0000 0.34930  0.78700  0.65990  Biso   1.000  H
  H15      1.0000 0.34930  0.71300  0.15990  Biso   1.000  H
  H16      1.0000 0.65070  0.21300  0.34010  Biso   1.000  H
  C29      1.0000 0.94620  0.33560  0.66100  Biso   1.000  C
  C30      1.0000 0.05380  0.83560  0.83900  Biso   1.000  C
  C31      1.0000 0.05380  0.66440  0.33900  Biso   1.000  C
  C32      1.0000 0.94620  0.16440  0.16100  Biso   1.000  C
  C33      1.0000 0.01480  0.36250  0.76670  Biso   1.000  C
  C34      1.0000 0.98520  0.86250  0.73330  Biso   1.000  C
  C35      1.0000 0.98520  0.63750  0.23330  Biso   1.000  C
  C36      1.0000 0.01480  0.13750  0.26670  Biso   1.000  C
  C37      1.0000 0.06270  0.44610  0.77030  Biso   1.000  C
  C38      1.0000 0.93730  0.94610  0.72970  Biso   1.000  C
  C39      1.0000 0.93730  0.55390  0.22970  Biso   1.000  C
  C40      1.0000 0.06270  0.05390  0.27030  Biso   1.000  C
  H17      1.0000 0.04800  0.48630  0.70930  Biso   1.000  H
  H18      1.0000 0.95200  0.98630  0.79070  Biso   1.000  H
  H19      1.0000 0.95200  0.51370  0.29070  Biso   1.000  H
  H20      1.0000 0.04800  0.01370  0.20930  Biso   1.000  H
  C41      1.0000 0.13220  0.47000  0.86360  Biso   1.000  C
  C42      1.0000 0.86780  0.97000  0.63640  Biso   1.000  C
  C43      1.0000 0.86780  0.53000  0.13640  Biso   1.000  C
  C44      1.0000 0.13220  0.03000  0.36360  Biso   1.000  C
  H21      1.0000 0.16260  0.52690  0.86610  Biso   1.000  H
  H22      1.0000 0.83740  0.02690  0.63390  Biso   1.000  H
  H23      1.0000 0.83740  0.47310  0.13390  Biso   1.000  H
  H24      1.0000 0.16260  0.97310  0.36610  Biso   1.000  H
  C45      1.0000 0.15710  0.40990  0.95360  Biso   1.000  C
  C46      1.0000 0.84290  0.90990  0.54640  Biso   1.000  C
  C47      1.0000 0.84290  0.59010  0.04640  Biso   1.000  C
  C48      1.0000 0.15710  0.09010  0.45360  Biso   1.000  C
  C49      1.0000 0.10850  0.32710  0.95080  Biso   1.000  C
  C50      1.0000 0.89150  0.82710  0.54920  Biso   1.000  C
  C51      1.0000 0.89150  0.67290  0.04920  Biso   1.000  C
  C52      1.0000 0.10850  0.17290  0.45080  Biso   1.000  C
  H25      1.0000 0.12450  0.28640  0.01090  Biso   1.000  H
  H26      1.0000 0.87550  0.78640  0.48910  Biso   1.000  H
  H27      1.0000 0.87550  0.71360  0.98910  Biso   1.000  H
  H28      1.0000 0.12450  0.21360  0.51090  Biso   1.000  H
  C53      1.0000 0.03610  0.30410  0.85910  Biso   1.000  C
  C54      1.0000 0.96390  0.80410  0.64090  Biso   1.000  C
  C55      1.0000 0.96390  0.69590  0.14090  Biso   1.000  C
  C56      1.0000 0.03610  0.19590  0.35910  Biso   1.000  C
  H29      1.0000 0.00150  0.24900  0.85960  Biso   1.000  H
  H30      1.0000 0.99850  0.74900  0.64040  Biso   1.000  H
  H31      1.0000 0.99850  0.75100  0.14040  Biso   1.000  H
  H32      1.0000 0.00150  0.25100  0.35960  Biso   1.000  H
  C57      1.0000 0.24040  0.43500  0.04820  Biso   1.000  C
  C58      1.0000 0.75960  0.93500  0.45180  Biso   1.000  C
  C59      1.0000 0.75960  0.56500  0.95180  Biso   1.000  C
  C60      1.0000 0.24040  0.06500  0.54820  Biso   1.000  C
  C61      1.0000 0.22740  0.05650  0.87320  Biso   1.000  C
  C62      1.0000 0.77260  0.55650  0.62680  Biso   1.000  C
  C63      1.0000 0.77260  0.94350  0.12680  Biso   1.000  C
  C64      1.0000 0.22740  0.44350  0.37320  Biso   1.000  C
  H33      1.0000 0.19260  0.09970  0.82580  Biso   1.000  H
  H34      1.0000 0.80740  0.59970  0.67420  Biso   1.000  H
  H35      1.0000 0.80740  0.90030  0.17420  Biso   1.000  H
  H36      1.0000 0.19260  0.40030  0.32580  Biso   1.000  H
  C65      1.0000 0.18540  0.03130  0.97340  Biso   1.000  C
  C66      1.0000 0.81460  0.53130  0.52660  Biso   1.000  C
  C67      1.0000 0.81460  0.96870  0.02660  Biso   1.000  C
  C68      1.0000 0.18540  0.46870  0.47340  Biso   1.000  C
  H37      1.0000 0.12340  0.05730  0.99450  Biso   1.000  H
  H38      1.0000 0.87660  0.55730  0.50550  Biso   1.000  H
  H39      1.0000 0.87660  0.94270  0.00550  Biso   1.000  H
  H40      1.0000 0.12340  0.44270  0.49450  Biso   1.000  H
  C69      1.0000 0.23700  0.96660  0.04250  Biso   1.000  C
  C70      1.0000 0.76300  0.46660  0.45750  Biso   1.000  C
  C71      1.0000 0.76300  0.03340  0.95750  Biso   1.000  C
  C72      1.0000 0.23700  0.53340  0.54250  Biso   1.000  C
  H41      1.0000 0.20930  0.94780  0.11030  Biso   1.000  H
  H42      1.0000 0.79070  0.44780  0.38970  Biso   1.000  H
  H43      1.0000 0.79070  0.05220  0.88970  Biso   1.000  H
  H44      1.0000 0.20930  0.55220  0.61030  Biso   1.000  H
  C73      1.0000 0.32930  0.93010  0.01090  Biso   1.000  C
  C74      1.0000 0.67070  0.43010  0.48910  Biso   1.000  C
  C75      1.0000 0.67070  0.06990  0.98910  Biso   1.000  C
  C76      1.0000 0.32930  0.56990  0.51090  Biso   1.000  C
  H45      1.0000 0.36500  0.88670  0.05710  Biso   1.000  H
  H46      1.0000 0.63500  0.38670  0.44290  Biso   1.000  H
  H47      1.0000 0.63500  0.11330  0.94290  Biso   1.000  H
  H48      1.0000 0.36500  0.61330  0.55710  Biso   1.000  H
  C77      1.0000 0.36800  0.95925  0.90900  Biso   1.000  C
  C78      1.0000 0.63200  0.45925  0.59100  Biso   1.000  C
  C79      1.0000 0.63200  0.04075  0.09100  Biso   1.000  C
  C80      1.0000 0.36800  0.54075  0.40900  Biso   1.000  C
  C81      1.0000 0.46620  0.92420  0.86600  Biso   1.000  C
  C82      1.0000 0.53380  0.42420  0.63400  Biso   1.000  C
  C83      1.0000 0.53380  0.07580  0.13400  Biso   1.000  C
  C84      1.0000 0.46620  0.57580  0.36600  Biso   1.000  C
  C85      1.0000 0.53030  0.85901  0.92070  Biso   1.000  C
  C86      1.0000 0.46970  0.35901  0.57930  Biso   1.000  C
  C87      1.0000 0.46970  0.14099  0.07930  Biso   1.000  C
  C88      1.0000 0.53030  0.64099  0.42070  Biso   1.000  C
  H49      1.0000 0.51540  0.83600  0.99240  Biso   1.000  H
  H50      1.0000 0.48460  0.33600  0.50760  Biso   1.000  H
  H51      1.0000 0.48460  0.16400  0.00760  Biso   1.000  H
  H52      1.0000 0.51540  0.66400  0.49240  Biso   1.000  H
  C89      1.0000 0.61630  0.82860  0.86790  Biso   1.000  C
  C90      1.0000 0.38370  0.32860  0.63210  Biso   1.000  C
  C91      1.0000 0.38370  0.17140  0.13210  Biso   1.000  C
  C92      1.0000 0.61630  0.67140  0.36790  Biso   1.000  C
  H53      1.0000 0.66000  0.78450  0.90340  Biso   1.000  H
  H54      1.0000 0.34000  0.28450  0.59660  Biso   1.000  H
  H55      1.0000 0.34000  0.21550  0.09660  Biso   1.000  H
  H56      1.0000 0.66000  0.71550  0.40340  Biso   1.000  H
  C93      1.0000 0.63710  0.86380  0.76240  Biso   1.000  C
  C94      1.0000 0.36290  0.36380  0.73760  Biso   1.000  C
  C95      1.0000 0.36290  0.13620  0.23760  Biso   1.000  C
  C96      1.0000 0.63710  0.63620  0.26240  Biso   1.000  C
  H57      1.0000 0.69390  0.84310  0.72450  Biso   1.000  H
  H58      1.0000 0.30610  0.34310  0.77550  Biso   1.000  H
  H59      1.0000 0.30610  0.15690  0.27550  Biso   1.000  H
  H60      1.0000 0.69390  0.65690  0.22450  Biso   1.000  H
  C97      1.0000 0.57230  0.93060  0.71350  Biso   1.000  C
  C98      1.0000 0.42770  0.43060  0.78650  Biso   1.000  C
  C99      1.0000 0.42770  0.06940  0.28650  Biso   1.000  C
  C100     1.0000 0.57230  0.56940  0.21350  Biso   1.000  C
  H61      1.0000 0.58740  0.95550  0.64300  Biso   1.000  H
  H62      1.0000 0.41260  0.45550  0.85700  Biso   1.000  H
  H63      1.0000 0.41260  0.04450  0.35700  Biso   1.000  H
  H64      1.0000 0.58740  0.54450  0.14300  Biso   1.000  H
