data_image0
_cell_length_a       9.0261
_cell_length_b       10.445
_cell_length_c       10.763
_cell_angle_alpha    90
_cell_angle_beta     100.65
_cell_angle_gamma    90

_symmetry_space_group_name_H-M    "P 1"
_symmetry_int_tables_number       1

loop_
  _symmetry_equiv_pos_as_xyz
  'x, y, z'

loop_
  _atom_site_label
  _atom_site_occupancy
  _atom_site_fract_x
  _atom_site_fract_y
  _atom_site_fract_z
  _atom_site_thermal_displace_type
  _atom_site_B_iso_or_equiv
  _atom_site_type_symbol
  Cu1      1.0000 0.50000  0.00000  0.00000  Biso   1.000  Cu
  Cu2      1.0000 0.50000  0.50000  0.50000  Biso   1.000  Cu
  C1       1.0000 0.16010  0.24140  0.85160  Biso   1.000  C
  C2       1.0000 0.83990  0.74140  0.64840  Biso   1.000  C
  C3       1.0000 0.83990  0.75860  0.14840  Biso   1.000  C
  C4       1.0000 0.16010  0.25860  0.35160  Biso   1.000  C
  C5       1.0000 0.04590  0.23510  0.92040  Biso   1.000  C
  C6       1.0000 0.95410  0.73510  0.57960  Biso   1.000  C
  C7       1.0000 0.95410  0.76490  0.07960  Biso   1.000  C
  C8       1.0000 0.04590  0.26490  0.42040  Biso   1.000  C
  H1       1.0000 0.05110  0.17400  0.98390  Biso   1.000  H
  H2       1.0000 0.94890  0.67400  0.51610  Biso   1.000  H
  H3       1.0000 0.94890  0.82600  0.01610  Biso   1.000  H
  H4       1.0000 0.05110  0.32600  0.48390  Biso   1.000  H
  C9       1.0000 0.92260  0.31800  0.89750  Biso   1.000  C
  C10      1.0000 0.07740  0.81800  0.60250  Biso   1.000  C
  C11      1.0000 0.07740  0.68200  0.10250  Biso   1.000  C
  C12      1.0000 0.92260  0.18200  0.39750  Biso   1.000  C
  C13      1.0000 0.91760  0.41130  0.80520  Biso   1.000  C
  C14      1.0000 0.08240  0.91130  0.69480  Biso   1.000  C
  C15      1.0000 0.08240  0.58870  0.19480  Biso   1.000  C
  C16      1.0000 0.91760  0.08870  0.30520  Biso   1.000  C
  H5       1.0000 0.83830  0.46950  0.79050  Biso   1.000  H
  H6       1.0000 0.16170  0.96950  0.70950  Biso   1.000  H
  H7       1.0000 0.16170  0.53050  0.20950  Biso   1.000  H
  H8       1.0000 0.83830  0.03050  0.29050  Biso   1.000  H
  C17      1.0000 0.03170  0.41710  0.73510  Biso   1.000  C
  C18      1.0000 0.96830  0.91710  0.76490  Biso   1.000  C
  C19      1.0000 0.96830  0.58290  0.26490  Biso   1.000  C
  C20      1.0000 0.03170  0.08290  0.23510  Biso   1.000  C
  H9       1.0000 0.02750  0.47910  0.67250  Biso   1.000  H
  H10      1.0000 0.97250  0.97910  0.82750  Biso   1.000  H
  H11      1.0000 0.97250  0.52090  0.32750  Biso   1.000  H
  H12      1.0000 0.02750  0.02090  0.17250  Biso   1.000  H
  C21      1.0000 0.15130  0.33270  0.75640  Biso   1.000  C
  C22      1.0000 0.84870  0.83270  0.74360  Biso   1.000  C
  C23      1.0000 0.84870  0.66730  0.24360  Biso   1.000  C
  C24      1.0000 0.15130  0.16730  0.25640  Biso   1.000  C
  H13      1.0000 0.22580  0.33680  0.70730  Biso   1.000  H
  H14      1.0000 0.77420  0.83680  0.79270  Biso   1.000  H
  H15      1.0000 0.77420  0.66320  0.29270  Biso   1.000  H
  H16      1.0000 0.22580  0.16320  0.20730  Biso   1.000  H
  C25      1.0000 0.29190  0.15080  0.87770  Biso   1.000  C
  C26      1.0000 0.70810  0.65080  0.62230  Biso   1.000  C
  C27      1.0000 0.70810  0.84920  0.12230  Biso   1.000  C
  C28      1.0000 0.29190  0.34920  0.37770  Biso   1.000  C
  C29      1.0000 0.79660  0.30360  0.96790  Biso   1.000  C
  C30      1.0000 0.20340  0.80360  0.53210  Biso   1.000  C
  C31      1.0000 0.20340  0.69640  0.03210  Biso   1.000  C
  C32      1.0000 0.79660  0.19640  0.46790  Biso   1.000  C
  C33      1.0000 0.73020  0.18620  0.97660  Biso   1.000  C
  C34      1.0000 0.26980  0.68620  0.52340  Biso   1.000  C
  C35      1.0000 0.26980  0.81380  0.02340  Biso   1.000  C
  C36      1.0000 0.73020  0.31380  0.47660  Biso   1.000  C
  H17      1.0000 0.76950  0.11660  0.93970  Biso   1.000  H
  H18      1.0000 0.23050  0.61660  0.56030  Biso   1.000  H
  H19      1.0000 0.23050  0.88340  0.06030  Biso   1.000  H
  H20      1.0000 0.76950  0.38340  0.43970  Biso   1.000  H
  C37      1.0000 0.56710  0.26300  0.09770  Biso   1.000  C
  C38      1.0000 0.43290  0.76300  0.40230  Biso   1.000  C
  C39      1.0000 0.43290  0.73700  0.90230  Biso   1.000  C
  C40      1.0000 0.56710  0.23700  0.59770  Biso   1.000  C
  H21      1.0000 0.49220  0.24880  0.14490  Biso   1.000  H
  H22      1.0000 0.50780  0.74880  0.35510  Biso   1.000  H
  H23      1.0000 0.50780  0.75120  0.85510  Biso   1.000  H
  H24      1.0000 0.49220  0.25120  0.64490  Biso   1.000  H
  C41      1.0000 0.62720  0.38440  0.09540  Biso   1.000  C
  C42      1.0000 0.37280  0.88440  0.40460  Biso   1.000  C
  C43      1.0000 0.37280  0.61560  0.90460  Biso   1.000  C
  C44      1.0000 0.62720  0.11560  0.59540  Biso   1.000  C
  H25      1.0000 0.59110  0.45120  0.13860  Biso   1.000  H
  H26      1.0000 0.40890  0.95120  0.36140  Biso   1.000  H
  H27      1.0000 0.40890  0.54880  0.86140  Biso   1.000  H
  H28      1.0000 0.59110  0.04880  0.63860  Biso   1.000  H
  C45      1.0000 0.74150  0.40560  0.02820  Biso   1.000  C
  C46      1.0000 0.25850  0.90560  0.47180  Biso   1.000  C
  C47      1.0000 0.25850  0.59440  0.97180  Biso   1.000  C
  C48      1.0000 0.74150  0.09440  0.52820  Biso   1.000  C
  H29      1.0000 0.78100  0.48730  0.02360  Biso   1.000  H
  H30      1.0000 0.21900  0.98730  0.47640  Biso   1.000  H
  H31      1.0000 0.21900  0.51270  0.97640  Biso   1.000  H
  H32      1.0000 0.78100  0.01270  0.52360  Biso   1.000  H
  N1       1.0000 0.61340  0.16480  0.03410  Biso   1.000  N
  N2       1.0000 0.38660  0.66480  0.46590  Biso   1.000  N
  N3       1.0000 0.38660  0.83520  0.96590  Biso   1.000  N
  N4       1.0000 0.61340  0.33520  0.53410  Biso   1.000  N
  O1       1.0000 0.31140  0.09380  0.98490  Biso   1.000  O
  O2       1.0000 0.68860  0.59380  0.51510  Biso   1.000  O
  O3       1.0000 0.68860  0.90620  0.01510  Biso   1.000  O
  O4       1.0000 0.31140  0.40620  0.48490  Biso   1.000  O
  O5       1.0000 0.37410  0.13630  0.79900  Biso   1.000  O
  O6       1.0000 0.62590  0.63630  0.70100  Biso   1.000  O
  O7       1.0000 0.62590  0.86370  0.20100  Biso   1.000  O
  O8       1.0000 0.37410  0.36370  0.29900  Biso   1.000  O
