data_image0
_cell_length_a       8.415
_cell_length_b       6.822
_cell_length_c       17.039
_cell_angle_alpha    90
_cell_angle_beta     103.65
_cell_angle_gamma    90

_symmetry_space_group_name_H-M    "P 1"
_symmetry_int_tables_number       1

loop_
  _symmetry_equiv_pos_as_xyz
  'x, y, z'

loop_
  _atom_site_label
  _atom_site_occupancy
  _atom_site_fract_x
  _atom_site_fract_y
  _atom_site_fract_z
  _atom_site_thermal_displace_type
  _atom_site_B_iso_or_equiv
  _atom_site_type_symbol
  Cu1      1.0000 0.41460  0.63180  0.72100  Biso   1.000  Cu
  Cu2      1.0000 0.08540  0.13180  0.77900  Biso   1.000  Cu
  Cu3      1.0000 0.58540  0.36820  0.27900  Biso   1.000  Cu
  Cu4      1.0000 0.91460  0.86820  0.22100  Biso   1.000  Cu
  O1       1.0000 0.61380  0.41980  0.73000  Biso   1.000  O
  O2       1.0000 0.88620  0.91980  0.77000  Biso   1.000  O
  O3       1.0000 0.38620  0.58020  0.27000  Biso   1.000  O
  O4       1.0000 0.11380  0.08020  0.23000  Biso   1.000  O
  C1       1.0000 0.26580  0.51590  0.54240  Biso   1.000  C
  C2       1.0000 0.23420  0.01590  0.95760  Biso   1.000  C
  C3       1.0000 0.73420  0.48410  0.45760  Biso   1.000  C
  C4       1.0000 0.76580  0.98410  0.04240  Biso   1.000  C
  C5       1.0000 0.18730  0.36200  0.57050  Biso   1.000  C
  C6       1.0000 0.31270  0.86200  0.92950  Biso   1.000  C
  C7       1.0000 0.81270  0.63800  0.42950  Biso   1.000  C
  C8       1.0000 0.68730  0.13800  0.07050  Biso   1.000  C
  C9       1.0000 0.10090  0.22900  0.51210  Biso   1.000  C
  C10      1.0000 0.39910  0.72900  0.98790  Biso   1.000  C
  C11      1.0000 0.89910  0.77100  0.48790  Biso   1.000  C
  C12      1.0000 0.60090  0.27100  0.01210  Biso   1.000  C
  C13      1.0000 0.09800  0.24890  0.43160  Biso   1.000  C
  C14      1.0000 0.40200  0.74890  0.06840  Biso   1.000  C
  C15      1.0000 0.90200  0.75110  0.56840  Biso   1.000  C
  C16      1.0000 0.59800  0.25110  0.93160  Biso   1.000  C
  C17      1.0000 0.17850  0.39910  0.40640  Biso   1.000  C
  C18      1.0000 0.32150  0.89910  0.09360  Biso   1.000  C
  C19      1.0000 0.82150  0.60090  0.59360  Biso   1.000  C
  C20      1.0000 0.67850  0.10090  0.90640  Biso   1.000  C
  C21      1.0000 0.26230  0.53410  0.46040  Biso   1.000  C
  C22      1.0000 0.23770  0.03410  0.03960  Biso   1.000  C
  C23      1.0000 0.73770  0.46590  0.53960  Biso   1.000  C
  C24      1.0000 0.76230  0.96590  0.96040  Biso   1.000  C
  O5       1.0000 0.35250  0.64930  0.59730  Biso   1.000  O
  O6       1.0000 0.14750  0.14930  0.90270  Biso   1.000  O
  O7       1.0000 0.64750  0.35070  0.40270  Biso   1.000  O
  O8       1.0000 0.85250  0.85070  0.09730  Biso   1.000  O
  C25      1.0000 0.41420  0.82520  0.56790  Biso   1.000  C
  C26      1.0000 0.08580  0.32520  0.93210  Biso   1.000  C
  C27      1.0000 0.58580  0.17480  0.43210  Biso   1.000  C
  C28      1.0000 0.91420  0.67480  0.06790  Biso   1.000  C
  C29      1.0000 0.51140  0.94210  0.63990  Biso   1.000  C
  C30      1.0000 0.98860  0.44210  0.86010  Biso   1.000  C
  C31      1.0000 0.48860  0.05790  0.36010  Biso   1.000  C
  C32      1.0000 0.01140  0.55790  0.13990  Biso   1.000  C
  O9       1.0000 0.53990  0.86090  0.70930  Biso   1.000  O
  O10      1.0000 0.96010  0.36090  0.79070  Biso   1.000  O
  O11      1.0000 0.46010  0.13910  0.29070  Biso   1.000  O
  O12      1.0000 0.03990  0.63910  0.20930  Biso   1.000  O
  O13      1.0000 0.55950  0.10540  0.62480  Biso   1.000  O
  O14      1.0000 0.94050  0.60540  0.87520  Biso   1.000  O
  O15      1.0000 0.44050  0.89460  0.37520  Biso   1.000  O
  O16      1.0000 0.05950  0.39460  0.12480  Biso   1.000  O
  C33      1.0000 0.18010  0.32770  0.65550  Biso   1.000  C
  C34      1.0000 0.31990  0.82770  0.84450  Biso   1.000  C
  C35      1.0000 0.81990  0.67230  0.34450  Biso   1.000  C
  C36      1.0000 0.68010  0.17230  0.15550  Biso   1.000  C
  O17      1.0000 0.26140  0.42330  0.71450  Biso   1.000  O
  O18      1.0000 0.23860  0.92330  0.78550  Biso   1.000  O
  O19      1.0000 0.73860  0.57670  0.28550  Biso   1.000  O
  O20      1.0000 0.76140  0.07670  0.21450  Biso   1.000  O
  O21      1.0000 0.08940  0.18590  0.66760  Biso   1.000  O
  O22      1.0000 0.41060  0.68590  0.83240  Biso   1.000  O
  O23      1.0000 0.91060  0.81410  0.33240  Biso   1.000  O
  O24      1.0000 0.58940  0.31410  0.16760  Biso   1.000  O
