data_image0
_cell_length_a       8.181
_cell_length_b       13.147
_cell_length_c       14.314
_cell_angle_alpha    112.54
_cell_angle_beta     99.84
_cell_angle_gamma    101.24

_symmetry_space_group_name_H-M    "P 1"
_symmetry_int_tables_number       1

loop_
  _symmetry_equiv_pos_as_xyz
  'x, y, z'

loop_
  _atom_site_label
  _atom_site_occupancy
  _atom_site_fract_x
  _atom_site_fract_y
  _atom_site_fract_z
  _atom_site_thermal_displace_type
  _atom_site_B_iso_or_equiv
  _atom_site_type_symbol
  Cl1      1.0000 0.38950  0.77220  0.83090  Biso   1.000  Cl
  Cl2      1.0000 0.61050  0.22780  0.16910  Biso   1.000  Cl
  Cl3      1.0000 0.21990  0.37020  0.71450  Biso   1.000  Cl
  Cl4      1.0000 0.78010  0.62980  0.28550  Biso   1.000  Cl
  Cl5      1.0000 0.02910  0.58020  0.79550  Biso   1.000  Cl
  Cl6      1.0000 0.97090  0.41980  0.20450  Biso   1.000  Cl
  Cl7      1.0000 0.58510  0.56610  0.75390  Biso   1.000  Cl
  Cl8      1.0000 0.41490  0.43390  0.24610  Biso   1.000  Cl
  Cl9      1.0000 0.21020  0.54600  0.59750  Biso   1.000  Cl
  Cl10     1.0000 0.78980  0.45400  0.40250  Biso   1.000  Cl
  Cl11     1.0000 0.39590  0.59240  0.94690  Biso   1.000  Cl
  Cl12     1.0000 0.60410  0.40760  0.05310  Biso   1.000  Cl
  Sb1      1.0000 0.30590  0.57110  0.77160  Biso   1.000  Sb
  Sb2      1.0000 0.69410  0.42890  0.22840  Biso   1.000  Sb
  Cu1      1.0000 0.00000  0.00000  0.00000  Biso   1.000  Cu
  C1       1.0000 0.11760  0.22620  0.97440  Biso   1.000  C
  C2       1.0000 0.88240  0.77380  0.02560  Biso   1.000  C
  C3       1.0000 0.21060  0.22810  0.41580  Biso   1.000  C
  C4       1.0000 0.78940  0.77190  0.58420  Biso   1.000  C
  C5       1.0000 0.10110  0.26210  0.34150  Biso   1.000  C
  C6       1.0000 0.89890  0.73790  0.65850  Biso   1.000  C
  C7       1.0000 0.05490  0.17560  0.23250  Biso   1.000  C
  C8       1.0000 0.94510  0.82440  0.76750  Biso   1.000  C
  C9       1.0000 0.14690  0.33420  0.96370  Biso   1.000  C
  C10      1.0000 0.85310  0.66580  0.03630  Biso   1.000  C
  C11      1.0000 0.97240  0.34750  0.91430  Biso   1.000  C
  C12      1.0000 0.02760  0.65250  0.08570  Biso   1.000  C
  C13      1.0000 0.87730  0.25210  0.80490  Biso   1.000  C
  C14      1.0000 0.12270  0.74790  0.19510  Biso   1.000  C
  C15      1.0000 0.73450  0.28300  0.74960  Biso   1.000  C
  C16      1.0000 0.26550  0.71700  0.25040  Biso   1.000  C
  C17      1.0000 0.67270  0.20790  0.63060  Biso   1.000  C
  C18      1.0000 0.32730  0.79210  0.36940  Biso   1.000  C
  C19      1.0000 0.53880  0.24690  0.57510  Biso   1.000  C
  C20      1.0000 0.46120  0.75310  0.42490  Biso   1.000  C
  C21      1.0000 0.49220  0.17960  0.45650  Biso   1.000  C
  C22      1.0000 0.50780  0.82040  0.54350  Biso   1.000  C
  C23      1.0000 0.38670  0.23160  0.39450  Biso   1.000  C
  C24      1.0000 0.61330  0.76840  0.60550  Biso   1.000  C
  C25      1.0000 0.40490  0.02700  0.76680  Biso   1.000  C
  C26      1.0000 0.59510  0.97300  0.23320  Biso   1.000  C
  C27      1.0000 0.46710  0.08740  0.88570  Biso   1.000  C
  C28      1.0000 0.53290  0.91260  0.11430  Biso   1.000  C
  C29      1.0000 0.61530  0.05290  0.92490  Biso   1.000  C
  C30      1.0000 0.38470  0.94710  0.07510  Biso   1.000  C
  C31      1.0000 0.03680  0.03610  0.55850  Biso   1.000  C
  C32      1.0000 0.96320  0.96390  0.44150  Biso   1.000  C
  C33      1.0000 0.18720  0.00140  0.60510  Biso   1.000  C
  C34      1.0000 0.81280  0.99860  0.39490  Biso   1.000  C
  C35      1.0000 0.25540  0.06570  0.72470  Biso   1.000  C
  C36      1.0000 0.74460  0.93430  0.27530  Biso   1.000  C
  H1       1.0000 0.19700  0.39700  0.03100  Biso   1.000  H
  H2       1.0000 0.80300  0.60300  0.96900  Biso   1.000  H
  H3       1.0000 0.62200  0.13200  0.62000  Biso   1.000  H
  H4       1.0000 0.37800  0.86800  0.38000  Biso   1.000  H
  H5       1.0000 0.43600  0.23700  0.59800  Biso   1.000  H
  H6       1.0000 0.56400  0.76300  0.40200  Biso   1.000  H
  H7       1.0000 0.58400  0.32700  0.59300  Biso   1.000  H
  H8       1.0000 0.41600  0.67300  0.40700  Biso   1.000  H
  H9       1.0000 0.59600  0.17700  0.43600  Biso   1.000  H
  H10      1.0000 0.40400  0.82300  0.56400  Biso   1.000  H
  H11      1.0000 0.42500  0.10400  0.43800  Biso   1.000  H
  H12      1.0000 0.57500  0.89600  0.56200  Biso   1.000  H
  H13      1.0000 0.45000  0.30900  0.41400  Biso   1.000  H
  H14      1.0000 0.55000  0.69100  0.58600  Biso   1.000  H
  H15      1.0000 0.37100  0.18800  0.32100  Biso   1.000  H
  H16      1.0000 0.62900  0.81200  0.67900  Biso   1.000  H
  H17      1.0000 0.15400  0.15200  0.40500  Biso   1.000  H
  H18      1.0000 0.84600  0.84800  0.59500  Biso   1.000  H
  H19      1.0000 0.22600  0.28000  0.48700  Biso   1.000  H
  H20      1.0000 0.77400  0.72000  0.51300  Biso   1.000  H
  H21      1.0000 0.99800  0.27000  0.36200  Biso   1.000  H
  H22      1.0000 0.00200  0.73000  0.63800  Biso   1.000  H
  H23      1.0000 0.21200  0.33500  0.92000  Biso   1.000  H
  H24      1.0000 0.78800  0.66500  0.08000  Biso   1.000  H
  H25      1.0000 0.16400  0.33400  0.34700  Biso   1.000  H
  H26      1.0000 0.83600  0.66600  0.65300  Biso   1.000  H
  H27      1.0000 0.07600  0.11400  0.57200  Biso   1.000  H
  H28      1.0000 0.92400  0.88600  0.42800  Biso   1.000  H
  H29      1.0000 0.94700  0.02700  0.59200  Biso   1.000  H
  H30      1.0000 0.05300  0.97300  0.40800  Biso   1.000  H
  H31      1.0000 0.15000  0.92100  0.58600  Biso   1.000  H
  H32      1.0000 0.85000  0.07900  0.41400  Biso   1.000  H
  H33      1.0000 0.27900  0.01500  0.57500  Biso   1.000  H
  H34      1.0000 0.72100  0.98500  0.42500  Biso   1.000  H
  H35      1.0000 0.29400  0.14600  0.74400  Biso   1.000  H
  H36      1.0000 0.70600  0.85400  0.25600  Biso   1.000  H
  H37      1.0000 0.16400  0.05100  0.75500  Biso   1.000  H
  H38      1.0000 0.83600  0.94900  0.24500  Biso   1.000  H
  H39      1.0000 0.36700  0.94700  0.74500  Biso   1.000  H
  H40      1.0000 0.63300  0.05300  0.25500  Biso   1.000  H
  H41      1.0000 0.49800  0.04500  0.73900  Biso   1.000  H
  H42      1.0000 0.50200  0.95500  0.26100  Biso   1.000  H
  H43      1.0000 0.50000  0.16800  0.90800  Biso   1.000  H
  H44      1.0000 0.50000  0.83200  0.09200  Biso   1.000  H
  H45      1.0000 0.89900  0.34900  0.95900  Biso   1.000  H
  H46      1.0000 0.10100  0.65100  0.04100  Biso   1.000  H
  H47      1.0000 0.37500  0.06700  0.91300  Biso   1.000  H
  H48      1.0000 0.62500  0.93300  0.08700  Biso   1.000  H
  H49      1.0000 0.99500  0.41900  0.91000  Biso   1.000  H
  H50      1.0000 0.00500  0.58100  0.09000  Biso   1.000  H
  H51      1.0000 0.95900  0.23800  0.76500  Biso   1.000  H
  H52      1.0000 0.04100  0.76200  0.23500  Biso   1.000  H
  H53      1.0000 0.82800  0.18400  0.81100  Biso   1.000  H
  H54      1.0000 0.17200  0.81600  0.18900  Biso   1.000  H
  H55      1.0000 0.63700  0.27600  0.77600  Biso   1.000  H
  H56      1.0000 0.36300  0.72400  0.22400  Biso   1.000  H
  H57      1.0000 0.77400  0.36100  0.75800  Biso   1.000  H
  H58      1.0000 0.22600  0.63900  0.24200  Biso   1.000  H
  H59      1.0000 0.76900  0.21100  0.60300  Biso   1.000  H
  H60      1.0000 0.23100  0.78900  0.39700  Biso   1.000  H
  N1       1.0000 0.09090  0.13990  0.98010  Biso   1.000  N
  N2       1.0000 0.90910  0.86010  0.01990  Biso   1.000  N
  N3       1.0000 0.02400  0.10600  0.15000  Biso   1.000  N
  N4       1.0000 0.97600  0.89400  0.85000  Biso   1.000  N
  N5       1.0000 0.72910  0.02470  0.95060  Biso   1.000  N
  N6       1.0000 0.27090  0.97530  0.04940  Biso   1.000  N
