data_image0
_cell_length_a       10.3911
_cell_length_b       6.9502
_cell_length_c       22.958
_cell_angle_alpha    90
_cell_angle_beta     100.658
_cell_angle_gamma    90

_symmetry_space_group_name_H-M    "P 1"
_symmetry_int_tables_number       1

loop_
  _symmetry_equiv_pos_as_xyz
  'x, y, z'

loop_
  _atom_site_label
  _atom_site_occupancy
  _atom_site_fract_x
  _atom_site_fract_y
  _atom_site_fract_z
  _atom_site_thermal_displace_type
  _atom_site_B_iso_or_equiv
  _atom_site_type_symbol
  Cu1      1.0000 0.50334  0.38817  0.37533  Biso   1.000  Cu
  Cu2      1.0000 0.49666  0.88817  0.12467  Biso   1.000  Cu
  Cu3      1.0000 0.49666  0.61183  0.62467  Biso   1.000  Cu
  Cu4      1.0000 0.50334  0.11183  0.87533  Biso   1.000  Cu
  Cu5      1.0000 0.39302  0.13531  0.46923  Biso   1.000  Cu
  Cu6      1.0000 0.60698  0.63531  0.03077  Biso   1.000  Cu
  Cu7      1.0000 0.60698  0.86469  0.53077  Biso   1.000  Cu
  Cu8      1.0000 0.39302  0.36469  0.96923  Biso   1.000  Cu
  Mo1      1.0000 0.58031  0.88476  0.38138  Biso   1.000  Mo
  Mo2      1.0000 0.41969  0.38476  0.11862  Biso   1.000  Mo
  Mo3      1.0000 0.41969  0.11524  0.61862  Biso   1.000  Mo
  Mo4      1.0000 0.58031  0.61524  0.88138  Biso   1.000  Mo
  Mo5      1.0000 0.33919  0.63183  0.45790  Biso   1.000  Mo
  Mo6      1.0000 0.66081  0.13183  0.04210  Biso   1.000  Mo
  Mo7      1.0000 0.66081  0.36817  0.54210  Biso   1.000  Mo
  Mo8      1.0000 0.33919  0.86817  0.95790  Biso   1.000  Mo
  O1       1.0000 0.06650  0.46720  0.25940  Biso   1.000  O
  O2       1.0000 0.93350  0.96720  0.24060  Biso   1.000  O
  O3       1.0000 0.93350  0.53280  0.74060  Biso   1.000  O
  O4       1.0000 0.06650  0.03280  0.75940  Biso   1.000  O
  O5       1.0000 0.49350  0.10780  0.38030  Biso   1.000  O
  O6       1.0000 0.50650  0.60780  0.11970  Biso   1.000  O
  O7       1.0000 0.50650  0.89220  0.61970  Biso   1.000  O
  O8       1.0000 0.49350  0.39220  0.88030  Biso   1.000  O
  O9       1.0000 0.65650  0.89000  0.32140  Biso   1.000  O
  O10      1.0000 0.34350  0.39000  0.17860  Biso   1.000  O
  O11      1.0000 0.34350  0.11000  0.67860  Biso   1.000  O
  O12      1.0000 0.65650  0.61000  0.82140  Biso   1.000  O
  O13      1.0000 0.30180  0.12790  0.55560  Biso   1.000  O
  O14      1.0000 0.69820  0.62790  0.94440  Biso   1.000  O
  O15      1.0000 0.69820  0.87210  0.44440  Biso   1.000  O
  O16      1.0000 0.30180  0.37210  0.05560  Biso   1.000  O
  O17      1.0000 0.47950  0.67060  0.37560  Biso   1.000  O
  O18      1.0000 0.52050  0.17060  0.12440  Biso   1.000  O
  O19      1.0000 0.52050  0.32940  0.62440  Biso   1.000  O
  O20      1.0000 0.47950  0.82940  0.87560  Biso   1.000  O
  O21      1.0000 0.42140  0.39910  0.44620  Biso   1.000  O
  O22      1.0000 0.57860  0.89910  0.05380  Biso   1.000  O
  O23      1.0000 0.57860  0.60090  0.55380  Biso   1.000  O
  O24      1.0000 0.42140  0.10090  0.94620  Biso   1.000  O
  O25      1.0000 0.26980  0.58740  0.51870  Biso   1.000  O
  O26      1.0000 0.73020  0.08740  0.98130  Biso   1.000  O
  O27      1.0000 0.73020  0.41260  0.48130  Biso   1.000  O
  O28      1.0000 0.26980  0.91260  0.01870  Biso   1.000  O
  O29      1.0000 0.21330  0.66880  0.40040  Biso   1.000  O
  O30      1.0000 0.78670  0.16880  0.09960  Biso   1.000  O
  O31      1.0000 0.78670  0.33120  0.59960  Biso   1.000  O
  O32      1.0000 0.21330  0.83120  0.90040  Biso   1.000  O
  O33      1.0000 0.43420  0.85700  0.47510  Biso   1.000  O
  O34      1.0000 0.56580  0.35700  0.02490  Biso   1.000  O
  O35      1.0000 0.56580  0.14300  0.52490  Biso   1.000  O
  O36      1.0000 0.43420  0.64300  0.97510  Biso   1.000  O
  O37      1.0000 0.33350  0.37190  0.29740  Biso   1.000  O
  O38      1.0000 0.66650  0.87190  0.20260  Biso   1.000  O
  O39      1.0000 0.66650  0.62810  0.70260  Biso   1.000  O
  O40      1.0000 0.33350  0.12810  0.79740  Biso   1.000  O
  H1       1.0000 0.33000  0.39200  0.26040  Biso   1.000  H
  H2       1.0000 0.67000  0.89200  0.23960  Biso   1.000  H
  H3       1.0000 0.67000  0.60800  0.73960  Biso   1.000  H
  H4       1.0000 0.33000  0.10800  0.76040  Biso   1.000  H
  H5       1.0000 0.25600  0.36700  0.30400  Biso   1.000  H
  H6       1.0000 0.74400  0.86700  0.19600  Biso   1.000  H
  H7       1.0000 0.74400  0.63300  0.69600  Biso   1.000  H
  H8       1.0000 0.25600  0.13300  0.80400  Biso   1.000  H
  N1       1.0000 0.64960  0.39360  0.32940  Biso   1.000  N
  N2       1.0000 0.35040  0.89360  0.17060  Biso   1.000  N
  N3       1.0000 0.35040  0.60640  0.67060  Biso   1.000  N
  N4       1.0000 0.64960  0.10640  0.82940  Biso   1.000  N
  N5       1.0000 0.78900  0.61710  0.07730  Biso   1.000  N
  N6       1.0000 0.21100  0.11710  0.42270  Biso   1.000  N
  N7       1.0000 0.21100  0.38290  0.92270  Biso   1.000  N
  N8       1.0000 0.78900  0.88290  0.57730  Biso   1.000  N
  C1       1.0000 0.63930  0.31800  0.27430  Biso   1.000  C
  C2       1.0000 0.36070  0.81800  0.22570  Biso   1.000  C
  C3       1.0000 0.36070  0.68200  0.72570  Biso   1.000  C
  C4       1.0000 0.63930  0.18200  0.77430  Biso   1.000  C
  H9       1.0000 0.56330  0.24540  0.25860  Biso   1.000  H
  H10      1.0000 0.43670  0.74540  0.24140  Biso   1.000  H
  H11      1.0000 0.43670  0.75460  0.74140  Biso   1.000  H
  H12      1.0000 0.56330  0.25460  0.75860  Biso   1.000  H
  C5       1.0000 0.73310  0.34140  0.24040  Biso   1.000  C
  C6       1.0000 0.26690  0.84140  0.25960  Biso   1.000  C
  C7       1.0000 0.26690  0.65860  0.75960  Biso   1.000  C
  C8       1.0000 0.73310  0.15860  0.74040  Biso   1.000  C
  H13      1.0000 0.72160  0.28890  0.20160  Biso   1.000  H
  H14      1.0000 0.27840  0.78890  0.29840  Biso   1.000  H
  H15      1.0000 0.27840  0.71110  0.79840  Biso   1.000  H
  H16      1.0000 0.72160  0.21110  0.70160  Biso   1.000  H
  C9       1.0000 0.84620  0.44400  0.26380  Biso   1.000  C
  C10      1.0000 0.15380  0.94400  0.23620  Biso   1.000  C
  C11      1.0000 0.15380  0.55600  0.73620  Biso   1.000  C
  C12      1.0000 0.84620  0.05600  0.76380  Biso   1.000  C
  C13      1.0000 0.86200  0.51150  0.32110  Biso   1.000  C
  C14      1.0000 0.13800  0.01150  0.17890  Biso   1.000  C
  C15      1.0000 0.13800  0.48850  0.67890  Biso   1.000  C
  C16      1.0000 0.86200  0.98850  0.82110  Biso   1.000  C
  H17      1.0000 0.94090  0.57370  0.33890  Biso   1.000  H
  H18      1.0000 0.05910  0.07370  0.16110  Biso   1.000  H
  H19      1.0000 0.05910  0.42630  0.66110  Biso   1.000  H
  H20      1.0000 0.94090  0.92630  0.83890  Biso   1.000  H
  C17      1.0000 0.76100  0.48730  0.35230  Biso   1.000  C
  C18      1.0000 0.23900  0.98730  0.14770  Biso   1.000  C
  C19      1.0000 0.23900  0.51270  0.64770  Biso   1.000  C
  C20      1.0000 0.76100  0.01270  0.85230  Biso   1.000  C
  H21      1.0000 0.77070  0.53860  0.39120  Biso   1.000  H
  H22      1.0000 0.22930  0.03860  0.10880  Biso   1.000  H
  H23      1.0000 0.22930  0.46140  0.60880  Biso   1.000  H
  H24      1.0000 0.77070  0.96140  0.89120  Biso   1.000  H
  C21      1.0000 0.95920  0.48060  0.23130  Biso   1.000  C
  C22      1.0000 0.04080  0.98060  0.26870  Biso   1.000  C
  C23      1.0000 0.04080  0.51940  0.76870  Biso   1.000  C
  C24      1.0000 0.95920  0.01940  0.73130  Biso   1.000  C
  C25      1.0000 0.81030  0.56800  0.13470  Biso   1.000  C
  C26      1.0000 0.18970  0.06800  0.36530  Biso   1.000  C
  C27      1.0000 0.18970  0.43200  0.86530  Biso   1.000  C
  C28      1.0000 0.81030  0.93200  0.63470  Biso   1.000  C
  H25      1.0000 0.73730  0.55750  0.15400  Biso   1.000  H
  H26      1.0000 0.26270  0.05750  0.34600  Biso   1.000  H
  H27      1.0000 0.26270  0.44250  0.84600  Biso   1.000  H
  H28      1.0000 0.73730  0.94250  0.65400  Biso   1.000  H
  C29      1.0000 0.93420  0.53200  0.16710  Biso   1.000  C
  C30      1.0000 0.06580  0.03200  0.33290  Biso   1.000  C
  C31      1.0000 0.06580  0.46800  0.83290  Biso   1.000  C
  C32      1.0000 0.93420  0.96800  0.66710  Biso   1.000  C
  C33      1.0000 0.04200  0.54870  0.14010  Biso   1.000  C
  C34      1.0000 0.95800  0.04870  0.35990  Biso   1.000  C
  C35      1.0000 0.95800  0.45130  0.85990  Biso   1.000  C
  C36      1.0000 0.04200  0.95130  0.64010  Biso   1.000  C
  H29      1.0000 0.12770  0.52290  0.16140  Biso   1.000  H
  H30      1.0000 0.87230  0.02290  0.33860  Biso   1.000  H
  H31      1.0000 0.87230  0.47710  0.83860  Biso   1.000  H
  H32      1.0000 0.12770  0.97710  0.66140  Biso   1.000  H
  C37      1.0000 0.02230  0.60310  0.08230  Biso   1.000  C
  C38      1.0000 0.97770  0.10310  0.41770  Biso   1.000  C
  C39      1.0000 0.97770  0.39690  0.91770  Biso   1.000  C
  C40      1.0000 0.02230  0.89690  0.58230  Biso   1.000  C
  H33      1.0000 0.09460  0.61640  0.06270  Biso   1.000  H
  H34      1.0000 0.90540  0.11640  0.43730  Biso   1.000  H
  H35      1.0000 0.90540  0.38360  0.93730  Biso   1.000  H
  H36      1.0000 0.09460  0.88360  0.56270  Biso   1.000  H
  C41      1.0000 0.89530  0.63940  0.05180  Biso   1.000  C
  C42      1.0000 0.10470  0.13940  0.44820  Biso   1.000  C
  C43      1.0000 0.10470  0.36060  0.94820  Biso   1.000  C
  C44      1.0000 0.89530  0.86060  0.55180  Biso   1.000  C
  H37      1.0000 0.88340  0.68130  0.01180  Biso   1.000  H
  H38      1.0000 0.11660  0.18130  0.48820  Biso   1.000  H
  H39      1.0000 0.11660  0.31870  0.98820  Biso   1.000  H
  H40      1.0000 0.88340  0.81870  0.51180  Biso   1.000  H
