data_image0
_cell_length_a       10.2947
_cell_length_b       16.5525
_cell_length_c       14.12
_cell_angle_alpha    90
_cell_angle_beta     110.897
_cell_angle_gamma    90

_symmetry_space_group_name_H-M    "P 1"
_symmetry_int_tables_number       1

loop_
  _symmetry_equiv_pos_as_xyz
  'x, y, z'

loop_
  _atom_site_label
  _atom_site_occupancy
  _atom_site_fract_x
  _atom_site_fract_y
  _atom_site_fract_z
  _atom_site_thermal_displace_type
  _atom_site_B_iso_or_equiv
  _atom_site_type_symbol
  Cu1      1.0000 0.41079  0.27403  0.39325  Biso   1.000  Cu
  Cu2      1.0000 0.08921  0.77403  0.10675  Biso   1.000  Cu
  Cu3      1.0000 0.58921  0.72597  0.60675  Biso   1.000  Cu
  Cu4      1.0000 0.91079  0.22597  0.89325  Biso   1.000  Cu
  N1       1.0000 0.26358  0.29942  0.45813  Biso   1.000  N
  N2       1.0000 0.23642  0.79942  0.04187  Biso   1.000  N
  N3       1.0000 0.73642  0.70058  0.54187  Biso   1.000  N
  N4       1.0000 0.76358  0.20058  0.95813  Biso   1.000  N
  N5       1.0000 0.29232  0.15963  0.48112  Biso   1.000  N
  N6       1.0000 0.20768  0.65963  0.01888  Biso   1.000  N
  N7       1.0000 0.70768  0.84037  0.51888  Biso   1.000  N
  N8       1.0000 0.79232  0.34037  0.98112  Biso   1.000  N
  N9       1.0000 0.37462  0.16249  0.42342  Biso   1.000  N
  N10      1.0000 0.12538  0.66249  0.07658  Biso   1.000  N
  N11      1.0000 0.62538  0.83751  0.57658  Biso   1.000  N
  N12      1.0000 0.87462  0.33751  0.92342  Biso   1.000  N
  N13      1.0000 0.33913  0.42795  0.43424  Biso   1.000  N
  N14      1.0000 0.16087  0.92795  0.06576  Biso   1.000  N
  N15      1.0000 0.66087  0.57205  0.56576  Biso   1.000  N
  N16      1.0000 0.83913  0.07205  0.93424  Biso   1.000  N
  N17      1.0000 0.40941  0.39275  0.37922  Biso   1.000  N
  N18      1.0000 0.09059  0.89275  0.12078  Biso   1.000  N
  N19      1.0000 0.59059  0.60725  0.62078  Biso   1.000  N
  N20      1.0000 0.90941  0.10725  0.87922  Biso   1.000  N
  C1       1.0000 0.27730  0.23352  0.53158  Biso   1.000  C
  C2       1.0000 0.22270  0.73352  0.96842  Biso   1.000  C
  C3       1.0000 0.72270  0.76648  0.46842  Biso   1.000  C
  C4       1.0000 0.77730  0.26648  0.03158  Biso   1.000  C
  H1       1.0000 0.35980  0.24230  0.59370  Biso   1.000  H
  H2       1.0000 0.14020  0.74230  0.90630  Biso   1.000  H
  H3       1.0000 0.64020  0.75770  0.40630  Biso   1.000  H
  H4       1.0000 0.85980  0.25770  0.09370  Biso   1.000  H
  H5       1.0000 0.19370  0.23080  0.55060  Biso   1.000  H
  H6       1.0000 0.30630  0.73080  0.94940  Biso   1.000  H
  H7       1.0000 0.80630  0.76920  0.44940  Biso   1.000  H
  H8       1.0000 0.69370  0.26920  0.05060  Biso   1.000  H
  C5       1.0000 0.25530  0.08330  0.49253  Biso   1.000  C
  C6       1.0000 0.24470  0.58330  0.00747  Biso   1.000  C
  C7       1.0000 0.74470  0.91670  0.50747  Biso   1.000  C
  C8       1.0000 0.75530  0.41670  0.99253  Biso   1.000  C
  C9       1.0000 0.31400  0.03514  0.43945  Biso   1.000  C
  C10      1.0000 0.18600  0.53514  0.06055  Biso   1.000  C
  C11      1.0000 0.68600  0.96486  0.56055  Biso   1.000  C
  C12      1.0000 0.81400  0.46486  0.93945  Biso   1.000  C
  H9       1.0000 0.30670  0.97800  0.43290  Biso   1.000  H
  H10      1.0000 0.19330  0.47800  0.06710  Biso   1.000  H
  H11      1.0000 0.69330  0.02200  0.56710  Biso   1.000  H
  H12      1.0000 0.80670  0.52200  0.93290  Biso   1.000  H
  C13      1.0000 0.38660  0.08604  0.39685  Biso   1.000  C
  C14      1.0000 0.11340  0.58604  0.10315  Biso   1.000  C
  C15      1.0000 0.61340  0.91396  0.60315  Biso   1.000  C
  C16      1.0000 0.88660  0.41396  0.89685  Biso   1.000  C
  C17      1.0000 0.16580  0.06365  0.55240  Biso   1.000  C
  C18      1.0000 0.33420  0.56365  0.94760  Biso   1.000  C
  C19      1.0000 0.83420  0.93635  0.44760  Biso   1.000  C
  C20      1.0000 0.66580  0.43635  0.05240  Biso   1.000  C
  H13      1.0000 0.21170  0.08180  0.62250  Biso   1.000  H
  H14      1.0000 0.28830  0.58180  0.87750  Biso   1.000  H
  H15      1.0000 0.78830  0.91820  0.37750  Biso   1.000  H
  H16      1.0000 0.71170  0.41820  0.12250  Biso   1.000  H
  H17      1.0000 0.15090  0.00510  0.55150  Biso   1.000  H
  H18      1.0000 0.34910  0.50510  0.94850  Biso   1.000  H
  H19      1.0000 0.84910  0.99490  0.44850  Biso   1.000  H
  H20      1.0000 0.65090  0.49490  0.05150  Biso   1.000  H
  H21      1.0000 0.07600  0.09110  0.52250  Biso   1.000  H
  H22      1.0000 0.42400  0.59110  0.97750  Biso   1.000  H
  H23      1.0000 0.92400  0.90890  0.47750  Biso   1.000  H
  H24      1.0000 0.57600  0.40890  0.02250  Biso   1.000  H
  C21      1.0000 0.46760  0.06437  0.33158  Biso   1.000  C
  C22      1.0000 0.03240  0.56437  0.16842  Biso   1.000  C
  C23      1.0000 0.53240  0.93563  0.66842  Biso   1.000  C
  C24      1.0000 0.96760  0.43563  0.83158  Biso   1.000  C
  H25      1.0000 0.43910  0.09920  0.27150  Biso   1.000  H
  H26      1.0000 0.06090  0.59920  0.22850  Biso   1.000  H
  H27      1.0000 0.56090  0.90080  0.72850  Biso   1.000  H
  H28      1.0000 0.93910  0.40080  0.77150  Biso   1.000  H
  H29      1.0000 0.45000  0.00780  0.31050  Biso   1.000  H
  H30      1.0000 0.05000  0.50780  0.18950  Biso   1.000  H
  H31      1.0000 0.55000  0.99220  0.68950  Biso   1.000  H
  H32      1.0000 0.95000  0.49220  0.81050  Biso   1.000  H
  H33      1.0000 0.56700  0.07190  0.36980  Biso   1.000  H
  H34      1.0000 0.93300  0.57190  0.13020  Biso   1.000  H
  H35      1.0000 0.43300  0.92810  0.63020  Biso   1.000  H
  H36      1.0000 0.06700  0.42810  0.86980  Biso   1.000  H
  C25      1.0000 0.30980  0.37798  0.50825  Biso   1.000  C
  C26      1.0000 0.19020  0.87798  0.99175  Biso   1.000  C
  C27      1.0000 0.69020  0.62202  0.49175  Biso   1.000  C
  C28      1.0000 0.80980  0.12202  0.00825  Biso   1.000  C
  H37      1.0000 0.23600  0.40260  0.52840  Biso   1.000  H
  H38      1.0000 0.26400  0.90260  0.97160  Biso   1.000  H
  H39      1.0000 0.76400  0.59740  0.47160  Biso   1.000  H
  H40      1.0000 0.73600  0.09740  0.02840  Biso   1.000  H
  H41      1.0000 0.39430  0.37120  0.56950  Biso   1.000  H
  H42      1.0000 0.10570  0.87120  0.93050  Biso   1.000  H
  H43      1.0000 0.60570  0.62880  0.43050  Biso   1.000  H
  H44      1.0000 0.89430  0.12880  0.06950  Biso   1.000  H
  C29      1.0000 0.31390  0.50674  0.41063  Biso   1.000  C
  C30      1.0000 0.18610  0.00674  0.08937  Biso   1.000  C
  C31      1.0000 0.68610  0.49326  0.58937  Biso   1.000  C
  C32      1.0000 0.81390  0.99326  0.91063  Biso   1.000  C
  C33      1.0000 0.37000  0.52287  0.33721  Biso   1.000  C
  C34      1.0000 0.13000  0.02287  0.16279  Biso   1.000  C
  C35      1.0000 0.63000  0.47713  0.66279  Biso   1.000  C
  C36      1.0000 0.87000  0.97713  0.83721  Biso   1.000  C
  H45      1.0000 0.37020  0.57340  0.30540  Biso   1.000  H
  H46      1.0000 0.12980  0.07340  0.19460  Biso   1.000  H
  H47      1.0000 0.62980  0.42660  0.69460  Biso   1.000  H
  H48      1.0000 0.87020  0.92660  0.80540  Biso   1.000  H
  C37      1.0000 0.42666  0.45039  0.31868  Biso   1.000  C
  C38      1.0000 0.07334  0.95039  0.18132  Biso   1.000  C
  C39      1.0000 0.57334  0.54961  0.68132  Biso   1.000  C
  C40      1.0000 0.92666  0.04961  0.81868  Biso   1.000  C
  C41      1.0000 0.23530  0.55843  0.45831  Biso   1.000  C
  C42      1.0000 0.26470  0.05843  0.04169  Biso   1.000  C
  C43      1.0000 0.76470  0.44157  0.54169  Biso   1.000  C
  C44      1.0000 0.73530  0.94157  0.95831  Biso   1.000  C
  H49      1.0000 0.13990  0.53820  0.43950  Biso   1.000  H
  H50      1.0000 0.36010  0.03820  0.06050  Biso   1.000  H
  H51      1.0000 0.86010  0.46180  0.56050  Biso   1.000  H
  H52      1.0000 0.63990  0.96180  0.93950  Biso   1.000  H
  H53      1.0000 0.23330  0.61420  0.43460  Biso   1.000  H
  H54      1.0000 0.26670  0.11420  0.06540  Biso   1.000  H
  H55      1.0000 0.76670  0.38580  0.56540  Biso   1.000  H
  H56      1.0000 0.73330  0.88580  0.93460  Biso   1.000  H
  H57      1.0000 0.28090  0.55680  0.53220  Biso   1.000  H
  H58      1.0000 0.21910  0.05680  0.96780  Biso   1.000  H
  H59      1.0000 0.71910  0.44320  0.46780  Biso   1.000  H
  H60      1.0000 0.78090  0.94320  0.03220  Biso   1.000  H
  C45      1.0000 0.49560  0.43428  0.24403  Biso   1.000  C
  C46      1.0000 0.00440  0.93428  0.25597  Biso   1.000  C
  C47      1.0000 0.50440  0.56572  0.75597  Biso   1.000  C
  C48      1.0000 0.99560  0.06572  0.74403  Biso   1.000  C
  H61      1.0000 0.59520  0.42550  0.28010  Biso   1.000  H
  H62      1.0000 0.90480  0.92550  0.21990  Biso   1.000  H
  H63      1.0000 0.40480  0.57450  0.71990  Biso   1.000  H
  H64      1.0000 0.09520  0.07450  0.78010  Biso   1.000  H
  H65      1.0000 0.48220  0.48070  0.19850  Biso   1.000  H
  H66      1.0000 0.01780  0.98070  0.30150  Biso   1.000  H
  H67      1.0000 0.51780  0.51930  0.80150  Biso   1.000  H
  H68      1.0000 0.98220  0.01930  0.69850  Biso   1.000  H
  H69      1.0000 0.45460  0.38600  0.20440  Biso   1.000  H
  H70      1.0000 0.04540  0.88600  0.29560  Biso   1.000  H
  H71      1.0000 0.54540  0.61400  0.79560  Biso   1.000  H
  H72      1.0000 0.95460  0.11400  0.70440  Biso   1.000  H
  C49      1.0000 0.12141  0.30391  0.37846  Biso   1.000  C
  C50      1.0000 0.37859  0.80391  0.12154  Biso   1.000  C
  C51      1.0000 0.87859  0.69609  0.62154  Biso   1.000  C
  C52      1.0000 0.62141  0.19609  0.87846  Biso   1.000  C
  H73      1.0000 0.10330  0.25290  0.33930  Biso   1.000  H
  H74      1.0000 0.39670  0.75290  0.16070  Biso   1.000  H
  H75      1.0000 0.89670  0.74710  0.66070  Biso   1.000  H
  H76      1.0000 0.60330  0.24710  0.83930  Biso   1.000  H
  H77      1.0000 0.12040  0.34820  0.33110  Biso   1.000  H
  H78      1.0000 0.37960  0.84820  0.16890  Biso   1.000  H
  H79      1.0000 0.87960  0.65180  0.66890  Biso   1.000  H
  H80      1.0000 0.62040  0.15180  0.83110  Biso   1.000  H
  C53      1.0000 0.00320  0.31788  0.41768  Biso   1.000  C
  C54      1.0000 0.49680  0.81788  0.08232  Biso   1.000  C
  C55      1.0000 0.99680  0.68212  0.58232  Biso   1.000  C
  C56      1.0000 0.50320  0.18212  0.91768  Biso   1.000  C
  H81      1.0000 0.03440  0.35460  0.47690  Biso   1.000  H
  H82      1.0000 0.46560  0.85460  0.02310  Biso   1.000  H
  H83      1.0000 0.96560  0.64540  0.52310  Biso   1.000  H
  H84      1.0000 0.53440  0.14540  0.97690  Biso   1.000  H
  H85      1.0000 0.97550  0.26590  0.43960  Biso   1.000  H
  H86      1.0000 0.52450  0.76590  0.06040  Biso   1.000  H
  H87      1.0000 0.02450  0.73410  0.56040  Biso   1.000  H
  H88      1.0000 0.47550  0.23410  0.93960  Biso   1.000  H
  C57      1.0000 0.87950  0.35497  0.33370  Biso   1.000  C
  C58      1.0000 0.62050  0.85497  0.16630  Biso   1.000  C
  C59      1.0000 0.12050  0.64503  0.66630  Biso   1.000  C
  C60      1.0000 0.37950  0.14503  0.83370  Biso   1.000  C
  H89      1.0000 0.90460  0.40880  0.31720  Biso   1.000  H
  H90      1.0000 0.59540  0.90880  0.18280  Biso   1.000  H
  H91      1.0000 0.09540  0.59120  0.68280  Biso   1.000  H
  H92      1.0000 0.40460  0.09120  0.81720  Biso   1.000  H
  H93      1.0000 0.80050  0.35930  0.35680  Biso   1.000  H
  H94      1.0000 0.69950  0.85930  0.14320  Biso   1.000  H
  H95      1.0000 0.19950  0.64070  0.64320  Biso   1.000  H
  H96      1.0000 0.30050  0.14070  0.85680  Biso   1.000  H
  H97      1.0000 0.85380  0.32060  0.27340  Biso   1.000  H
  H98      1.0000 0.64620  0.82060  0.22660  Biso   1.000  H
  H99      1.0000 0.14620  0.67940  0.72660  Biso   1.000  H
  H100     1.0000 0.35380  0.17940  0.77340  Biso   1.000  H
  O1       1.0000 0.58324  0.25594  0.36455  Biso   1.000  O
  O2       1.0000 0.91676  0.75594  0.13545  Biso   1.000  O
  O3       1.0000 0.41676  0.74406  0.63545  Biso   1.000  O
  O4       1.0000 0.08324  0.24406  0.86455  Biso   1.000  O
  H101     1.0000 0.58800  0.23610  0.31110  Biso   1.000  H
  H102     1.0000 0.91200  0.73610  0.18890  Biso   1.000  H
  H103     1.0000 0.41200  0.76390  0.68890  Biso   1.000  H
  H104     1.0000 0.08800  0.26390  0.81110  Biso   1.000  H
  H105     1.0000 0.65130  0.23430  0.40960  Biso   1.000  H
  H106     1.0000 0.84870  0.73430  0.09040  Biso   1.000  H
  H107     1.0000 0.34870  0.76570  0.59040  Biso   1.000  H
  H108     1.0000 0.15130  0.26570  0.90960  Biso   1.000  H
  Cl1      1.0000 0.19012  0.28199  0.12522  Biso   1.000  Cl
  Cl2      1.0000 0.30988  0.78199  0.37478  Biso   1.000  Cl
  Cl3      1.0000 0.80988  0.71801  0.87478  Biso   1.000  Cl
  Cl4      1.0000 0.69012  0.21801  0.62522  Biso   1.000  Cl
  O5       1.0000 0.29566  0.24859  0.21404  Biso   1.000  O
  O6       1.0000 0.20434  0.74859  0.28596  Biso   1.000  O
  O7       1.0000 0.70434  0.75141  0.78596  Biso   1.000  O
  O8       1.0000 0.79566  0.25141  0.71404  Biso   1.000  O
  O9       1.0000 0.09005  0.21930  0.07866  Biso   1.000  O
  O10      1.0000 0.40995  0.71930  0.42134  Biso   1.000  O
  O11      1.0000 0.90995  0.78070  0.92134  Biso   1.000  O
  O12      1.0000 0.59005  0.28070  0.57866  Biso   1.000  O
  O13      1.0000 0.25271  0.30827  0.05454  Biso   1.000  O
  O14      1.0000 0.24729  0.80827  0.44546  Biso   1.000  O
  O15      1.0000 0.74729  0.69173  0.94546  Biso   1.000  O
  O16      1.0000 0.75271  0.19173  0.55454  Biso   1.000  O
  O17      1.0000 0.12300  0.34839  0.15316  Biso   1.000  O
  O18      1.0000 0.37700  0.84839  0.34684  Biso   1.000  O
  O19      1.0000 0.87700  0.65161  0.84684  Biso   1.000  O
  O20      1.0000 0.62300  0.15161  0.65316  Biso   1.000  O
  Cl5      1.0000 0.76891  0.13412  0.25492  Biso   1.000  Cl
  Cl6      1.0000 0.73109  0.63412  0.24508  Biso   1.000  Cl
  Cl7      1.0000 0.23109  0.86588  0.74508  Biso   1.000  Cl
  Cl8      1.0000 0.26891  0.36588  0.75492  Biso   1.000  Cl
  O21      1.0000 0.66204  0.19392  0.20814  Biso   1.000  O
  O22      1.0000 0.83796  0.69392  0.29186  Biso   1.000  O
  O23      1.0000 0.33796  0.80608  0.79186  Biso   1.000  O
  O24      1.0000 0.16204  0.30608  0.70814  Biso   1.000  O
  O25      1.0000 0.89378  0.15641  0.23817  Biso   1.000  O
  O26      1.0000 0.60622  0.65641  0.26183  Biso   1.000  O
  O27      1.0000 0.10622  0.84359  0.76183  Biso   1.000  O
  O28      1.0000 0.39378  0.34359  0.73817  Biso   1.000  O
  O29      1.0000 0.79505  0.13198  0.36158  Biso   1.000  O
  O30      1.0000 0.70495  0.63198  0.13842  Biso   1.000  O
  O31      1.0000 0.20495  0.86802  0.63842  Biso   1.000  O
  O32      1.0000 0.29505  0.36802  0.86158  Biso   1.000  O
  O33      1.0000 0.72140  0.05719  0.20985  Biso   1.000  O
  O34      1.0000 0.77860  0.55719  0.29015  Biso   1.000  O
  O35      1.0000 0.27860  0.94281  0.79015  Biso   1.000  O
  O36      1.0000 0.22140  0.44281  0.70985  Biso   1.000  O
