data_image0
_cell_length_a       6.5384
_cell_length_b       8.3059
_cell_length_c       10.962
_cell_angle_alpha    110.646
_cell_angle_beta     94.732
_cell_angle_gamma    106.16

_symmetry_space_group_name_H-M    "P 1"
_symmetry_int_tables_number       1

loop_
  _symmetry_equiv_pos_as_xyz
  'x, y, z'

loop_
  _atom_site_label
  _atom_site_occupancy
  _atom_site_fract_x
  _atom_site_fract_y
  _atom_site_fract_z
  _atom_site_thermal_displace_type
  _atom_site_B_iso_or_equiv
  _atom_site_type_symbol
  Mn1      1.0000 0.38860  0.35521  0.35748  Biso   1.000  Mn
  Mn2      1.0000 0.61140  0.64479  0.64252  Biso   1.000  Mn
  Cu1      1.0000 0.50000  0.00000  0.00000  Biso   1.000  Cu
  Cl1      1.0000 0.18531  0.13925  0.14327  Biso   1.000  Cl
  Cl2      1.0000 0.81469  0.86075  0.85673  Biso   1.000  Cl
  N1       1.0000 0.37080  0.05625  0.85263  Biso   1.000  N
  N2       1.0000 0.62920  0.94375  0.14737  Biso   1.000  N
  H1       1.0000 0.39460  0.98680  0.77230  Biso   1.000  H
  H2       1.0000 0.60540  0.01320  0.22770  Biso   1.000  H
  H3       1.0000 0.22330  0.03050  0.84720  Biso   1.000  H
  H4       1.0000 0.77670  0.96950  0.15280  Biso   1.000  H
  N3       1.0000 0.73000  0.24552  0.05599  Biso   1.000  N
  N4       1.0000 0.27000  0.75448  0.94401  Biso   1.000  N
  H5       1.0000 0.70620  0.32850  0.13020  Biso   1.000  H
  H6       1.0000 0.29380  0.67150  0.86980  Biso   1.000  H
  H7       1.0000 0.86550  0.23770  0.07580  Biso   1.000  H
  H8       1.0000 0.13450  0.76230  0.92420  Biso   1.000  H
  O1       1.0000 0.58130  0.20592  0.40293  Biso   1.000  O
  O2       1.0000 0.41870  0.79408  0.59707  Biso   1.000  O
  O3       1.0000 0.19510  0.29090  0.48969  Biso   1.000  O
  O4       1.0000 0.80490  0.70910  0.51031  Biso   1.000  O
  O5       1.0000 0.71520  0.41713  0.60916  Biso   1.000  O
  O6       1.0000 0.28480  0.58287  0.39084  Biso   1.000  O
  O7       1.0000 0.33547  0.49740  0.69719  Biso   1.000  O
  O8       1.0000 0.66453  0.50260  0.30281  Biso   1.000  O
  C1       1.0000 0.47710  0.25230  0.88381  Biso   1.000  C
  C2       1.0000 0.52290  0.74770  0.11619  Biso   1.000  C
  H9       1.0000 0.40770  0.32600  0.94810  Biso   1.000  H
  H10      1.0000 0.59230  0.67400  0.05190  Biso   1.000  H
  H11      1.0000 0.46260  0.27640  0.80190  Biso   1.000  H
  H12      1.0000 0.53740  0.72360  0.19810  Biso   1.000  H
  C3       1.0000 0.71580  0.30250  0.94315  Biso   1.000  C
  C4       1.0000 0.28420  0.69750  0.05685  Biso   1.000  C
  H13      1.0000 0.78920  0.24030  0.87500  Biso   1.000  H
  H14      1.0000 0.21080  0.75970  0.12500  Biso   1.000  H
  H15      1.0000 0.78840  0.43570  0.97430  Biso   1.000  H
  H16      1.0000 0.21160  0.56430  0.02570  Biso   1.000  H
  C5       1.0000 0.19290  0.35540  0.61111  Biso   1.000  C
  C6       1.0000 0.80710  0.64460  0.38889  Biso   1.000  C
  C7       1.0000 0.69350  0.26630  0.51911  Biso   1.000  C
  C8       1.0000 0.30650  0.73370  0.48089  Biso   1.000  C
  C9       1.0000 0.80290  0.14530  0.55449  Biso   1.000  C
  C10      1.0000 0.19710  0.85470  0.44551  Biso   1.000  C
  H17      1.0000 0.83850  0.06670  0.47330  Biso   1.000  H
  H18      1.0000 0.16150  0.93330  0.52670  Biso   1.000  H
  H19      1.0000 0.70020  0.06500  0.58700  Biso   1.000  H
  H20      1.0000 0.29980  0.93500  0.41300  Biso   1.000  H
  C11      1.0000 0.00950  0.25360  0.66025  Biso   1.000  C
  C12      1.0000 0.99050  0.74640  0.33975  Biso   1.000  C
  H21      1.0000 0.97690  0.34240  0.73730  Biso   1.000  H
  H22      1.0000 0.02310  0.65760  0.26270  Biso   1.000  H
  H23      1.0000 0.05830  0.16950  0.69130  Biso   1.000  H
  H24      1.0000 0.94170  0.83050  0.30870  Biso   1.000  H
