data_image0
_cell_length_a       9.7098
_cell_length_b       17.8062
_cell_length_c       8.6065
_cell_angle_alpha    90
_cell_angle_beta     110.002
_cell_angle_gamma    90

_symmetry_space_group_name_H-M    "P 1"
_symmetry_int_tables_number       1

loop_
  _symmetry_equiv_pos_as_xyz
  'x, y, z'

loop_
  _atom_site_label
  _atom_site_occupancy
  _atom_site_fract_x
  _atom_site_fract_y
  _atom_site_fract_z
  _atom_site_thermal_displace_type
  _atom_site_B_iso_or_equiv
  _atom_site_type_symbol
  Cu1      1.0000 0.34688  0.16768  0.12267  Biso   1.000  Cu
  Cu2      1.0000 0.65312  0.66768  0.37733  Biso   1.000  Cu
  Cu3      1.0000 0.65312  0.83232  0.87733  Biso   1.000  Cu
  Cu4      1.0000 0.34688  0.33232  0.62267  Biso   1.000  Cu
  Cl1      1.0000 0.78903  0.08690  0.08336  Biso   1.000  Cl
  Cl2      1.0000 0.21097  0.58690  0.41664  Biso   1.000  Cl
  Cl3      1.0000 0.21097  0.91310  0.91664  Biso   1.000  Cl
  Cl4      1.0000 0.78903  0.41310  0.58336  Biso   1.000  Cl
  O1       1.0000 0.21330  0.26312  0.16160  Biso   1.000  O
  O2       1.0000 0.78670  0.76312  0.33840  Biso   1.000  O
  O3       1.0000 0.78670  0.73688  0.83840  Biso   1.000  O
  O4       1.0000 0.21330  0.23688  0.66160  Biso   1.000  O
  O5       1.0000 0.35860  0.29476  0.41390  Biso   1.000  O
  O6       1.0000 0.64140  0.79476  0.08610  Biso   1.000  O
  O7       1.0000 0.64140  0.70524  0.58610  Biso   1.000  O
  O8       1.0000 0.35860  0.20524  0.91390  Biso   1.000  O
  O9       1.0000 0.67840  0.03980  0.08560  Biso   1.000  O
  O10      1.0000 0.32160  0.53980  0.41440  Biso   1.000  O
  O11      1.0000 0.32160  0.96020  0.91440  Biso   1.000  O
  O12      1.0000 0.67840  0.46020  0.58560  Biso   1.000  O
  O13      1.0000 0.89060  0.09080  0.23820  Biso   1.000  O
  O14      1.0000 0.10940  0.59080  0.26180  Biso   1.000  O
  O15      1.0000 0.10940  0.90920  0.76180  Biso   1.000  O
  O16      1.0000 0.89060  0.40920  0.73820  Biso   1.000  O
  O17      1.0000 0.84800  0.05590  0.96900  Biso   1.000  O
  O18      1.0000 0.15200  0.55590  0.53100  Biso   1.000  O
  O19      1.0000 0.15200  0.94410  0.03100  Biso   1.000  O
  O20      1.0000 0.84800  0.44410  0.46900  Biso   1.000  O
  O21      1.0000 0.72840  0.15810  0.02830  Biso   1.000  O
  O22      1.0000 0.27160  0.65810  0.47170  Biso   1.000  O
  O23      1.0000 0.27160  0.84190  0.97170  Biso   1.000  O
  O24      1.0000 0.72840  0.34190  0.52830  Biso   1.000  O
  N1       1.0000 0.16170  0.38000  0.47810  Biso   1.000  N
  N2       1.0000 0.83830  0.88000  0.02190  Biso   1.000  N
  N3       1.0000 0.83830  0.62000  0.52190  Biso   1.000  N
  N4       1.0000 0.16170  0.12000  0.97810  Biso   1.000  N
  H1       1.0000 0.09250  0.37730  0.52570  Biso   1.000  H
  H2       1.0000 0.90750  0.87730  0.97430  Biso   1.000  H
  H3       1.0000 0.90750  0.62270  0.47430  Biso   1.000  H
  H4       1.0000 0.09250  0.12270  0.02570  Biso   1.000  H
  H5       1.0000 0.17710  0.42860  0.46090  Biso   1.000  H
  H6       1.0000 0.82290  0.92860  0.03910  Biso   1.000  H
  H7       1.0000 0.82290  0.57140  0.53910  Biso   1.000  H
  H8       1.0000 0.17710  0.07140  0.96090  Biso   1.000  H
  N5       1.0000 0.54440  0.20850  0.25110  Biso   1.000  N
  N6       1.0000 0.45560  0.70850  0.24890  Biso   1.000  N
  N7       1.0000 0.45560  0.79150  0.74890  Biso   1.000  N
  N8       1.0000 0.54440  0.29150  0.75110  Biso   1.000  N
  H9       1.0000 0.60110  0.20800  0.18740  Biso   1.000  H
  H10      1.0000 0.39890  0.70800  0.31260  Biso   1.000  H
  H11      1.0000 0.39890  0.79200  0.81260  Biso   1.000  H
  H12      1.0000 0.60110  0.29200  0.68740  Biso   1.000  H
  H13      1.0000 0.53540  0.25640  0.27920  Biso   1.000  H
  H14      1.0000 0.46460  0.75640  0.22080  Biso   1.000  H
  H15      1.0000 0.46460  0.74360  0.72080  Biso   1.000  H
  H16      1.0000 0.53540  0.24360  0.77920  Biso   1.000  H
  N9       1.0000 0.36990  0.11507  0.33680  Biso   1.000  N
  N10      1.0000 0.63010  0.61507  0.16320  Biso   1.000  N
  N11      1.0000 0.63010  0.88493  0.66320  Biso   1.000  N
  N12      1.0000 0.36990  0.38493  0.83680  Biso   1.000  N
  C1       1.0000 0.23610  0.29550  0.29450  Biso   1.000  C
  C2       1.0000 0.76390  0.79550  0.20550  Biso   1.000  C
  C3       1.0000 0.76390  0.70450  0.70550  Biso   1.000  C
  C4       1.0000 0.23610  0.20450  0.79450  Biso   1.000  C
  C5       1.0000 0.11480  0.33880  0.32150  Biso   1.000  C
  C6       1.0000 0.88520  0.83880  0.17850  Biso   1.000  C
  C7       1.0000 0.88520  0.66120  0.67850  Biso   1.000  C
  C8       1.0000 0.11480  0.16120  0.82150  Biso   1.000  C
  C9       1.0000 0.99370  0.36910  0.17640  Biso   1.000  C
  C10      1.0000 0.00630  0.86910  0.32360  Biso   1.000  C
  C11      1.0000 0.00630  0.63090  0.82360  Biso   1.000  C
  C12      1.0000 0.99370  0.13090  0.67640  Biso   1.000  C
  H17      1.0000 0.94940  0.41620  0.19030  Biso   1.000  H
  H18      1.0000 0.05060  0.91620  0.30970  Biso   1.000  H
  H19      1.0000 0.05060  0.58380  0.80970  Biso   1.000  H
  H20      1.0000 0.94940  0.08380  0.69030  Biso   1.000  H
  H21      1.0000 0.00020  0.36140  0.06750  Biso   1.000  H
  H22      1.0000 0.99980  0.86140  0.43250  Biso   1.000  H
  H23      1.0000 0.99980  0.63860  0.93250  Biso   1.000  H
  H24      1.0000 0.00020  0.13860  0.56750  Biso   1.000  H
  C13      1.0000 0.96630  0.30290  0.26390  Biso   1.000  C
  C14      1.0000 0.03370  0.80290  0.23610  Biso   1.000  C
  C15      1.0000 0.03370  0.69710  0.73610  Biso   1.000  C
  C16      1.0000 0.96630  0.19710  0.76390  Biso   1.000  C
  H25      1.0000 0.95620  0.25470  0.20880  Biso   1.000  H
  H26      1.0000 0.04380  0.75470  0.29120  Biso   1.000  H
  H27      1.0000 0.04380  0.74530  0.79120  Biso   1.000  H
  H28      1.0000 0.95620  0.24530  0.70880  Biso   1.000  H
  H29      1.0000 0.90530  0.30960  0.33160  Biso   1.000  H
  H30      1.0000 0.09470  0.80960  0.16840  Biso   1.000  H
  H31      1.0000 0.09470  0.69040  0.66840  Biso   1.000  H
  H32      1.0000 0.90530  0.19040  0.83160  Biso   1.000  H
  C17      1.0000 0.26610  0.07870  0.37720  Biso   1.000  C
  C18      1.0000 0.73390  0.57870  0.12280  Biso   1.000  C
  C19      1.0000 0.73390  0.92130  0.62280  Biso   1.000  C
  C20      1.0000 0.26610  0.42130  0.87720  Biso   1.000  C
  H33      1.0000 0.17470  0.07180  0.29630  Biso   1.000  H
  H34      1.0000 0.82530  0.57180  0.20370  Biso   1.000  H
  H35      1.0000 0.82530  0.92820  0.70370  Biso   1.000  H
  H36      1.0000 0.17470  0.42820  0.79630  Biso   1.000  H
  C21      1.0000 0.28900  0.05120  0.53280  Biso   1.000  C
  C22      1.0000 0.71100  0.55120  0.96720  Biso   1.000  C
  C23      1.0000 0.71100  0.94880  0.46720  Biso   1.000  C
  C24      1.0000 0.28900  0.44880  0.03280  Biso   1.000  C
  H37      1.0000 0.21450  0.02650  0.55710  Biso   1.000  H
  H38      1.0000 0.78550  0.52650  0.94290  Biso   1.000  H
  H39      1.0000 0.78550  0.97350  0.44290  Biso   1.000  H
  H40      1.0000 0.21450  0.47350  0.05710  Biso   1.000  H
  C25      1.0000 0.42370  0.06100  0.65160  Biso   1.000  C
  C26      1.0000 0.57630  0.56100  0.84840  Biso   1.000  C
  C27      1.0000 0.57630  0.93900  0.34840  Biso   1.000  C
  C28      1.0000 0.42370  0.43900  0.15160  Biso   1.000  C
  H41      1.0000 0.44230  0.04260  0.75790  Biso   1.000  H
  H42      1.0000 0.55770  0.54260  0.74210  Biso   1.000  H
  H43      1.0000 0.55770  0.95740  0.24210  Biso   1.000  H
  H44      1.0000 0.44230  0.45740  0.25790  Biso   1.000  H
  C29      1.0000 0.53130  0.09830  0.61270  Biso   1.000  C
  C30      1.0000 0.46870  0.59830  0.88730  Biso   1.000  C
  C31      1.0000 0.46870  0.90170  0.38730  Biso   1.000  C
  C32      1.0000 0.53130  0.40170  0.11270  Biso   1.000  C
  H45      1.0000 0.62300  0.10570  0.69260  Biso   1.000  H
  H46      1.0000 0.37700  0.60570  0.80740  Biso   1.000  H
  H47      1.0000 0.37700  0.89430  0.30740  Biso   1.000  H
  H48      1.0000 0.62300  0.39430  0.19260  Biso   1.000  H
  C33      1.0000 0.50200  0.12460  0.45340  Biso   1.000  C
  C34      1.0000 0.49800  0.62460  0.04660  Biso   1.000  C
  C35      1.0000 0.49800  0.87540  0.54660  Biso   1.000  C
  C36      1.0000 0.50200  0.37540  0.95340  Biso   1.000  C
  C37      1.0000 0.61490  0.16440  0.40100  Biso   1.000  C
  C38      1.0000 0.38510  0.66440  0.09900  Biso   1.000  C
  C39      1.0000 0.38510  0.83560  0.59900  Biso   1.000  C
  C40      1.0000 0.61490  0.33560  0.90100  Biso   1.000  C
  H49      1.0000 0.67240  0.19730  0.48910  Biso   1.000  H
  H50      1.0000 0.32760  0.69730  0.01090  Biso   1.000  H
  H51      1.0000 0.32760  0.80270  0.51090  Biso   1.000  H
  H52      1.0000 0.67240  0.30270  0.98910  Biso   1.000  H
  H53      1.0000 0.68070  0.12790  0.38000  Biso   1.000  H
  H54      1.0000 0.31930  0.62790  0.12000  Biso   1.000  H
  H55      1.0000 0.31930  0.87210  0.62000  Biso   1.000  H
  H56      1.0000 0.68070  0.37210  0.88000  Biso   1.000  H
