data_image0
_cell_length_a       12.4498
_cell_length_b       17.1635
_cell_length_c       8.5718
_cell_angle_alpha    90
_cell_angle_beta     109.106
_cell_angle_gamma    90

_symmetry_space_group_name_H-M    "P 1"
_symmetry_int_tables_number       1

loop_
  _symmetry_equiv_pos_as_xyz
  'x, y, z'

loop_
  _atom_site_label
  _atom_site_occupancy
  _atom_site_fract_x
  _atom_site_fract_y
  _atom_site_fract_z
  _atom_site_thermal_displace_type
  _atom_site_B_iso_or_equiv
  _atom_site_type_symbol
  Cu1      1.0000 0.24041  0.15790  0.57806  Biso   1.000  Cu
  Cu2      1.0000 0.75959  0.65790  0.92194  Biso   1.000  Cu
  Cu3      1.0000 0.75959  0.84210  0.42194  Biso   1.000  Cu
  Cu4      1.0000 0.24041  0.34210  0.07806  Biso   1.000  Cu
  Cl1      1.0000 0.80406  0.07546  0.55019  Biso   1.000  Cl
  Cl2      1.0000 0.19594  0.57546  0.94981  Biso   1.000  Cl
  Cl3      1.0000 0.19594  0.92454  0.44981  Biso   1.000  Cl
  Cl4      1.0000 0.80406  0.42454  0.05019  Biso   1.000  Cl
  O1       1.0000 0.14637  0.26154  0.62490  Biso   1.000  O
  O2       1.0000 0.85363  0.76154  0.87510  Biso   1.000  O
  O3       1.0000 0.85363  0.73846  0.37510  Biso   1.000  O
  O4       1.0000 0.14637  0.23846  0.12490  Biso   1.000  O
  O5       1.0000 0.25202  0.30100  0.87350  Biso   1.000  O
  O6       1.0000 0.74798  0.80100  0.62650  Biso   1.000  O
  O7       1.0000 0.74798  0.69900  0.12650  Biso   1.000  O
  O8       1.0000 0.25202  0.19900  0.37350  Biso   1.000  O
  O9       1.0000 0.71160  0.02390  0.51600  Biso   1.000  O
  O10      1.0000 0.28840  0.52390  0.98400  Biso   1.000  O
  O11      1.0000 0.28840  0.97610  0.48400  Biso   1.000  O
  O12      1.0000 0.71160  0.47610  0.01600  Biso   1.000  O
  O13      1.0000 0.86250  0.07350  0.71640  Biso   1.000  O
  O14      1.0000 0.13750  0.57350  0.78360  Biso   1.000  O
  O15      1.0000 0.13750  0.92650  0.28360  Biso   1.000  O
  O16      1.0000 0.86250  0.42650  0.21640  Biso   1.000  O
  O17      1.0000 0.87560  0.05030  0.46310  Biso   1.000  O
  O18      1.0000 0.12440  0.55030  0.03690  Biso   1.000  O
  O19      1.0000 0.12440  0.94970  0.53690  Biso   1.000  O
  O20      1.0000 0.87560  0.44970  0.96310  Biso   1.000  O
  O21      1.0000 0.77000  0.15167  0.49410  Biso   1.000  O
  O22      1.0000 0.23000  0.65167  0.00590  Biso   1.000  O
  O23      1.0000 0.23000  0.84833  0.50590  Biso   1.000  O
  O24      1.0000 0.77000  0.34833  0.99410  Biso   1.000  O
  N1       1.0000 0.08660  0.37761  0.93580  Biso   1.000  N
  N2       1.0000 0.91340  0.87761  0.56420  Biso   1.000  N
  N3       1.0000 0.91340  0.62239  0.06420  Biso   1.000  N
  N4       1.0000 0.08660  0.12239  0.43580  Biso   1.000  N
  H1       1.0000 0.08790  0.42880  0.91390  Biso   1.000  H
  H2       1.0000 0.91210  0.92880  0.58610  Biso   1.000  H
  H3       1.0000 0.91210  0.57120  0.08610  Biso   1.000  H
  H4       1.0000 0.08790  0.07120  0.41390  Biso   1.000  H
  H5       1.0000 0.03520  0.36950  0.98730  Biso   1.000  H
  H6       1.0000 0.96480  0.86950  0.51270  Biso   1.000  H
  H7       1.0000 0.96480  0.63050  0.01270  Biso   1.000  H
  H8       1.0000 0.03520  0.13050  0.48730  Biso   1.000  H
  N5       1.0000 0.40860  0.16463  0.68820  Biso   1.000  N
  N6       1.0000 0.59140  0.66463  0.81180  Biso   1.000  N
  N7       1.0000 0.59140  0.83537  0.31180  Biso   1.000  N
  N8       1.0000 0.40860  0.33537  0.18820  Biso   1.000  N
  N9       1.0000 0.24810  0.10900  0.79660  Biso   1.000  N
  N10      1.0000 0.75190  0.60900  0.70340  Biso   1.000  N
  N11      1.0000 0.75190  0.89100  0.20340  Biso   1.000  N
  N12      1.0000 0.24810  0.39100  0.29660  Biso   1.000  N
  C1       1.0000 0.15830  0.29548  0.75630  Biso   1.000  C
  C2       1.0000 0.84170  0.79548  0.74370  Biso   1.000  C
  C3       1.0000 0.84170  0.70452  0.24370  Biso   1.000  C
  C4       1.0000 0.15830  0.20452  0.25630  Biso   1.000  C
  C5       1.0000 0.05710  0.33258  0.78320  Biso   1.000  C
  C6       1.0000 0.94290  0.83258  0.71680  Biso   1.000  C
  C7       1.0000 0.94290  0.66742  0.21680  Biso   1.000  C
  C8       1.0000 0.05710  0.16742  0.28320  Biso   1.000  C
  C9       1.0000 0.95830  0.35750  0.63710  Biso   1.000  C
  C10      1.0000 0.04170  0.85750  0.86290  Biso   1.000  C
  C11      1.0000 0.04170  0.64250  0.36290  Biso   1.000  C
  C12      1.0000 0.95830  0.14250  0.13710  Biso   1.000  C
  H9       1.0000 0.96390  0.34950  0.52800  Biso   1.000  H
  H10      1.0000 0.03610  0.84950  0.97200  Biso   1.000  H
  H11      1.0000 0.03610  0.65050  0.47200  Biso   1.000  H
  H12      1.0000 0.96390  0.15050  0.02800  Biso   1.000  H
  H13      1.0000 0.91710  0.40390  0.64850  Biso   1.000  H
  H14      1.0000 0.08290  0.90390  0.85150  Biso   1.000  H
  H15      1.0000 0.08290  0.59610  0.35150  Biso   1.000  H
  H16      1.0000 0.91710  0.09610  0.14850  Biso   1.000  H
  C13      1.0000 0.94800  0.28760  0.73270  Biso   1.000  C
  C14      1.0000 0.05200  0.78760  0.76730  Biso   1.000  C
  C15      1.0000 0.05200  0.71240  0.26730  Biso   1.000  C
  C16      1.0000 0.94800  0.21240  0.23270  Biso   1.000  C
  H17      1.0000 0.90040  0.29140  0.80230  Biso   1.000  H
  H18      1.0000 0.09960  0.79140  0.69770  Biso   1.000  H
  H19      1.0000 0.09960  0.70860  0.19770  Biso   1.000  H
  H20      1.0000 0.90040  0.20860  0.30230  Biso   1.000  H
  H21      1.0000 0.94730  0.23700  0.68180  Biso   1.000  H
  H22      1.0000 0.05270  0.73700  0.81820  Biso   1.000  H
  H23      1.0000 0.05270  0.76300  0.31820  Biso   1.000  H
  H24      1.0000 0.94730  0.26300  0.18180  Biso   1.000  H
  C17      1.0000 0.48690  0.19160  0.62840  Biso   1.000  C
  C18      1.0000 0.51310  0.69160  0.87160  Biso   1.000  C
  C19      1.0000 0.51310  0.80840  0.37160  Biso   1.000  C
  C20      1.0000 0.48690  0.30840  0.12840  Biso   1.000  C
  H25      1.0000 0.46420  0.21090  0.52120  Biso   1.000  H
  H26      1.0000 0.53580  0.71090  0.97880  Biso   1.000  H
  H27      1.0000 0.53580  0.78910  0.47880  Biso   1.000  H
  H28      1.0000 0.46420  0.28910  0.02120  Biso   1.000  H
  C21      1.0000 0.60220  0.19190  0.72100  Biso   1.000  C
  C22      1.0000 0.39780  0.69190  0.77900  Biso   1.000  C
  C23      1.0000 0.39780  0.80810  0.27900  Biso   1.000  C
  C24      1.0000 0.60220  0.30810  0.22100  Biso   1.000  C
  H29      1.0000 0.65530  0.21090  0.67540  Biso   1.000  H
  H30      1.0000 0.34470  0.71090  0.82460  Biso   1.000  H
  H31      1.0000 0.34470  0.78910  0.32460  Biso   1.000  H
  H32      1.0000 0.65530  0.28910  0.17540  Biso   1.000  H
  C25      1.0000 0.63620  0.16440  0.87770  Biso   1.000  C
  C26      1.0000 0.36380  0.66440  0.62230  Biso   1.000  C
  C27      1.0000 0.36380  0.83560  0.12230  Biso   1.000  C
  C28      1.0000 0.63620  0.33560  0.37770  Biso   1.000  C
  H33      1.0000 0.71300  0.16510  0.94030  Biso   1.000  H
  H34      1.0000 0.28700  0.66510  0.55970  Biso   1.000  H
  H35      1.0000 0.28700  0.83490  0.05970  Biso   1.000  H
  H36      1.0000 0.71300  0.33490  0.44030  Biso   1.000  H
  C29      1.0000 0.55680  0.13500  0.94600  Biso   1.000  C
  C30      1.0000 0.44320  0.63500  0.55400  Biso   1.000  C
  C31      1.0000 0.44320  0.86500  0.05400  Biso   1.000  C
  C32      1.0000 0.55680  0.36500  0.44600  Biso   1.000  C
  C33      1.0000 0.44280  0.13641  0.84430  Biso   1.000  C
  C34      1.0000 0.55720  0.63641  0.65570  Biso   1.000  C
  C35      1.0000 0.55720  0.86359  0.15570  Biso   1.000  C
  C36      1.0000 0.44280  0.36359  0.34430  Biso   1.000  C
  C37      1.0000 0.35540  0.10729  0.90340  Biso   1.000  C
  C38      1.0000 0.64460  0.60729  0.59660  Biso   1.000  C
  C39      1.0000 0.64460  0.89271  0.09660  Biso   1.000  C
  C40      1.0000 0.35540  0.39271  0.40340  Biso   1.000  C
  C41      1.0000 0.38370  0.07832  0.06440  Biso   1.000  C
  C42      1.0000 0.61630  0.57832  0.43560  Biso   1.000  C
  C43      1.0000 0.61630  0.92168  0.93560  Biso   1.000  C
  C44      1.0000 0.38370  0.42168  0.56440  Biso   1.000  C
  C45      1.0000 0.29420  0.05010  0.11420  Biso   1.000  C
  C46      1.0000 0.70580  0.55010  0.38580  Biso   1.000  C
  C47      1.0000 0.70580  0.94990  0.88580  Biso   1.000  C
  C48      1.0000 0.29420  0.44990  0.61420  Biso   1.000  C
  H37      1.0000 0.30840  0.03040  0.22020  Biso   1.000  H
  H38      1.0000 0.69160  0.53040  0.27980  Biso   1.000  H
  H39      1.0000 0.69160  0.96960  0.77980  Biso   1.000  H
  H40      1.0000 0.30840  0.46960  0.72020  Biso   1.000  H
  C49      1.0000 0.18670  0.05180  0.00580  Biso   1.000  C
  C50      1.0000 0.81330  0.55180  0.49420  Biso   1.000  C
  C51      1.0000 0.81330  0.94820  0.99420  Biso   1.000  C
  C52      1.0000 0.18670  0.44820  0.50580  Biso   1.000  C
  H41      1.0000 0.12700  0.03260  0.03720  Biso   1.000  H
  H42      1.0000 0.87300  0.53260  0.46280  Biso   1.000  H
  H43      1.0000 0.87300  0.96740  0.96280  Biso   1.000  H
  H44      1.0000 0.12700  0.46740  0.53720  Biso   1.000  H
  C53      1.0000 0.16500  0.08231  0.84730  Biso   1.000  C
  C54      1.0000 0.83500  0.58231  0.65270  Biso   1.000  C
  C55      1.0000 0.83500  0.91769  0.15270  Biso   1.000  C
  C56      1.0000 0.16500  0.41769  0.34730  Biso   1.000  C
  H45      1.0000 0.09050  0.08400  0.77560  Biso   1.000  H
  H46      1.0000 0.90950  0.58400  0.72440  Biso   1.000  H
  H47      1.0000 0.90950  0.91600  0.22440  Biso   1.000  H
  H48      1.0000 0.09050  0.41600  0.27560  Biso   1.000  H
  C57      1.0000 0.58280  0.10480  0.10790  Biso   1.000  C
  C58      1.0000 0.41720  0.60480  0.39210  Biso   1.000  C
  C59      1.0000 0.41720  0.89520  0.89210  Biso   1.000  C
  C60      1.0000 0.58280  0.39520  0.60790  Biso   1.000  C
  H49      1.0000 0.65820  0.10310  0.17590  Biso   1.000  H
  H50      1.0000 0.34180  0.60310  0.32410  Biso   1.000  H
  H51      1.0000 0.34180  0.89690  0.82410  Biso   1.000  H
  H52      1.0000 0.65820  0.39690  0.67590  Biso   1.000  H
  C61      1.0000 0.50130  0.07830  0.16640  Biso   1.000  C
  C62      1.0000 0.49870  0.57830  0.33360  Biso   1.000  C
  C63      1.0000 0.49870  0.92170  0.83360  Biso   1.000  C
  C64      1.0000 0.50130  0.42170  0.66640  Biso   1.000  C
  H53      1.0000 0.52140  0.05980  0.27420  Biso   1.000  H
  H54      1.0000 0.47860  0.55980  0.22580  Biso   1.000  H
  H55      1.0000 0.47860  0.94020  0.72580  Biso   1.000  H
  H56      1.0000 0.52140  0.44020  0.77420  Biso   1.000  H
