data_image0
_cell_length_a       10.839
_cell_length_b       11.142
_cell_length_c       10.899
_cell_angle_alpha    90
_cell_angle_beta     102.925
_cell_angle_gamma    90

_symmetry_space_group_name_H-M    "P 1"
_symmetry_int_tables_number       1

loop_
  _symmetry_equiv_pos_as_xyz
  'x, y, z'

loop_
  _atom_site_label
  _atom_site_occupancy
  _atom_site_fract_x
  _atom_site_fract_y
  _atom_site_fract_z
  _atom_site_thermal_displace_type
  _atom_site_B_iso_or_equiv
  _atom_site_type_symbol
  Cu1      1.0000 0.75000  0.65314  0.75000  Biso   1.000  Cu
  Cu2      1.0000 0.25000  0.34686  0.25000  Biso   1.000  Cu
  S1       1.0000 0.66956  0.67723  0.45031  Biso   1.000  S
  S2       1.0000 0.83044  0.67723  0.04969  Biso   1.000  S
  S3       1.0000 0.33044  0.32277  0.54969  Biso   1.000  S
  S4       1.0000 0.16956  0.32277  0.95031  Biso   1.000  S
  O1       1.0000 0.61080  0.66590  0.55690  Biso   1.000  O
  O2       1.0000 0.88920  0.66590  0.94310  Biso   1.000  O
  O3       1.0000 0.38920  0.33410  0.44310  Biso   1.000  O
  O4       1.0000 0.11080  0.33410  0.05690  Biso   1.000  O
  O5       1.0000 0.64780  0.79060  0.38750  Biso   1.000  O
  O6       1.0000 0.85220  0.79060  0.11250  Biso   1.000  O
  O7       1.0000 0.35220  0.20940  0.61250  Biso   1.000  O
  O8       1.0000 0.14780  0.20940  0.88750  Biso   1.000  O
  O9       1.0000 0.64470  0.57690  0.36660  Biso   1.000  O
  O10      1.0000 0.85530  0.57690  0.13340  Biso   1.000  O
  O11      1.0000 0.35530  0.42310  0.63340  Biso   1.000  O
  O12      1.0000 0.14470  0.42310  0.86660  Biso   1.000  O
  N1       1.0000 0.87540  0.65270  0.63770  Biso   1.000  N
  N2       1.0000 0.62460  0.65270  0.86230  Biso   1.000  N
  N3       1.0000 0.12460  0.34730  0.36230  Biso   1.000  N
  N4       1.0000 0.37540  0.34730  0.13770  Biso   1.000  N
  N5       1.0000 0.75000  0.46990  0.75000  Biso   1.000  N
  N6       1.0000 0.25000  0.53010  0.25000  Biso   1.000  N
  N7       1.0000 0.75000  0.83690  0.75000  Biso   1.000  N
  N8       1.0000 0.25000  0.16310  0.25000  Biso   1.000  N
  C1       1.0000 0.83470  0.66950  0.51390  Biso   1.000  C
  C2       1.0000 0.66530  0.66950  0.98610  Biso   1.000  C
  C3       1.0000 0.16530  0.33050  0.48610  Biso   1.000  C
  C4       1.0000 0.33470  0.33050  0.01390  Biso   1.000  C
  C5       1.0000 0.91490  0.67470  0.43360  Biso   1.000  C
  C6       1.0000 0.58510  0.67470  0.06640  Biso   1.000  C
  C7       1.0000 0.08510  0.32530  0.56640  Biso   1.000  C
  C8       1.0000 0.41490  0.32530  0.93360  Biso   1.000  C
  H1       1.0000 0.88460  0.68890  0.34810  Biso   1.000  H
  H2       1.0000 0.61540  0.68890  0.15190  Biso   1.000  H
  H3       1.0000 0.11540  0.31110  0.65190  Biso   1.000  H
  H4       1.0000 0.38460  0.31110  0.84810  Biso   1.000  H
  C9       1.0000 0.04630  0.65780  0.48520  Biso   1.000  C
  C10      1.0000 0.45370  0.65780  0.01480  Biso   1.000  C
  C11      1.0000 0.95370  0.34220  0.51480  Biso   1.000  C
  C12      1.0000 0.54630  0.34220  0.98520  Biso   1.000  C
  H5       1.0000 0.10300  0.65780  0.43250  Biso   1.000  H
  H6       1.0000 0.39700  0.65780  0.06750  Biso   1.000  H
  H7       1.0000 0.89700  0.34220  0.56750  Biso   1.000  H
  H8       1.0000 0.60300  0.34220  0.93250  Biso   1.000  H
  C13      1.0000 0.08840  0.64190  0.60840  Biso   1.000  C
  C14      1.0000 0.41160  0.64190  0.89160  Biso   1.000  C
  C15      1.0000 0.91160  0.35810  0.39160  Biso   1.000  C
  C16      1.0000 0.58840  0.35810  0.10840  Biso   1.000  C
  H9       1.0000 0.17460  0.63360  0.64300  Biso   1.000  H
  H10      1.0000 0.32540  0.63360  0.85700  Biso   1.000  H
  H11      1.0000 0.82540  0.36640  0.35700  Biso   1.000  H
  H12      1.0000 0.67460  0.36640  0.14300  Biso   1.000  H
  C17      1.0000 0.00130  0.63810  0.68450  Biso   1.000  C
  C18      1.0000 0.49870  0.63810  0.81550  Biso   1.000  C
  C19      1.0000 0.99870  0.36190  0.31550  Biso   1.000  C
  C20      1.0000 0.50130  0.36190  0.18450  Biso   1.000  C
  H13      1.0000 0.03040  0.62510  0.77040  Biso   1.000  H
  H14      1.0000 0.46960  0.62510  0.72960  Biso   1.000  H
  H15      1.0000 0.96960  0.37490  0.22960  Biso   1.000  H
  H16      1.0000 0.53040  0.37490  0.27040  Biso   1.000  H
  C21      1.0000 0.83090  0.40810  0.83850  Biso   1.000  C
  C22      1.0000 0.66910  0.40810  0.66150  Biso   1.000  C
  C23      1.0000 0.16910  0.59190  0.16150  Biso   1.000  C
  C24      1.0000 0.33090  0.59190  0.33850  Biso   1.000  C
  H17      1.0000 0.88710  0.45030  0.90050  Biso   1.000  H
  H18      1.0000 0.61290  0.45030  0.59950  Biso   1.000  H
  H19      1.0000 0.11290  0.54970  0.09950  Biso   1.000  H
  H20      1.0000 0.38710  0.54970  0.40050  Biso   1.000  H
  C25      1.0000 0.83400  0.28430  0.84130  Biso   1.000  C
  C26      1.0000 0.66600  0.28430  0.65870  Biso   1.000  C
  C27      1.0000 0.16600  0.71570  0.15870  Biso   1.000  C
  C28      1.0000 0.33400  0.71570  0.34130  Biso   1.000  C
  H21      1.0000 0.89200  0.24440  0.90390  Biso   1.000  H
  H22      1.0000 0.60800  0.24440  0.59610  Biso   1.000  H
  H23      1.0000 0.10800  0.75560  0.09610  Biso   1.000  H
  H24      1.0000 0.39200  0.75560  0.40390  Biso   1.000  H
  C29      1.0000 0.75000  0.21940  0.75000  Biso   1.000  C
  C30      1.0000 0.25000  0.78060  0.25000  Biso   1.000  C
  C31      1.0000 0.75000  0.08760  0.75000  Biso   1.000  C
  C32      1.0000 0.25000  0.91240  0.25000  Biso   1.000  C
  C33      1.0000 0.86220  0.02430  0.79260  Biso   1.000  C
  C34      1.0000 0.63780  0.02430  0.70740  Biso   1.000  C
  C35      1.0000 0.13780  0.97570  0.20740  Biso   1.000  C
  C36      1.0000 0.36220  0.97570  0.29260  Biso   1.000  C
  H25      1.0000 0.93840  0.06450  0.82130  Biso   1.000  H
  H26      1.0000 0.56160  0.06450  0.67870  Biso   1.000  H
  H27      1.0000 0.06160  0.93550  0.17870  Biso   1.000  H
  H28      1.0000 0.43840  0.93550  0.32130  Biso   1.000  H
  C37      1.0000 0.85760  0.89970  0.79140  Biso   1.000  C
  C38      1.0000 0.64240  0.89970  0.70860  Biso   1.000  C
  C39      1.0000 0.14240  0.10030  0.20860  Biso   1.000  C
  C40      1.0000 0.35760  0.10030  0.29140  Biso   1.000  C
  H29      1.0000 0.93240  0.85750  0.82060  Biso   1.000  H
  H30      1.0000 0.56760  0.85750  0.67940  Biso   1.000  H
  H31      1.0000 0.06760  0.14250  0.17940  Biso   1.000  H
  H32      1.0000 0.43240  0.14250  0.32060  Biso   1.000  H
  O13      1.0000 0.20300  0.94400  0.88300  Biso   1.000  O
  O14      1.0000 0.29700  0.94400  0.61700  Biso   1.000  O
  O15      1.0000 0.79700  0.05600  0.11700  Biso   1.000  O
  O16      1.0000 0.70300  0.05600  0.38300  Biso   1.000  O
  H33      1.0000 0.27720  0.91600  0.89770  Biso   1.000  H
  H34      1.0000 0.22280  0.91600  0.60230  Biso   1.000  H
  H35      1.0000 0.72280  0.08400  0.10230  Biso   1.000  H
  H36      1.0000 0.77720  0.08400  0.39770  Biso   1.000  H
  H37      1.0000 0.18700  0.01440  0.85210  Biso   1.000  H
  H38      1.0000 0.31300  0.01440  0.64790  Biso   1.000  H
  H39      1.0000 0.81300  0.98560  0.14790  Biso   1.000  H
  H40      1.0000 0.68700  0.98560  0.35210  Biso   1.000  H
