data_image0
_cell_length_a       10.84
_cell_length_b       11.144
_cell_length_c       10.864
_cell_angle_alpha    90
_cell_angle_beta     102.604
_cell_angle_gamma    90

_symmetry_space_group_name_H-M    "P 1"
_symmetry_int_tables_number       1

loop_
  _symmetry_equiv_pos_as_xyz
  'x, y, z'

loop_
  _atom_site_label
  _atom_site_occupancy
  _atom_site_fract_x
  _atom_site_fract_y
  _atom_site_fract_z
  _atom_site_thermal_displace_type
  _atom_site_B_iso_or_equiv
  _atom_site_type_symbol
  Cu1      1.0000 0.25000  0.35091  0.25000  Biso   1.000  Cu
  Cu2      1.0000 0.75000  0.64909  0.75000  Biso   1.000  Cu
  S1       1.0000 0.94890  0.32960  0.16802  Biso   1.000  S
  S2       1.0000 0.55110  0.32960  0.33198  Biso   1.000  S
  S3       1.0000 0.05110  0.67040  0.83198  Biso   1.000  S
  S4       1.0000 0.44890  0.67040  0.66802  Biso   1.000  S
  O1       1.0000 0.05789  0.33835  0.11026  Biso   1.000  O
  O2       1.0000 0.44211  0.33835  0.38974  Biso   1.000  O
  O3       1.0000 0.94211  0.66165  0.88974  Biso   1.000  O
  O4       1.0000 0.55789  0.66165  0.61026  Biso   1.000  O
  O5       1.0000 0.88210  0.21770  0.14300  Biso   1.000  O
  O6       1.0000 0.61790  0.21770  0.35700  Biso   1.000  O
  O7       1.0000 0.11790  0.78230  0.85700  Biso   1.000  O
  O8       1.0000 0.38210  0.78230  0.64300  Biso   1.000  O
  O9       1.0000 0.86920  0.43450  0.14570  Biso   1.000  O
  O10      1.0000 0.63080  0.43450  0.35430  Biso   1.000  O
  O11      1.0000 0.13080  0.56550  0.85430  Biso   1.000  O
  O12      1.0000 0.36920  0.56550  0.64570  Biso   1.000  O
  N1       1.0000 0.13730  0.35182  0.37560  Biso   1.000  N
  N2       1.0000 0.36270  0.35182  0.12440  Biso   1.000  N
  N3       1.0000 0.86270  0.64818  0.62440  Biso   1.000  N
  N4       1.0000 0.63730  0.64818  0.87560  Biso   1.000  N
  N5       1.0000 0.25000  0.53400  0.25000  Biso   1.000  N
  N6       1.0000 0.75000  0.46600  0.75000  Biso   1.000  N
  N7       1.0000 0.25000  0.16670  0.25000  Biso   1.000  N
  N8       1.0000 0.75000  0.83330  0.75000  Biso   1.000  N
  C1       1.0000 0.01250  0.33260  0.33560  Biso   1.000  C
  C2       1.0000 0.48750  0.33260  0.16440  Biso   1.000  C
  C3       1.0000 0.98750  0.66740  0.66440  Biso   1.000  C
  C4       1.0000 0.51250  0.66740  0.83560  Biso   1.000  C
  C5       1.0000 0.93020  0.32500  0.41630  Biso   1.000  C
  C6       1.0000 0.56980  0.32500  0.08370  Biso   1.000  C
  C7       1.0000 0.06980  0.67500  0.58370  Biso   1.000  C
  C8       1.0000 0.43020  0.67500  0.91630  Biso   1.000  C
  H1       1.0000 0.84280  0.30950  0.38540  Biso   1.000  H
  H2       1.0000 0.65720  0.30950  0.11460  Biso   1.000  H
  H3       1.0000 0.15720  0.69050  0.61460  Biso   1.000  H
  H4       1.0000 0.34280  0.69050  0.88540  Biso   1.000  H
  C9       1.0000 0.98010  0.34100  0.54390  Biso   1.000  C
  C10      1.0000 0.51990  0.34100  0.95610  Biso   1.000  C
  C11      1.0000 0.01990  0.65900  0.45610  Biso   1.000  C
  C12      1.0000 0.48010  0.65900  0.04390  Biso   1.000  C
  H5       1.0000 0.92700  0.33530  0.60270  Biso   1.000  H
  H6       1.0000 0.57300  0.33530  0.89730  Biso   1.000  H
  H7       1.0000 0.07300  0.66470  0.39730  Biso   1.000  H
  H8       1.0000 0.42700  0.66470  0.10270  Biso   1.000  H
  C13      1.0000 0.10770  0.36510  0.58550  Biso   1.000  C
  C14      1.0000 0.39230  0.36510  0.91450  Biso   1.000  C
  C15      1.0000 0.89230  0.63490  0.41450  Biso   1.000  C
  C16      1.0000 0.60770  0.63490  0.08550  Biso   1.000  C
  H9       1.0000 0.14230  0.37930  0.67250  Biso   1.000  H
  H10      1.0000 0.35770  0.37930  0.82750  Biso   1.000  H
  H11      1.0000 0.85770  0.62070  0.32750  Biso   1.000  H
  H12      1.0000 0.64230  0.62070  0.17250  Biso   1.000  H
  C17      1.0000 0.18380  0.36830  0.49960  Biso   1.000  C
  C18      1.0000 0.31620  0.36830  0.00040  Biso   1.000  C
  C19      1.0000 0.81620  0.63170  0.50040  Biso   1.000  C
  C20      1.0000 0.68380  0.63170  0.99960  Biso   1.000  C
  H13      1.0000 0.27180  0.38260  0.52860  Biso   1.000  H
  H14      1.0000 0.22820  0.38260  0.97140  Biso   1.000  H
  H15      1.0000 0.72820  0.61740  0.47140  Biso   1.000  H
  H16      1.0000 0.77180  0.61740  0.02860  Biso   1.000  H
  C21      1.0000 0.16150  0.59590  0.16910  Biso   1.000  C
  C22      1.0000 0.33850  0.59590  0.33090  Biso   1.000  C
  C23      1.0000 0.83850  0.40410  0.83090  Biso   1.000  C
  C24      1.0000 0.66150  0.40410  0.66910  Biso   1.000  C
  H17      1.0000 0.09860  0.55280  0.11120  Biso   1.000  H
  H18      1.0000 0.40140  0.55280  0.38880  Biso   1.000  H
  H19      1.0000 0.90140  0.44720  0.88880  Biso   1.000  H
  H20      1.0000 0.59860  0.44720  0.61120  Biso   1.000  H
  C25      1.0000 0.15850  0.71950  0.16660  Biso   1.000  C
  C26      1.0000 0.34150  0.71950  0.33340  Biso   1.000  C
  C27      1.0000 0.84150  0.28050  0.83340  Biso   1.000  C
  C28      1.0000 0.65850  0.28050  0.66660  Biso   1.000  C
  H21      1.0000 0.09410  0.76030  0.10830  Biso   1.000  H
  H22      1.0000 0.40590  0.76030  0.39170  Biso   1.000  H
  H23      1.0000 0.90590  0.23970  0.89170  Biso   1.000  H
  H24      1.0000 0.59410  0.23970  0.60830  Biso   1.000  H
  C29      1.0000 0.25000  0.78410  0.25000  Biso   1.000  C
  C30      1.0000 0.75000  0.21590  0.75000  Biso   1.000  C
  C31      1.0000 0.25000  0.91650  0.25000  Biso   1.000  C
  C32      1.0000 0.75000  0.08350  0.75000  Biso   1.000  C
  C33      1.0000 0.20560  0.98110  0.13930  Biso   1.000  C
  C34      1.0000 0.29440  0.98110  0.36070  Biso   1.000  C
  C35      1.0000 0.79440  0.01890  0.86070  Biso   1.000  C
  C36      1.0000 0.70560  0.01890  0.63930  Biso   1.000  C
  H25      1.0000 0.17420  0.94050  0.06190  Biso   1.000  H
  H26      1.0000 0.32580  0.94050  0.43810  Biso   1.000  H
  H27      1.0000 0.82580  0.05950  0.93810  Biso   1.000  H
  H28      1.0000 0.67420  0.05950  0.56190  Biso   1.000  H
  C37      1.0000 0.20770  0.10470  0.14370  Biso   1.000  C
  C38      1.0000 0.29230  0.10470  0.35630  Biso   1.000  C
  C39      1.0000 0.79230  0.89530  0.85630  Biso   1.000  C
  C40      1.0000 0.70770  0.89530  0.64370  Biso   1.000  C
  H29      1.0000 0.17780  0.14800  0.06770  Biso   1.000  H
  H30      1.0000 0.32220  0.14800  0.43230  Biso   1.000  H
  H31      1.0000 0.82220  0.85200  0.93230  Biso   1.000  H
  H32      1.0000 0.67780  0.85200  0.56770  Biso   1.000  H
  C41      1.0000 0.82730  0.92280  0.25100  Biso   1.000  C
  C42      1.0000 0.67270  0.92280  0.24900  Biso   1.000  C
  C43      1.0000 0.17270  0.07720  0.74900  Biso   1.000  C
  C44      1.0000 0.32730  0.07720  0.75100  Biso   1.000  C
  H33      1.0000 0.81640  0.83350  0.24960  Biso   1.000  H
  H34      1.0000 0.68360  0.83350  0.25040  Biso   1.000  H
  H35      1.0000 0.18360  0.16650  0.75040  Biso   1.000  H
  H36      1.0000 0.31640  0.16650  0.74960  Biso   1.000  H
  C45      1.0000 0.90900  0.96290  0.37770  Biso   1.000  C
  C46      1.0000 0.59100  0.96290  0.12230  Biso   1.000  C
  C47      1.0000 0.09100  0.03710  0.62230  Biso   1.000  C
  C48      1.0000 0.40900  0.03710  0.87770  Biso   1.000  C
  H37      1.0000 0.99650  0.93870  0.38610  Biso   1.000  H
  H38      1.0000 0.50350  0.93870  0.11390  Biso   1.000  H
  H39      1.0000 0.00350  0.06130  0.61390  Biso   1.000  H
  H40      1.0000 0.49650  0.06130  0.88610  Biso   1.000  H
  H41      1.0000 0.87500  0.92930  0.44690  Biso   1.000  H
  H42      1.0000 0.62500  0.92930  0.05310  Biso   1.000  H
  H43      1.0000 0.12500  0.07070  0.55310  Biso   1.000  H
  H44      1.0000 0.37500  0.07070  0.94690  Biso   1.000  H
  H45      1.0000 0.90540  0.05220  0.38330  Biso   1.000  H
  H46      1.0000 0.59460  0.05220  0.11670  Biso   1.000  H
  H47      1.0000 0.09460  0.94780  0.61670  Biso   1.000  H
  H48      1.0000 0.40540  0.94780  0.88330  Biso   1.000  H
  C49      1.0000 0.70700  0.98700  0.19400  Biso   1.000  C
  C50      1.0000 0.79300  0.98700  0.30600  Biso   1.000  C
  C51      1.0000 0.29300  0.01300  0.80600  Biso   1.000  C
  C52      1.0000 0.20700  0.01300  0.69400  Biso   1.000  C
  H49      1.0000 0.70310  0.00380  0.10790  Biso   1.000  H
  H50      1.0000 0.79690  0.00380  0.39210  Biso   1.000  H
  H51      1.0000 0.29690  0.99620  0.89210  Biso   1.000  H
  H52      1.0000 0.20310  0.99620  0.60790  Biso   1.000  H
  H53      1.0000 0.70590  0.06260  0.24280  Biso   1.000  H
  H54      1.0000 0.79410  0.06260  0.25720  Biso   1.000  H
  H55      1.0000 0.29410  0.93740  0.75720  Biso   1.000  H
  H56      1.0000 0.20590  0.93740  0.74280  Biso   1.000  H
  H57      1.0000 0.63640  0.93670  0.20630  Biso   1.000  H
  H58      1.0000 0.86360  0.93670  0.29370  Biso   1.000  H
  H59      1.0000 0.36360  0.06330  0.79370  Biso   1.000  H
  H60      1.0000 0.13640  0.06330  0.70630  Biso   1.000  H
  O13      1.0000 0.89600  0.95500  0.16320  Biso   1.000  O
  O14      1.0000 0.60400  0.95500  0.33680  Biso   1.000  O
  O15      1.0000 0.10400  0.04500  0.83680  Biso   1.000  O
  O16      1.0000 0.39600  0.04500  0.66320  Biso   1.000  O
  H61      1.0000 0.89420  0.03350  0.15680  Biso   1.000  H
  H62      1.0000 0.60580  0.03350  0.34320  Biso   1.000  H
  H63      1.0000 0.10580  0.96650  0.84320  Biso   1.000  H
  H64      1.0000 0.39420  0.96650  0.65680  Biso   1.000  H
