data_image0
_cell_length_a       7.4167
_cell_length_b       8.1502
_cell_length_c       9.5228
_cell_angle_alpha    104.747
_cell_angle_beta     107.658
_cell_angle_gamma    101.484

_symmetry_space_group_name_H-M    "P 1"
_symmetry_int_tables_number       1

loop_
  _symmetry_equiv_pos_as_xyz
  'x, y, z'

loop_
  _atom_site_label
  _atom_site_occupancy
  _atom_site_fract_x
  _atom_site_fract_y
  _atom_site_fract_z
  _atom_site_thermal_displace_type
  _atom_site_B_iso_or_equiv
  _atom_site_type_symbol
  C1       1.0000 0.20680  0.43520  0.54830  Biso   1.000  C
  C2       1.0000 0.79320  0.56480  0.45170  Biso   1.000  C
  H1       1.0000 0.10470  0.38810  0.45030  Biso   1.000  H
  H2       1.0000 0.89530  0.61190  0.54970  Biso   1.000  H
  C3       1.0000 0.39980  0.47190  0.78690  Biso   1.000  C
  C4       1.0000 0.60020  0.52810  0.21310  Biso   1.000  C
  H3       1.0000 0.45240  0.45250  0.88100  Biso   1.000  H
  H4       1.0000 0.54760  0.54750  0.11900  Biso   1.000  H
  C5       1.0000 0.47820  0.60680  0.74580  Biso   1.000  C
  C6       1.0000 0.52180  0.39320  0.25420  Biso   1.000  C
  H5       1.0000 0.59350  0.70050  0.80720  Biso   1.000  H
  H6       1.0000 0.40650  0.29950  0.19280  Biso   1.000  H
  C7       1.0000 0.09500  0.20120  0.65170  Biso   1.000  C
  C8       1.0000 0.90500  0.79880  0.34830  Biso   1.000  C
  H7       1.0000 0.16730  0.11440  0.65400  Biso   1.000  H
  H8       1.0000 0.83270  0.88560  0.34600  Biso   1.000  H
  H9       1.0000 0.98530  0.15650  0.55130  Biso   1.000  H
  H10      1.0000 0.01470  0.84350  0.44870  Biso   1.000  H
  C9       1.0000 0.01100  0.21670  0.78090  Biso   1.000  C
  C10      1.0000 0.98900  0.78330  0.21910  Biso   1.000  C
  N1       1.0000 0.22660  0.36760  0.66320  Biso   1.000  N
  N2       1.0000 0.77340  0.63240  0.33680  Biso   1.000  N
  N3       1.0000 0.35670  0.58050  0.59690  Biso   1.000  N
  N4       1.0000 0.64330  0.41950  0.40310  Biso   1.000  N
  H11      1.0000 0.37500  0.64820  0.54320  Biso   1.000  H
  H12      1.0000 0.62500  0.35180  0.45680  Biso   1.000  H
  O1       1.0000 0.71100  0.91120  0.60190  Biso   1.000  O
  O2       1.0000 0.28900  0.08880  0.39810  Biso   1.000  O
  O3       1.0000 0.79820  0.02010  0.89590  Biso   1.000  O
  O4       1.0000 0.20180  0.97990  0.10410  Biso   1.000  O
  O5       1.0000 0.02170  0.88070  0.78050  Biso   1.000  O
  O6       1.0000 0.97830  0.11930  0.21950  Biso   1.000  O
  O7       1.0000 0.79400  0.36360  0.92290  Biso   1.000  O
  O8       1.0000 0.20600  0.63640  0.07710  Biso   1.000  O
  O9       1.0000 0.93520  0.52880  0.76880  Biso   1.000  O
  O10      1.0000 0.06480  0.47120  0.23120  Biso   1.000  O
  O11      1.0000 0.65620  0.24840  0.62130  Biso   1.000  O
  O12      1.0000 0.34380  0.75160  0.37870  Biso   1.000  O
  O13      1.0000 0.16440  0.28820  0.93560  Biso   1.000  O
  O14      1.0000 0.83560  0.71180  0.06440  Biso   1.000  O
  H13      1.0000 0.23150  0.38790  0.94890  Biso   1.000  H
  H14      1.0000 0.76850  0.61210  0.05110  Biso   1.000  H
  P1       1.0000 0.87593  0.98978  0.76284  Biso   1.000  P
  P2       1.0000 0.12407  0.01022  0.23716  Biso   1.000  P
  P3       1.0000 0.83540  0.34839  0.77244  Biso   1.000  P
  P4       1.0000 0.16460  0.65161  0.22756  Biso   1.000  P
  Cu1      1.0000 0.92256  0.24404  0.06756  Biso   1.000  Cu
  Cu2      1.0000 0.07744  0.75596  0.93244  Biso   1.000  Cu
  Cu3      1.0000 0.50000  0.00000  0.50000  Biso   1.000  Cu
  O15      1.0000 0.39090  0.97290  0.72750  Biso   1.000  O
  O16      1.0000 0.60910  0.02710  0.27250  Biso   1.000  O
  H15      1.0000 0.30200  0.94600  0.76800  Biso   1.000  H
  H16      1.0000 0.69800  0.05400  0.23200  Biso   1.000  H
  H17      1.0000 0.49100  0.99900  0.81500  Biso   1.000  H
  H18      1.0000 0.50900  0.00100  0.18500  Biso   1.000  H
