data_image0
_cell_length_a       23.078
_cell_length_b       10.214
_cell_length_c       23.142
_cell_angle_alpha    90
_cell_angle_beta     115.471
_cell_angle_gamma    90

_symmetry_space_group_name_H-M    "P 1"
_symmetry_int_tables_number       1

loop_
  _symmetry_equiv_pos_as_xyz
  'x, y, z'

loop_
  _atom_site_label
  _atom_site_occupancy
  _atom_site_fract_x
  _atom_site_fract_y
  _atom_site_fract_z
  _atom_site_thermal_displace_type
  _atom_site_B_iso_or_equiv
  _atom_site_type_symbol
  C1       1.0000 0.78644  0.09650  0.20506  Biso   1.000  C
  C2       1.0000 0.28644  0.59650  0.20506  Biso   1.000  C
  C3       1.0000 0.21356  0.09650  0.29494  Biso   1.000  C
  C4       1.0000 0.71356  0.59650  0.29494  Biso   1.000  C
  C5       1.0000 0.21356  0.90350  0.79494  Biso   1.000  C
  C6       1.0000 0.71356  0.40350  0.79494  Biso   1.000  C
  C7       1.0000 0.78644  0.90350  0.70506  Biso   1.000  C
  C8       1.0000 0.28644  0.40350  0.70506  Biso   1.000  C
  H1       1.0000 0.78570  0.00610  0.20940  Biso   1.000  H
  H2       1.0000 0.28570  0.50610  0.20940  Biso   1.000  H
  H3       1.0000 0.21430  0.00610  0.29060  Biso   1.000  H
  H4       1.0000 0.71430  0.50610  0.29060  Biso   1.000  H
  H5       1.0000 0.21430  0.99390  0.79060  Biso   1.000  H
  H6       1.0000 0.71430  0.49390  0.79060  Biso   1.000  H
  H7       1.0000 0.78570  0.99390  0.70940  Biso   1.000  H
  H8       1.0000 0.28570  0.49390  0.70940  Biso   1.000  H
  C9       1.0000 0.73399  0.16800  0.20014  Biso   1.000  C
  C10      1.0000 0.23399  0.66800  0.20014  Biso   1.000  C
  C11      1.0000 0.26601  0.16800  0.29986  Biso   1.000  C
  C12      1.0000 0.76601  0.66800  0.29986  Biso   1.000  C
  C13      1.0000 0.26601  0.83200  0.79986  Biso   1.000  C
  C14      1.0000 0.76601  0.33200  0.79986  Biso   1.000  C
  C15      1.0000 0.73399  0.83200  0.70014  Biso   1.000  C
  C16      1.0000 0.23399  0.33200  0.70014  Biso   1.000  C
  H9       1.0000 0.69890  0.12630  0.20170  Biso   1.000  H
  H10      1.0000 0.19890  0.62630  0.20170  Biso   1.000  H
  H11      1.0000 0.30110  0.12630  0.29830  Biso   1.000  H
  H12      1.0000 0.80110  0.62630  0.29830  Biso   1.000  H
  H13      1.0000 0.30110  0.87370  0.79830  Biso   1.000  H
  H14      1.0000 0.80110  0.37370  0.79830  Biso   1.000  H
  H15      1.0000 0.69890  0.87370  0.70170  Biso   1.000  H
  H16      1.0000 0.19890  0.37370  0.70170  Biso   1.000  H
  C17      1.0000 0.73400  0.30020  0.19300  Biso   1.000  C
  C18      1.0000 0.23400  0.80020  0.19300  Biso   1.000  C
  C19      1.0000 0.26600  0.30020  0.30700  Biso   1.000  C
  C20      1.0000 0.76600  0.80020  0.30700  Biso   1.000  C
  C21      1.0000 0.26600  0.69980  0.80700  Biso   1.000  C
  C22      1.0000 0.76600  0.19980  0.80700  Biso   1.000  C
  C23      1.0000 0.73400  0.69980  0.69300  Biso   1.000  C
  C24      1.0000 0.23400  0.19980  0.69300  Biso   1.000  C
  H17      1.0000 0.69900  0.35010  0.18980  Biso   1.000  H
  H18      1.0000 0.19900  0.85010  0.18980  Biso   1.000  H
  H19      1.0000 0.30100  0.35010  0.31020  Biso   1.000  H
  H20      1.0000 0.80100  0.85010  0.31020  Biso   1.000  H
  H21      1.0000 0.30100  0.64990  0.81020  Biso   1.000  H
  H22      1.0000 0.80100  0.14990  0.81020  Biso   1.000  H
  H23      1.0000 0.69900  0.64990  0.68980  Biso   1.000  H
  H24      1.0000 0.19900  0.14990  0.68980  Biso   1.000  H
  C25      1.0000 0.78640  0.35900  0.19050  Biso   1.000  C
  C26      1.0000 0.28640  0.85900  0.19050  Biso   1.000  C
  C27      1.0000 0.21360  0.35900  0.30950  Biso   1.000  C
  C28      1.0000 0.71360  0.85900  0.30950  Biso   1.000  C
  C29      1.0000 0.21360  0.64100  0.80950  Biso   1.000  C
  C30      1.0000 0.71360  0.14100  0.80950  Biso   1.000  C
  C31      1.0000 0.78640  0.64100  0.69050  Biso   1.000  C
  C32      1.0000 0.28640  0.14100  0.69050  Biso   1.000  C
  H25      1.0000 0.78720  0.44900  0.18480  Biso   1.000  H
  H26      1.0000 0.28720  0.94900  0.18480  Biso   1.000  H
  H27      1.0000 0.21280  0.44900  0.31520  Biso   1.000  H
  H28      1.0000 0.71280  0.94900  0.31520  Biso   1.000  H
  H29      1.0000 0.21280  0.55100  0.81520  Biso   1.000  H
  H30      1.0000 0.71280  0.05100  0.81520  Biso   1.000  H
  H31      1.0000 0.78720  0.55100  0.68480  Biso   1.000  H
  H32      1.0000 0.28720  0.05100  0.68480  Biso   1.000  H
  C33      1.0000 0.83783  0.28180  0.19661  Biso   1.000  C
  C34      1.0000 0.33783  0.78180  0.19661  Biso   1.000  C
  C35      1.0000 0.16217  0.28180  0.30339  Biso   1.000  C
  C36      1.0000 0.66217  0.78180  0.30339  Biso   1.000  C
  C37      1.0000 0.16217  0.71820  0.80339  Biso   1.000  C
  C38      1.0000 0.66217  0.21820  0.80339  Biso   1.000  C
  C39      1.0000 0.83783  0.71820  0.69661  Biso   1.000  C
  C40      1.0000 0.33783  0.21820  0.69661  Biso   1.000  C
  H33      1.0000 0.87350  0.32210  0.19560  Biso   1.000  H
  H34      1.0000 0.37350  0.82210  0.19560  Biso   1.000  H
  H35      1.0000 0.12650  0.32210  0.30440  Biso   1.000  H
  H36      1.0000 0.62650  0.82210  0.30440  Biso   1.000  H
  H37      1.0000 0.12650  0.67790  0.80440  Biso   1.000  H
  H38      1.0000 0.62650  0.17790  0.80440  Biso   1.000  H
  H39      1.0000 0.87350  0.67790  0.69560  Biso   1.000  H
  H40      1.0000 0.37350  0.17790  0.69560  Biso   1.000  H
  C41      1.0000 0.96411  0.58070  0.33592  Biso   1.000  C
  C42      1.0000 0.46411  0.08070  0.33592  Biso   1.000  C
  C43      1.0000 0.03589  0.58070  0.16408  Biso   1.000  C
  C44      1.0000 0.53589  0.08070  0.16408  Biso   1.000  C
  C45      1.0000 0.03589  0.41930  0.66408  Biso   1.000  C
  C46      1.0000 0.53589  0.91930  0.66408  Biso   1.000  C
  C47      1.0000 0.96411  0.41930  0.83592  Biso   1.000  C
  C48      1.0000 0.46411  0.91930  0.83592  Biso   1.000  C
  H41      1.0000 0.96870  0.56220  0.29880  Biso   1.000  H
  H42      1.0000 0.46870  0.06220  0.29880  Biso   1.000  H
  H43      1.0000 0.03130  0.56220  0.20120  Biso   1.000  H
  H44      1.0000 0.53130  0.06220  0.20120  Biso   1.000  H
  H45      1.0000 0.03130  0.43780  0.70120  Biso   1.000  H
  H46      1.0000 0.53130  0.93780  0.70120  Biso   1.000  H
  H47      1.0000 0.96870  0.43780  0.79880  Biso   1.000  H
  H48      1.0000 0.46870  0.93780  0.79880  Biso   1.000  H
  C49      1.0000 0.94336  0.48280  0.36357  Biso   1.000  C
  C50      1.0000 0.44336  0.98280  0.36357  Biso   1.000  C
  C51      1.0000 0.05664  0.48280  0.13643  Biso   1.000  C
  C52      1.0000 0.55664  0.98280  0.13643  Biso   1.000  C
  C53      1.0000 0.05664  0.51720  0.63643  Biso   1.000  C
  C54      1.0000 0.55664  0.01720  0.63643  Biso   1.000  C
  C55      1.0000 0.94336  0.51720  0.86357  Biso   1.000  C
  C56      1.0000 0.44336  0.01720  0.86357  Biso   1.000  C
  H49      1.0000 0.93430  0.39950  0.34560  Biso   1.000  H
  H50      1.0000 0.43430  0.89950  0.34560  Biso   1.000  H
  H51      1.0000 0.06570  0.39950  0.15440  Biso   1.000  H
  H52      1.0000 0.56570  0.89950  0.15440  Biso   1.000  H
  H53      1.0000 0.06570  0.60050  0.65440  Biso   1.000  H
  H54      1.0000 0.56570  0.10050  0.65440  Biso   1.000  H
  H55      1.0000 0.93430  0.60050  0.84560  Biso   1.000  H
  H56      1.0000 0.43430  0.10050  0.84560  Biso   1.000  H
  C57      1.0000 0.93630  0.51080  0.41830  Biso   1.000  C
  C58      1.0000 0.43630  0.01080  0.41830  Biso   1.000  C
  C59      1.0000 0.06370  0.51080  0.08170  Biso   1.000  C
  C60      1.0000 0.56370  0.01080  0.08170  Biso   1.000  C
  C61      1.0000 0.06370  0.48920  0.58170  Biso   1.000  C
  C62      1.0000 0.56370  0.98920  0.58170  Biso   1.000  C
  C63      1.0000 0.93630  0.48920  0.91830  Biso   1.000  C
  C64      1.0000 0.43630  0.98920  0.91830  Biso   1.000  C
  H57      1.0000 0.92150  0.44700  0.43740  Biso   1.000  H
  H58      1.0000 0.42150  0.94700  0.43740  Biso   1.000  H
  H59      1.0000 0.07850  0.44700  0.06260  Biso   1.000  H
  H60      1.0000 0.57850  0.94700  0.06260  Biso   1.000  H
  H61      1.0000 0.07850  0.55300  0.56260  Biso   1.000  H
  H62      1.0000 0.57850  0.05300  0.56260  Biso   1.000  H
  H63      1.0000 0.92150  0.55300  0.93740  Biso   1.000  H
  H64      1.0000 0.42150  0.05300  0.93740  Biso   1.000  H
  C65      1.0000 0.95130  0.63370  0.44463  Biso   1.000  C
  C66      1.0000 0.45130  0.13370  0.44463  Biso   1.000  C
  C67      1.0000 0.04870  0.63370  0.05537  Biso   1.000  C
  C68      1.0000 0.54870  0.13370  0.05537  Biso   1.000  C
  C69      1.0000 0.04870  0.36630  0.55537  Biso   1.000  C
  C70      1.0000 0.54870  0.86630  0.55537  Biso   1.000  C
  C71      1.0000 0.95130  0.36630  0.94463  Biso   1.000  C
  C72      1.0000 0.45130  0.86630  0.94463  Biso   1.000  C
  H65      1.0000 0.94760  0.65360  0.48210  Biso   1.000  H
  H66      1.0000 0.44760  0.15360  0.48210  Biso   1.000  H
  H67      1.0000 0.05240  0.65360  0.01790  Biso   1.000  H
  H68      1.0000 0.55240  0.15360  0.01790  Biso   1.000  H
  H69      1.0000 0.05240  0.34640  0.51790  Biso   1.000  H
  H70      1.0000 0.55240  0.84640  0.51790  Biso   1.000  H
  H71      1.0000 0.94760  0.34640  0.98210  Biso   1.000  H
  H72      1.0000 0.44760  0.84640  0.98210  Biso   1.000  H
  C73      1.0000 0.97167  0.72660  0.41471  Biso   1.000  C
  C74      1.0000 0.47167  0.22660  0.41471  Biso   1.000  C
  C75      1.0000 0.02833  0.72660  0.08529  Biso   1.000  C
  C76      1.0000 0.52833  0.22660  0.08529  Biso   1.000  C
  C77      1.0000 0.02833  0.27340  0.58529  Biso   1.000  C
  C78      1.0000 0.52833  0.77340  0.58529  Biso   1.000  C
  C79      1.0000 0.97167  0.27340  0.91471  Biso   1.000  C
  C80      1.0000 0.47167  0.77340  0.91471  Biso   1.000  C
  H73      1.0000 0.98160  0.80980  0.43260  Biso   1.000  H
  H74      1.0000 0.48160  0.30980  0.43260  Biso   1.000  H
  H75      1.0000 0.01840  0.80980  0.06740  Biso   1.000  H
  H76      1.0000 0.51840  0.30980  0.06740  Biso   1.000  H
  H77      1.0000 0.01840  0.19020  0.56740  Biso   1.000  H
  H78      1.0000 0.51840  0.69020  0.56740  Biso   1.000  H
  H79      1.0000 0.98160  0.19020  0.93260  Biso   1.000  H
  H80      1.0000 0.48160  0.69020  0.93260  Biso   1.000  H
  C81      1.0000 0.85610  0.90780  0.99620  Biso   1.000  C
  C82      1.0000 0.35610  0.40780  0.99620  Biso   1.000  C
  C83      1.0000 0.14390  0.90780  0.50380  Biso   1.000  C
  C84      1.0000 0.64390  0.40780  0.50380  Biso   1.000  C
  C85      1.0000 0.14390  0.09220  0.00380  Biso   1.000  C
  C86      1.0000 0.64390  0.59220  0.00380  Biso   1.000  C
  C87      1.0000 0.85610  0.09220  0.49620  Biso   1.000  C
  C88      1.0000 0.35610  0.59220  0.49620  Biso   1.000  C
  H81      1.0000 0.86250  0.93370  0.03700  Biso   1.000  H
  H82      1.0000 0.36250  0.43370  0.03700  Biso   1.000  H
  H83      1.0000 0.13750  0.93370  0.46300  Biso   1.000  H
  H84      1.0000 0.63750  0.43370  0.46300  Biso   1.000  H
  H85      1.0000 0.13750  0.06630  0.96300  Biso   1.000  H
  H86      1.0000 0.63750  0.56630  0.96300  Biso   1.000  H
  H87      1.0000 0.86250  0.06630  0.53700  Biso   1.000  H
  H88      1.0000 0.36250  0.56630  0.53700  Biso   1.000  H
  C89      1.0000 0.89370  0.96230  0.97000  Biso   1.000  C
  C90      1.0000 0.39370  0.46230  0.97000  Biso   1.000  C
  C91      1.0000 0.10630  0.96230  0.53000  Biso   1.000  C
  C92      1.0000 0.60630  0.46230  0.53000  Biso   1.000  C
  C93      1.0000 0.10630  0.03770  0.03000  Biso   1.000  C
  C94      1.0000 0.60630  0.53770  0.03000  Biso   1.000  C
  C95      1.0000 0.89370  0.03770  0.47000  Biso   1.000  C
  C96      1.0000 0.39370  0.53770  0.47000  Biso   1.000  C
  H89      1.0000 0.92510  0.02340  0.99290  Biso   1.000  H
  H90      1.0000 0.42510  0.52340  0.99290  Biso   1.000  H
  H91      1.0000 0.07490  0.02340  0.50710  Biso   1.000  H
  H92      1.0000 0.57490  0.52340  0.50710  Biso   1.000  H
  H93      1.0000 0.07490  0.97660  0.00710  Biso   1.000  H
  H94      1.0000 0.57490  0.47660  0.00710  Biso   1.000  H
  H95      1.0000 0.92510  0.97660  0.49290  Biso   1.000  H
  H96      1.0000 0.42510  0.47660  0.49290  Biso   1.000  H
  C97      1.0000 0.88459  0.92570  0.91000  Biso   1.000  C
  C98      1.0000 0.38459  0.42570  0.91000  Biso   1.000  C
  C99      1.0000 0.11541  0.92570  0.59000  Biso   1.000  C
  C100     1.0000 0.61541  0.42570  0.59000  Biso   1.000  C
  C101     1.0000 0.11541  0.07430  0.09000  Biso   1.000  C
  C102     1.0000 0.61541  0.57430  0.09000  Biso   1.000  C
  C103     1.0000 0.88459  0.07430  0.41000  Biso   1.000  C
  C104     1.0000 0.38459  0.57430  0.41000  Biso   1.000  C
  H97      1.0000 0.90830  0.96400  0.89060  Biso   1.000  H
  H98      1.0000 0.40830  0.46400  0.89060  Biso   1.000  H
  H99      1.0000 0.09170  0.96400  0.60940  Biso   1.000  H
  H100     1.0000 0.59170  0.46400  0.60940  Biso   1.000  H
  H101     1.0000 0.09170  0.03600  0.10940  Biso   1.000  H
  H102     1.0000 0.59170  0.53600  0.10940  Biso   1.000  H
  H103     1.0000 0.90830  0.03600  0.39060  Biso   1.000  H
  H104     1.0000 0.40830  0.53600  0.39060  Biso   1.000  H
  C105     1.0000 0.83970  0.83120  0.87900  Biso   1.000  C
  C106     1.0000 0.33970  0.33120  0.87900  Biso   1.000  C
  C107     1.0000 0.16030  0.83120  0.62100  Biso   1.000  C
  C108     1.0000 0.66030  0.33120  0.62100  Biso   1.000  C
  C109     1.0000 0.16030  0.16880  0.12100  Biso   1.000  C
  C110     1.0000 0.66030  0.66880  0.12100  Biso   1.000  C
  C111     1.0000 0.83970  0.16880  0.37900  Biso   1.000  C
  C112     1.0000 0.33970  0.66880  0.37900  Biso   1.000  C
  H105     1.0000 0.83390  0.80150  0.83880  Biso   1.000  H
  H106     1.0000 0.33390  0.30150  0.83880  Biso   1.000  H
  H107     1.0000 0.16610  0.80150  0.66120  Biso   1.000  H
  H108     1.0000 0.66610  0.30150  0.66120  Biso   1.000  H
  H109     1.0000 0.16610  0.19850  0.16120  Biso   1.000  H
  H110     1.0000 0.66610  0.69850  0.16120  Biso   1.000  H
  H111     1.0000 0.83390  0.19850  0.33880  Biso   1.000  H
  H112     1.0000 0.33390  0.69850  0.33880  Biso   1.000  H
  C113     1.0000 0.80360  0.78080  0.90760  Biso   1.000  C
  C114     1.0000 0.30360  0.28080  0.90760  Biso   1.000  C
  C115     1.0000 0.19640  0.78080  0.59240  Biso   1.000  C
  C116     1.0000 0.69640  0.28080  0.59240  Biso   1.000  C
  C117     1.0000 0.19640  0.21920  0.09240  Biso   1.000  C
  C118     1.0000 0.69640  0.71920  0.09240  Biso   1.000  C
  C119     1.0000 0.80360  0.21920  0.40760  Biso   1.000  C
  C120     1.0000 0.30360  0.71920  0.40760  Biso   1.000  C
  H113     1.0000 0.77300  0.71750  0.88590  Biso   1.000  H
  H114     1.0000 0.27300  0.21750  0.88590  Biso   1.000  H
  H115     1.0000 0.22700  0.71750  0.61410  Biso   1.000  H
  H116     1.0000 0.72700  0.21750  0.61410  Biso   1.000  H
  H117     1.0000 0.22700  0.28250  0.11410  Biso   1.000  H
  H118     1.0000 0.72700  0.78250  0.11410  Biso   1.000  H
  H119     1.0000 0.77300  0.28250  0.38590  Biso   1.000  H
  H120     1.0000 0.27300  0.78250  0.38590  Biso   1.000  H
  C121     1.0000 0.75870  0.47720  0.96230  Biso   1.000  C
  C122     1.0000 0.25870  0.97720  0.96230  Biso   1.000  C
  C123     1.0000 0.24130  0.47720  0.53770  Biso   1.000  C
  C124     1.0000 0.74130  0.97720  0.53770  Biso   1.000  C
  C125     1.0000 0.24130  0.52280  0.03770  Biso   1.000  C
  C126     1.0000 0.74130  0.02280  0.03770  Biso   1.000  C
  C127     1.0000 0.75870  0.52280  0.46230  Biso   1.000  C
  C128     1.0000 0.25870  0.02280  0.46230  Biso   1.000  C
  H121     1.0000 0.71980  0.49640  0.92790  Biso   1.000  H
  H122     1.0000 0.21980  0.99640  0.92790  Biso   1.000  H
  H123     1.0000 0.28020  0.49640  0.57210  Biso   1.000  H
  H124     1.0000 0.78020  0.99640  0.57210  Biso   1.000  H
  H125     1.0000 0.28020  0.50360  0.07210  Biso   1.000  H
  H126     1.0000 0.78020  0.00360  0.07210  Biso   1.000  H
  H127     1.0000 0.71980  0.50360  0.42790  Biso   1.000  H
  H128     1.0000 0.21980  0.00360  0.42790  Biso   1.000  H
  C129     1.0000 0.78367  0.35420  0.96659  Biso   1.000  C
  C130     1.0000 0.28367  0.85420  0.96659  Biso   1.000  C
  C131     1.0000 0.21633  0.35420  0.53341  Biso   1.000  C
  C132     1.0000 0.71633  0.85420  0.53341  Biso   1.000  C
  C133     1.0000 0.21633  0.64580  0.03341  Biso   1.000  C
  C134     1.0000 0.71633  0.14580  0.03341  Biso   1.000  C
  C135     1.0000 0.78367  0.64580  0.46659  Biso   1.000  C
  C136     1.0000 0.28367  0.14580  0.46659  Biso   1.000  C
  H129     1.0000 0.76200  0.29150  0.93570  Biso   1.000  H
  H130     1.0000 0.26200  0.79150  0.93570  Biso   1.000  H
  H131     1.0000 0.23800  0.29150  0.56430  Biso   1.000  H
  H132     1.0000 0.73800  0.79150  0.56430  Biso   1.000  H
  H133     1.0000 0.23800  0.70850  0.06430  Biso   1.000  H
  H134     1.0000 0.73800  0.20850  0.06430  Biso   1.000  H
  H135     1.0000 0.76200  0.70850  0.43570  Biso   1.000  H
  H136     1.0000 0.26200  0.20850  0.43570  Biso   1.000  H
  C137     1.0000 0.84100  0.32460  0.01690  Biso   1.000  C
  C138     1.0000 0.34100  0.82460  0.01690  Biso   1.000  C
  C139     1.0000 0.15900  0.32460  0.48310  Biso   1.000  C
  C140     1.0000 0.65900  0.82460  0.48310  Biso   1.000  C
  C141     1.0000 0.15900  0.67540  0.98310  Biso   1.000  C
  C142     1.0000 0.65900  0.17540  0.98310  Biso   1.000  C
  C143     1.0000 0.84100  0.67540  0.51690  Biso   1.000  C
  C144     1.0000 0.34100  0.17540  0.51690  Biso   1.000  C
  H137     1.0000 0.85880  0.24160  0.02100  Biso   1.000  H
  H138     1.0000 0.35880  0.74160  0.02100  Biso   1.000  H
  H139     1.0000 0.14120  0.24160  0.47900  Biso   1.000  H
  H140     1.0000 0.64120  0.74160  0.47900  Biso   1.000  H
  H141     1.0000 0.14120  0.75840  0.97900  Biso   1.000  H
  H142     1.0000 0.64120  0.25840  0.97900  Biso   1.000  H
  H143     1.0000 0.85880  0.75840  0.52100  Biso   1.000  H
  H144     1.0000 0.35880  0.25840  0.52100  Biso   1.000  H
  C145     1.0000 0.87130  0.41920  0.06080  Biso   1.000  C
  C146     1.0000 0.37130  0.91920  0.06080  Biso   1.000  C
  C147     1.0000 0.12870  0.41920  0.43920  Biso   1.000  C
  C148     1.0000 0.62870  0.91920  0.43920  Biso   1.000  C
  C149     1.0000 0.12870  0.58080  0.93920  Biso   1.000  C
  C150     1.0000 0.62870  0.08080  0.93920  Biso   1.000  C
  C151     1.0000 0.87130  0.58080  0.56080  Biso   1.000  C
  C152     1.0000 0.37130  0.08080  0.56080  Biso   1.000  C
  H145     1.0000 0.91010  0.40130  0.09560  Biso   1.000  H
  H146     1.0000 0.41010  0.90130  0.09560  Biso   1.000  H
  H147     1.0000 0.08990  0.40130  0.40440  Biso   1.000  H
  H148     1.0000 0.58990  0.90130  0.40440  Biso   1.000  H
  H149     1.0000 0.08990  0.59870  0.90440  Biso   1.000  H
  H150     1.0000 0.58990  0.09870  0.90440  Biso   1.000  H
  H151     1.0000 0.91010  0.59870  0.59560  Biso   1.000  H
  H152     1.0000 0.41010  0.09870  0.59560  Biso   1.000  H
  C153     1.0000 0.84410  0.54150  0.05350  Biso   1.000  C
  C154     1.0000 0.34410  0.04150  0.05350  Biso   1.000  C
  C155     1.0000 0.15590  0.54150  0.44650  Biso   1.000  C
  C156     1.0000 0.65590  0.04150  0.44650  Biso   1.000  C
  C157     1.0000 0.15590  0.45850  0.94650  Biso   1.000  C
  C158     1.0000 0.65590  0.95850  0.94650  Biso   1.000  C
  C159     1.0000 0.84410  0.45850  0.55350  Biso   1.000  C
  C160     1.0000 0.34410  0.95850  0.55350  Biso   1.000  C
  H153     1.0000 0.86580  0.60640  0.08310  Biso   1.000  H
  H154     1.0000 0.36580  0.10640  0.08310  Biso   1.000  H
  H155     1.0000 0.13420  0.60640  0.41690  Biso   1.000  H
  H156     1.0000 0.63420  0.10640  0.41690  Biso   1.000  H
  H157     1.0000 0.13420  0.39360  0.91690  Biso   1.000  H
  H158     1.0000 0.63420  0.89360  0.91690  Biso   1.000  H
  H159     1.0000 0.86580  0.39360  0.58310  Biso   1.000  H
  H160     1.0000 0.36580  0.89360  0.58310  Biso   1.000  H
  N1       1.0000 0.83870  0.15220  0.20385  Biso   1.000  N
  N2       1.0000 0.33870  0.65220  0.20385  Biso   1.000  N
  N3       1.0000 0.16130  0.15220  0.29615  Biso   1.000  N
  N4       1.0000 0.66130  0.65220  0.29615  Biso   1.000  N
  N5       1.0000 0.16130  0.84780  0.79615  Biso   1.000  N
  N6       1.0000 0.66130  0.34780  0.79615  Biso   1.000  N
  N7       1.0000 0.83870  0.84780  0.70385  Biso   1.000  N
  N8       1.0000 0.33870  0.34780  0.70385  Biso   1.000  N
  N9       1.0000 0.97790  0.70200  0.36079  Biso   1.000  N
  N10      1.0000 0.47790  0.20200  0.36079  Biso   1.000  N
  N11      1.0000 0.02210  0.70200  0.13921  Biso   1.000  N
  N12      1.0000 0.52210  0.20200  0.13921  Biso   1.000  N
  N13      1.0000 0.02210  0.29800  0.63921  Biso   1.000  N
  N14      1.0000 0.52210  0.79800  0.63921  Biso   1.000  N
  N15      1.0000 0.97790  0.29800  0.86079  Biso   1.000  N
  N16      1.0000 0.47790  0.79800  0.86079  Biso   1.000  N
  N17      1.0000 0.81059  0.81900  0.96528  Biso   1.000  N
  N18      1.0000 0.31059  0.31900  0.96528  Biso   1.000  N
  N19      1.0000 0.18941  0.81900  0.53472  Biso   1.000  N
  N20      1.0000 0.68941  0.31900  0.53472  Biso   1.000  N
  N21      1.0000 0.18941  0.18100  0.03472  Biso   1.000  N
  N22      1.0000 0.68941  0.68100  0.03472  Biso   1.000  N
  N23      1.0000 0.81059  0.18100  0.46528  Biso   1.000  N
  N24      1.0000 0.31059  0.68100  0.46528  Biso   1.000  N
  N25      1.0000 0.78739  0.57010  0.00497  Biso   1.000  N
  N26      1.0000 0.28739  0.07010  0.00497  Biso   1.000  N
  N27      1.0000 0.21261  0.57010  0.49503  Biso   1.000  N
  N28      1.0000 0.71261  0.07010  0.49503  Biso   1.000  N
  N29      1.0000 0.21261  0.42990  0.99503  Biso   1.000  N
  N30      1.0000 0.71261  0.92990  0.99503  Biso   1.000  N
  N31      1.0000 0.78739  0.42990  0.50497  Biso   1.000  N
  N32      1.0000 0.28739  0.92990  0.50497  Biso   1.000  N
  O1       1.0000 0.92626  0.13040  0.14571  Biso   1.000  O
  O2       1.0000 0.42626  0.63040  0.14571  Biso   1.000  O
  O3       1.0000 0.07374  0.13040  0.35429  Biso   1.000  O
  O4       1.0000 0.57374  0.63040  0.35429  Biso   1.000  O
  O5       1.0000 0.07374  0.86960  0.85429  Biso   1.000  O
  O6       1.0000 0.57374  0.36960  0.85429  Biso   1.000  O
  O7       1.0000 0.92626  0.86960  0.64571  Biso   1.000  O
  O8       1.0000 0.42626  0.36960  0.64571  Biso   1.000  O
  O9       1.0000 0.99597  0.97900  0.12643  Biso   1.000  O
  O10      1.0000 0.49597  0.47900  0.12643  Biso   1.000  O
  O11      1.0000 0.00403  0.97900  0.37357  Biso   1.000  O
  O12      1.0000 0.50403  0.47900  0.37357  Biso   1.000  O
  O13      1.0000 0.00403  0.02100  0.87357  Biso   1.000  O
  O14      1.0000 0.50403  0.52100  0.87357  Biso   1.000  O
  O15      1.0000 0.99597  0.02100  0.62643  Biso   1.000  O
  O16      1.0000 0.49597  0.52100  0.62643  Biso   1.000  O
  O17      1.0000 0.97751  0.19230  0.07893  Biso   1.000  O
  O18      1.0000 0.47751  0.69230  0.07893  Biso   1.000  O
  O19      1.0000 0.02249  0.19230  0.42107  Biso   1.000  O
  O20      1.0000 0.52249  0.69230  0.42107  Biso   1.000  O
  O21      1.0000 0.02249  0.80770  0.92107  Biso   1.000  O
  O22      1.0000 0.52249  0.30770  0.92107  Biso   1.000  O
  O23      1.0000 0.97751  0.80770  0.57893  Biso   1.000  O
  O24      1.0000 0.47751  0.30770  0.57893  Biso   1.000  O
  O25      1.0000 0.04044  0.16750  0.19239  Biso   1.000  O
  O26      1.0000 0.54044  0.66750  0.19239  Biso   1.000  O
  O27      1.0000 0.95956  0.16750  0.30761  Biso   1.000  O
  O28      1.0000 0.45956  0.66750  0.30761  Biso   1.000  O
  O29      1.0000 0.95956  0.83250  0.80761  Biso   1.000  O
  O30      1.0000 0.45956  0.33250  0.80761  Biso   1.000  O
  O31      1.0000 0.04044  0.83250  0.69239  Biso   1.000  O
  O32      1.0000 0.54044  0.33250  0.69239  Biso   1.000  O
  O33      1.0000 0.88132  0.87760  0.23535  Biso   1.000  O
  O34      1.0000 0.38132  0.37760  0.23535  Biso   1.000  O
  O35      1.0000 0.11868  0.87760  0.26465  Biso   1.000  O
  O36      1.0000 0.61868  0.37760  0.26465  Biso   1.000  O
  O37      1.0000 0.11868  0.12240  0.76465  Biso   1.000  O
  O38      1.0000 0.61868  0.62240  0.76465  Biso   1.000  O
  O39      1.0000 0.88132  0.12240  0.73535  Biso   1.000  O
  O40      1.0000 0.38132  0.62240  0.73535  Biso   1.000  O
  O41      1.0000 0.93595  0.72060  0.19969  Biso   1.000  O
  O42      1.0000 0.43595  0.22060  0.19969  Biso   1.000  O
  O43      1.0000 0.06405  0.72060  0.30031  Biso   1.000  O
  O44      1.0000 0.56405  0.22060  0.30031  Biso   1.000  O
  O45      1.0000 0.06405  0.27940  0.80031  Biso   1.000  O
  O46      1.0000 0.56405  0.77940  0.80031  Biso   1.000  O
  O47      1.0000 0.93595  0.27940  0.69969  Biso   1.000  O
  O48      1.0000 0.43595  0.77940  0.69969  Biso   1.000  O
  O49      1.0000 0.83852  0.81930  0.12379  Biso   1.000  O
  O50      1.0000 0.33852  0.31930  0.12379  Biso   1.000  O
  O51      1.0000 0.16148  0.81930  0.37621  Biso   1.000  O
  O52      1.0000 0.66148  0.31930  0.37621  Biso   1.000  O
  O53      1.0000 0.16148  0.18070  0.87621  Biso   1.000  O
  O54      1.0000 0.66148  0.68070  0.87621  Biso   1.000  O
  O55      1.0000 0.83852  0.18070  0.62379  Biso   1.000  O
  O56      1.0000 0.33852  0.68070  0.62379  Biso   1.000  O
  O57      1.0000 0.83599  0.66390  0.20107  Biso   1.000  O
  O58      1.0000 0.33599  0.16390  0.20107  Biso   1.000  O
  O59      1.0000 0.16401  0.66390  0.29893  Biso   1.000  O
  O60      1.0000 0.66401  0.16390  0.29893  Biso   1.000  O
  O61      1.0000 0.16401  0.33610  0.79893  Biso   1.000  O
  O62      1.0000 0.66401  0.83610  0.79893  Biso   1.000  O
  O63      1.0000 0.83599  0.33610  0.70107  Biso   1.000  O
  O64      1.0000 0.33599  0.83610  0.70107  Biso   1.000  O
  O65      1.0000 0.50000  0.54090  0.75000  Biso   1.000  O
  O66      1.0000 0.00000  0.04090  0.75000  Biso   1.000  O
  O67      1.0000 0.50000  0.45910  0.25000  Biso   1.000  O
  O68      1.0000 0.00000  0.95910  0.25000  Biso   1.000  O
  S1       1.0000 0.98503  0.11996  0.13540  Biso   1.000  S
  S2       1.0000 0.48503  0.61996  0.13540  Biso   1.000  S
  S3       1.0000 0.01497  0.11996  0.36460  Biso   1.000  S
  S4       1.0000 0.51497  0.61996  0.36460  Biso   1.000  S
  S5       1.0000 0.01497  0.88004  0.86460  Biso   1.000  S
  S6       1.0000 0.51497  0.38004  0.86460  Biso   1.000  S
  S7       1.0000 0.98503  0.88004  0.63540  Biso   1.000  S
  S8       1.0000 0.48503  0.38004  0.63540  Biso   1.000  S
  S9       1.0000 0.87076  0.76830  0.18858  Biso   1.000  S
  S10      1.0000 0.37076  0.26830  0.18858  Biso   1.000  S
  S11      1.0000 0.12924  0.76830  0.31142  Biso   1.000  S
  S12      1.0000 0.62924  0.26830  0.31142  Biso   1.000  S
  S13      1.0000 0.12924  0.23170  0.81142  Biso   1.000  S
  S14      1.0000 0.62924  0.73170  0.81142  Biso   1.000  S
  S15      1.0000 0.87076  0.23170  0.68858  Biso   1.000  S
  S16      1.0000 0.37076  0.73170  0.68858  Biso   1.000  S
  Cu1      1.0000 0.92034  0.05448  0.22397  Biso   1.000  Cu
  Cu2      1.0000 0.42034  0.55448  0.22397  Biso   1.000  Cu
  Cu3      1.0000 0.07966  0.05448  0.27603  Biso   1.000  Cu
  Cu4      1.0000 0.57966  0.55448  0.27603  Biso   1.000  Cu
  Cu5      1.0000 0.07966  0.94552  0.77603  Biso   1.000  Cu
  Cu6      1.0000 0.57966  0.44552  0.77603  Biso   1.000  Cu
  Cu7      1.0000 0.92034  0.94552  0.72397  Biso   1.000  Cu
  Cu8      1.0000 0.42034  0.44552  0.72397  Biso   1.000  Cu
  Cu9      1.0000 0.00070  0.83829  0.31366  Biso   1.000  Cu
  Cu10     1.0000 0.50070  0.33829  0.31366  Biso   1.000  Cu
  Cu11     1.0000 0.99930  0.83829  0.18634  Biso   1.000  Cu
  Cu12     1.0000 0.49930  0.33829  0.18634  Biso   1.000  Cu
  Cu13     1.0000 0.99930  0.16171  0.68634  Biso   1.000  Cu
  Cu14     1.0000 0.49930  0.66171  0.68634  Biso   1.000  Cu
  Cu15     1.0000 0.00070  0.16171  0.81366  Biso   1.000  Cu
  Cu16     1.0000 0.50070  0.66171  0.81366  Biso   1.000  Cu
  Cu17     1.0000 0.75000  0.75000  0.00000  Biso   1.000  Cu
  Cu18     1.0000 0.25000  0.25000  0.00000  Biso   1.000  Cu
  Cu19     1.0000 0.25000  0.75000  0.50000  Biso   1.000  Cu
  Cu20     1.0000 0.75000  0.25000  0.50000  Biso   1.000  Cu
