data_image0
_cell_length_a       14.542
_cell_length_b       16.359
_cell_length_c       18.951
_cell_angle_alpha    90
_cell_angle_beta     92.047
_cell_angle_gamma    90

_symmetry_space_group_name_H-M    "P 1"
_symmetry_int_tables_number       1

loop_
  _symmetry_equiv_pos_as_xyz
  'x, y, z'

loop_
  _atom_site_label
  _atom_site_occupancy
  _atom_site_fract_x
  _atom_site_fract_y
  _atom_site_fract_z
  _atom_site_thermal_displace_type
  _atom_site_B_iso_or_equiv
  _atom_site_type_symbol
  C1       1.0000 0.21700  0.18980  0.05510  Biso   1.000  C
  C2       1.0000 0.28300  0.68980  0.44490  Biso   1.000  C
  C3       1.0000 0.78300  0.81020  0.94490  Biso   1.000  C
  C4       1.0000 0.71700  0.31020  0.55510  Biso   1.000  C
  H1       1.0000 0.26740  0.19480  0.08630  Biso   1.000  H
  H2       1.0000 0.23260  0.69480  0.41370  Biso   1.000  H
  H3       1.0000 0.73260  0.80520  0.91370  Biso   1.000  H
  H4       1.0000 0.76740  0.30520  0.58630  Biso   1.000  H
  C5       1.0000 0.23210  0.17800  0.98410  Biso   1.000  C
  C6       1.0000 0.26790  0.67800  0.51590  Biso   1.000  C
  C7       1.0000 0.76790  0.82200  0.01590  Biso   1.000  C
  C8       1.0000 0.73210  0.32200  0.48410  Biso   1.000  C
  H5       1.0000 0.29170  0.17460  0.96810  Biso   1.000  H
  H6       1.0000 0.20830  0.67460  0.53190  Biso   1.000  H
  H7       1.0000 0.70830  0.82540  0.03190  Biso   1.000  H
  H8       1.0000 0.79170  0.32540  0.46810  Biso   1.000  H
  C9       1.0000 0.16020  0.17160  0.93900  Biso   1.000  C
  C10      1.0000 0.33980  0.67160  0.56100  Biso   1.000  C
  C11      1.0000 0.83980  0.82840  0.06100  Biso   1.000  C
  C12      1.0000 0.66020  0.32840  0.43900  Biso   1.000  C
  H9       1.0000 0.16930  0.16410  0.89110  Biso   1.000  H
  H10      1.0000 0.33070  0.66410  0.60890  Biso   1.000  H
  H11      1.0000 0.83070  0.83590  0.10890  Biso   1.000  H
  H12      1.0000 0.66930  0.33590  0.39110  Biso   1.000  H
  C13      1.0000 0.07320  0.17610  0.96320  Biso   1.000  C
  C14      1.0000 0.42680  0.67610  0.53680  Biso   1.000  C
  C15      1.0000 0.92680  0.82390  0.03680  Biso   1.000  C
  C16      1.0000 0.57320  0.32390  0.46320  Biso   1.000  C
  H13      1.0000 0.02220  0.17150  0.93250  Biso   1.000  H
  H14      1.0000 0.47780  0.67150  0.56750  Biso   1.000  H
  H15      1.0000 0.97780  0.82850  0.06750  Biso   1.000  H
  H16      1.0000 0.52220  0.32850  0.43250  Biso   1.000  H
  C17      1.0000 0.06290  0.18770  0.03460  Biso   1.000  C
  C18      1.0000 0.43710  0.68770  0.46540  Biso   1.000  C
  C19      1.0000 0.93710  0.81230  0.96540  Biso   1.000  C
  C20      1.0000 0.56290  0.31230  0.53460  Biso   1.000  C
  H17      1.0000 0.00370  0.19090  0.05150  Biso   1.000  H
  H18      1.0000 0.49630  0.69090  0.44850  Biso   1.000  H
  H19      1.0000 0.99630  0.80910  0.94850  Biso   1.000  H
  H20      1.0000 0.50370  0.30910  0.55150  Biso   1.000  H
  C21      1.0000 0.02600  0.99027  0.39874  Biso   1.000  C
  C22      1.0000 0.47400  0.49027  0.10126  Biso   1.000  C
  C23      1.0000 0.97400  0.00973  0.60126  Biso   1.000  C
  C24      1.0000 0.52600  0.50973  0.89874  Biso   1.000  C
  H21      1.0000 0.98470  0.02500  0.42010  Biso   1.000  H
  H22      1.0000 0.51530  0.52500  0.07990  Biso   1.000  H
  H23      1.0000 0.01530  0.97500  0.57990  Biso   1.000  H
  H24      1.0000 0.48470  0.47500  0.92010  Biso   1.000  H
  C25      1.0000 0.02530  0.90890  0.41553  Biso   1.000  C
  C26      1.0000 0.47470  0.40890  0.08447  Biso   1.000  C
  C27      1.0000 0.97470  0.09110  0.58447  Biso   1.000  C
  C28      1.0000 0.52530  0.59110  0.91553  Biso   1.000  C
  H25      1.0000 0.98470  0.88910  0.44830  Biso   1.000  H
  H26      1.0000 0.51530  0.38910  0.05170  Biso   1.000  H
  H27      1.0000 0.01530  0.11090  0.55170  Biso   1.000  H
  H28      1.0000 0.48470  0.61090  0.94830  Biso   1.000  H
  C29      1.0000 0.08460  0.85700  0.38388  Biso   1.000  C
  C30      1.0000 0.41540  0.35700  0.11612  Biso   1.000  C
  C31      1.0000 0.91540  0.14300  0.61612  Biso   1.000  C
  C32      1.0000 0.58460  0.64300  0.88388  Biso   1.000  C
  H29      1.0000 0.08420  0.80140  0.39400  Biso   1.000  H
  H30      1.0000 0.41580  0.30140  0.10600  Biso   1.000  H
  H31      1.0000 0.91580  0.19860  0.60600  Biso   1.000  H
  H32      1.0000 0.58420  0.69860  0.89400  Biso   1.000  H
  C33      1.0000 0.14520  0.88880  0.33641  Biso   1.000  C
  C34      1.0000 0.35480  0.38880  0.16359  Biso   1.000  C
  C35      1.0000 0.85480  0.11120  0.66359  Biso   1.000  C
  C36      1.0000 0.64520  0.61120  0.83641  Biso   1.000  C
  H33      1.0000 0.18680  0.85500  0.31430  Biso   1.000  H
  H34      1.0000 0.31320  0.35500  0.18570  Biso   1.000  H
  H35      1.0000 0.81320  0.14500  0.68570  Biso   1.000  H
  H36      1.0000 0.68680  0.64500  0.81430  Biso   1.000  H
  C37      1.0000 0.14270  0.97090  0.32270  Biso   1.000  C
  C38      1.0000 0.35730  0.47090  0.17730  Biso   1.000  C
  C39      1.0000 0.85730  0.02910  0.67730  Biso   1.000  C
  C40      1.0000 0.64270  0.52910  0.82270  Biso   1.000  C
  H37      1.0000 0.18390  0.99230  0.29110  Biso   1.000  H
  H38      1.0000 0.31610  0.49230  0.20890  Biso   1.000  H
  H39      1.0000 0.81610  0.00770  0.70890  Biso   1.000  H
  H40      1.0000 0.68390  0.50770  0.79110  Biso   1.000  H
  C41      1.0000 0.29790  0.43280  0.37450  Biso   1.000  C
  C42      1.0000 0.20210  0.93280  0.12550  Biso   1.000  C
  C43      1.0000 0.70210  0.56720  0.62550  Biso   1.000  C
  C44      1.0000 0.79790  0.06720  0.87450  Biso   1.000  C
  H41      1.0000 0.29440  0.44540  0.32660  Biso   1.000  H
  H42      1.0000 0.20560  0.94540  0.17340  Biso   1.000  H
  H43      1.0000 0.70560  0.55460  0.67340  Biso   1.000  H
  H44      1.0000 0.79440  0.05460  0.82660  Biso   1.000  H
  C45      1.0000 0.36320  0.47230  0.41690  Biso   1.000  C
  C46      1.0000 0.13680  0.97230  0.08310  Biso   1.000  C
  C47      1.0000 0.63680  0.52770  0.58310  Biso   1.000  C
  C48      1.0000 0.86320  0.02770  0.91690  Biso   1.000  C
  H45      1.0000 0.40350  0.50970  0.39780  Biso   1.000  H
  H46      1.0000 0.09650  0.00970  0.10220  Biso   1.000  H
  H47      1.0000 0.59650  0.49030  0.60220  Biso   1.000  H
  H48      1.0000 0.90350  0.99030  0.89780  Biso   1.000  H
  C49      1.0000 0.36720  0.45510  0.48720  Biso   1.000  C
  C50      1.0000 0.13280  0.95510  0.01280  Biso   1.000  C
  C51      1.0000 0.63280  0.54490  0.51280  Biso   1.000  C
  C52      1.0000 0.86720  0.04490  0.98720  Biso   1.000  C
  H49      1.0000 0.40920  0.48190  0.51740  Biso   1.000  H
  H50      1.0000 0.09080  0.98190  0.98260  Biso   1.000  H
  H51      1.0000 0.59080  0.51810  0.48260  Biso   1.000  H
  H52      1.0000 0.90920  0.01810  0.01740  Biso   1.000  H
  C53      1.0000 0.30900  0.39840  0.51250  Biso   1.000  C
  C54      1.0000 0.19100  0.89840  0.98750  Biso   1.000  C
  C55      1.0000 0.69100  0.60160  0.48750  Biso   1.000  C
  C56      1.0000 0.80900  0.10160  0.01250  Biso   1.000  C
  H53      1.0000 0.31150  0.38450  0.56020  Biso   1.000  H
  H54      1.0000 0.18850  0.88450  0.93980  Biso   1.000  H
  H55      1.0000 0.68850  0.61550  0.43980  Biso   1.000  H
  H56      1.0000 0.81150  0.11550  0.06020  Biso   1.000  H
  C57      1.0000 0.24640  0.36180  0.46720  Biso   1.000  C
  C58      1.0000 0.25360  0.86180  0.03280  Biso   1.000  C
  C59      1.0000 0.75360  0.63820  0.53280  Biso   1.000  C
  C60      1.0000 0.74640  0.13820  0.96720  Biso   1.000  C
  H57      1.0000 0.20630  0.32350  0.48540  Biso   1.000  H
  H58      1.0000 0.29370  0.82350  0.01460  Biso   1.000  H
  H59      1.0000 0.79370  0.67650  0.51460  Biso   1.000  H
  H60      1.0000 0.70630  0.17650  0.98540  Biso   1.000  H
  C61      1.0000 0.74920  0.26850  0.23850  Biso   1.000  C
  C62      1.0000 0.75080  0.76850  0.26150  Biso   1.000  C
  C63      1.0000 0.25080  0.73150  0.76150  Biso   1.000  C
  C64      1.0000 0.24920  0.23150  0.73850  Biso   1.000  C
  H61      1.0000 0.76240  0.21320  0.23370  Biso   1.000  H
  H62      1.0000 0.73760  0.71320  0.26630  Biso   1.000  H
  H63      1.0000 0.23760  0.78680  0.76630  Biso   1.000  H
  H64      1.0000 0.26240  0.28680  0.73370  Biso   1.000  H
  C65      1.0000 0.65910  0.29350  0.23340  Biso   1.000  C
  C66      1.0000 0.84090  0.79350  0.26660  Biso   1.000  C
  C67      1.0000 0.34090  0.70650  0.76660  Biso   1.000  C
  C68      1.0000 0.15910  0.20650  0.73340  Biso   1.000  C
  H65      1.0000 0.61240  0.25520  0.22630  Biso   1.000  H
  H66      1.0000 0.88760  0.75520  0.27370  Biso   1.000  H
  H67      1.0000 0.38760  0.74480  0.77370  Biso   1.000  H
  H68      1.0000 0.11240  0.24480  0.72630  Biso   1.000  H
  C69      1.0000 0.63840  0.37340  0.23870  Biso   1.000  C
  C70      1.0000 0.86160  0.87340  0.26130  Biso   1.000  C
  C71      1.0000 0.36160  0.62660  0.76130  Biso   1.000  C
  C72      1.0000 0.13840  0.12660  0.73870  Biso   1.000  C
  H69      1.0000 0.57780  0.39130  0.23490  Biso   1.000  H
  H70      1.0000 0.92220  0.89130  0.26510  Biso   1.000  H
  H71      1.0000 0.42220  0.60870  0.76510  Biso   1.000  H
  H72      1.0000 0.07780  0.10870  0.73490  Biso   1.000  H
  C73      1.0000 0.70770  0.42630  0.24970  Biso   1.000  C
  C74      1.0000 0.79230  0.92630  0.25030  Biso   1.000  C
  C75      1.0000 0.29230  0.57370  0.75030  Biso   1.000  C
  C76      1.0000 0.20770  0.07370  0.74970  Biso   1.000  C
  H73      1.0000 0.69550  0.48190  0.25350  Biso   1.000  H
  H74      1.0000 0.80450  0.98190  0.24650  Biso   1.000  H
  H75      1.0000 0.30450  0.51810  0.74650  Biso   1.000  H
  H76      1.0000 0.19550  0.01810  0.75350  Biso   1.000  H
  C77      1.0000 0.79740  0.39830  0.25540  Biso   1.000  C
  C78      1.0000 0.70260  0.89830  0.24460  Biso   1.000  C
  C79      1.0000 0.20260  0.60170  0.74460  Biso   1.000  C
  C80      1.0000 0.29740  0.10170  0.75540  Biso   1.000  C
  H77      1.0000 0.84460  0.43590  0.26340  Biso   1.000  H
  H78      1.0000 0.65540  0.93590  0.23660  Biso   1.000  H
  H79      1.0000 0.15540  0.56410  0.73660  Biso   1.000  H
  H80      1.0000 0.34460  0.06410  0.76340  Biso   1.000  H
  C81      1.0000 0.82430  0.60410  0.14736  Biso   1.000  C
  C82      1.0000 0.67570  0.10410  0.35264  Biso   1.000  C
  C83      1.0000 0.17570  0.39590  0.85264  Biso   1.000  C
  C84      1.0000 0.32430  0.89590  0.64736  Biso   1.000  C
  H81      1.0000 0.83190  0.60420  0.19630  Biso   1.000  H
  H82      1.0000 0.66810  0.10420  0.30370  Biso   1.000  H
  H83      1.0000 0.16810  0.39580  0.80370  Biso   1.000  H
  H84      1.0000 0.33190  0.89580  0.69630  Biso   1.000  H
  C85      1.0000 0.73650  0.61290  0.11770  Biso   1.000  C
  C86      1.0000 0.76350  0.11290  0.38230  Biso   1.000  C
  C87      1.0000 0.26350  0.38710  0.88230  Biso   1.000  C
  C88      1.0000 0.23650  0.88710  0.61770  Biso   1.000  C
  H85      1.0000 0.68610  0.61840  0.14630  Biso   1.000  H
  H86      1.0000 0.81390  0.11840  0.35370  Biso   1.000  H
  H87      1.0000 0.31390  0.38160  0.85370  Biso   1.000  H
  H88      1.0000 0.18610  0.88160  0.64630  Biso   1.000  H
  C89      1.0000 0.72510  0.61340  0.04660  Biso   1.000  C
  C90      1.0000 0.77490  0.11340  0.45340  Biso   1.000  C
  C91      1.0000 0.27490  0.38660  0.95340  Biso   1.000  C
  C92      1.0000 0.22510  0.88660  0.54660  Biso   1.000  C
  H89      1.0000 0.66680  0.62100  0.02570  Biso   1.000  H
  H90      1.0000 0.83320  0.12100  0.47430  Biso   1.000  H
  H91      1.0000 0.33320  0.37900  0.97430  Biso   1.000  H
  H92      1.0000 0.16680  0.87900  0.52570  Biso   1.000  H
  C93      1.0000 0.79940  0.60270  0.00560  Biso   1.000  C
  C94      1.0000 0.70060  0.10270  0.49440  Biso   1.000  C
  C95      1.0000 0.20060  0.39730  0.99440  Biso   1.000  C
  C96      1.0000 0.29940  0.89730  0.50560  Biso   1.000  C
  H93      1.0000 0.79260  0.60170  0.95660  Biso   1.000  H
  H94      1.0000 0.70740  0.10170  0.54340  Biso   1.000  H
  H95      1.0000 0.20740  0.39830  0.04340  Biso   1.000  H
  H96      1.0000 0.29260  0.89830  0.45660  Biso   1.000  H
  C97      1.0000 0.88480  0.59330  0.03846  Biso   1.000  C
  C98      1.0000 0.61520  0.09330  0.46154  Biso   1.000  C
  C99      1.0000 0.11520  0.40670  0.96154  Biso   1.000  C
  C100     1.0000 0.38480  0.90670  0.53846  Biso   1.000  C
  H97      1.0000 0.93530  0.58530  0.01050  Biso   1.000  H
  H98      1.0000 0.56470  0.08530  0.48950  Biso   1.000  H
  H99      1.0000 0.06470  0.41470  0.98950  Biso   1.000  H
  H100     1.0000 0.43530  0.91470  0.51050  Biso   1.000  H
  C101     1.0000 0.90880  0.56960  0.38470  Biso   1.000  C
  C102     1.0000 0.59120  0.06960  0.11530  Biso   1.000  C
  C103     1.0000 0.09120  0.43040  0.61530  Biso   1.000  C
  C104     1.0000 0.40880  0.93040  0.88470  Biso   1.000  C
  H101     1.0000 0.90460  0.56160  0.43460  Biso   1.000  H
  H102     1.0000 0.59540  0.06160  0.06540  Biso   1.000  H
  H103     1.0000 0.09540  0.43840  0.56540  Biso   1.000  H
  H104     1.0000 0.40460  0.93840  0.93460  Biso   1.000  H
  H105     1.0000 0.87180  0.52960  0.35990  Biso   1.000  H
  H106     1.0000 0.62820  0.02960  0.14010  Biso   1.000  H
  H107     1.0000 0.12820  0.47040  0.64010  Biso   1.000  H
  H108     1.0000 0.37180  0.97040  0.85990  Biso   1.000  H
  H109     1.0000 0.88720  0.62340  0.37240  Biso   1.000  H
  H110     1.0000 0.61280  0.12340  0.12760  Biso   1.000  H
  H111     1.0000 0.11280  0.37660  0.62760  Biso   1.000  H
  H112     1.0000 0.38720  0.87660  0.87240  Biso   1.000  H
  C105     1.0000 0.07110  0.54080  0.42140  Biso   1.000  C
  C106     1.0000 0.42890  0.04080  0.07860  Biso   1.000  C
  C107     1.0000 0.92890  0.45920  0.57860  Biso   1.000  C
  C108     1.0000 0.57110  0.95920  0.92140  Biso   1.000  C
  H113     1.0000 0.04070  0.53720  0.46540  Biso   1.000  H
  H114     1.0000 0.45930  0.03720  0.03460  Biso   1.000  H
  H115     1.0000 0.95930  0.46280  0.53460  Biso   1.000  H
  H116     1.0000 0.54070  0.96280  0.96540  Biso   1.000  H
  H117     1.0000 0.11740  0.58250  0.42450  Biso   1.000  H
  H118     1.0000 0.38260  0.08250  0.07550  Biso   1.000  H
  H119     1.0000 0.88260  0.41750  0.57550  Biso   1.000  H
  H120     1.0000 0.61740  0.91750  0.92450  Biso   1.000  H
  H121     1.0000 0.09920  0.48920  0.41130  Biso   1.000  H
  H122     1.0000 0.40080  0.98920  0.08870  Biso   1.000  H
  H123     1.0000 0.90080  0.51080  0.58870  Biso   1.000  H
  H124     1.0000 0.59920  0.01080  0.91130  Biso   1.000  H
  C109     1.0000 0.02950  0.56904  0.30035  Biso   1.000  C
  C110     1.0000 0.47050  0.06904  0.19965  Biso   1.000  C
  C111     1.0000 0.97050  0.43096  0.69965  Biso   1.000  C
  C112     1.0000 0.52950  0.93096  0.80035  Biso   1.000  C
  H125     1.0000 0.09170  0.56310  0.29180  Biso   1.000  H
  H126     1.0000 0.40830  0.06310  0.20820  Biso   1.000  H
  H127     1.0000 0.90830  0.43690  0.70820  Biso   1.000  H
  H128     1.0000 0.59170  0.93690  0.79180  Biso   1.000  H
  C113     1.0000 0.13240  0.65440  0.92940  Biso   1.000  C
  C114     1.0000 0.36760  0.15440  0.57060  Biso   1.000  C
  C115     1.0000 0.86760  0.34560  0.07060  Biso   1.000  C
  C116     1.0000 0.63240  0.84560  0.42940  Biso   1.000  C
  H129     1.0000 0.16900  0.66500  0.88920  Biso   1.000  H
  H130     1.0000 0.33100  0.16500  0.61080  Biso   1.000  H
  H131     1.0000 0.83100  0.33500  0.11080  Biso   1.000  H
  H132     1.0000 0.66900  0.83500  0.38920  Biso   1.000  H
  H133     1.0000 0.10340  0.70420  0.94370  Biso   1.000  H
  H134     1.0000 0.39660  0.20420  0.55630  Biso   1.000  H
  H135     1.0000 0.89660  0.29580  0.05630  Biso   1.000  H
  H136     1.0000 0.60340  0.79580  0.44370  Biso   1.000  H
  H137     1.0000 0.08610  0.61460  0.91710  Biso   1.000  H
  H138     1.0000 0.41390  0.11460  0.58290  Biso   1.000  H
  H139     1.0000 0.91390  0.38540  0.08290  Biso   1.000  H
  H140     1.0000 0.58610  0.88540  0.41710  Biso   1.000  H
  C117     1.0000 0.28830  0.61200  0.97300  Biso   1.000  C
  C118     1.0000 0.21170  0.11200  0.52700  Biso   1.000  C
  C119     1.0000 0.71170  0.38800  0.02700  Biso   1.000  C
  C120     1.0000 0.78830  0.88800  0.47300  Biso   1.000  C
  H141     1.0000 0.30050  0.62920  0.92580  Biso   1.000  H
  H142     1.0000 0.19950  0.12920  0.57420  Biso   1.000  H
  H143     1.0000 0.69950  0.37080  0.07420  Biso   1.000  H
  H144     1.0000 0.80050  0.87080  0.42580  Biso   1.000  H
  H145     1.0000 0.30350  0.55520  0.97840  Biso   1.000  H
  H146     1.0000 0.19650  0.05520  0.52160  Biso   1.000  H
  H147     1.0000 0.69650  0.44480  0.02160  Biso   1.000  H
  H148     1.0000 0.80350  0.94480  0.47840  Biso   1.000  H
  H149     1.0000 0.32480  0.64370  0.00610  Biso   1.000  H
  H150     1.0000 0.17520  0.14370  0.49390  Biso   1.000  H
  H151     1.0000 0.67520  0.35630  0.99390  Biso   1.000  H
  H152     1.0000 0.82480  0.85630  0.50610  Biso   1.000  H
  C121     1.0000 0.15630  0.60520  0.04728  Biso   1.000  C
  C122     1.0000 0.34370  0.10520  0.45272  Biso   1.000  C
  C123     1.0000 0.84370  0.39480  0.95272  Biso   1.000  C
  C124     1.0000 0.65630  0.89480  0.54728  Biso   1.000  C
  H153     1.0000 0.19520  0.58130  0.08140  Biso   1.000  H
  H154     1.0000 0.30480  0.08130  0.41860  Biso   1.000  H
  H155     1.0000 0.80480  0.41870  0.91860  Biso   1.000  H
  H156     1.0000 0.69520  0.91870  0.58140  Biso   1.000  H
  N1       1.0000 0.13372  0.19430  0.07995  Biso   1.000  N
  N2       1.0000 0.36628  0.69430  0.42005  Biso   1.000  N
  N3       1.0000 0.86628  0.80570  0.92005  Biso   1.000  N
  N4       1.0000 0.63372  0.30570  0.57995  Biso   1.000  N
  N5       1.0000 0.08416  0.02158  0.35256  Biso   1.000  N
  N6       1.0000 0.41584  0.52158  0.14744  Biso   1.000  N
  N7       1.0000 0.91584  0.97842  0.64744  Biso   1.000  N
  N8       1.0000 0.58416  0.47842  0.85256  Biso   1.000  N
  N9       1.0000 0.23998  0.37798  0.39883  Biso   1.000  N
  N10      1.0000 0.26002  0.87798  0.10117  Biso   1.000  N
  N11      1.0000 0.76002  0.62202  0.60117  Biso   1.000  N
  N12      1.0000 0.73998  0.12202  0.89883  Biso   1.000  N
  N13      1.0000 0.81830  0.32045  0.25006  Biso   1.000  N
  N14      1.0000 0.68170  0.82045  0.24994  Biso   1.000  N
  N15      1.0000 0.18170  0.67955  0.74994  Biso   1.000  N
  N16      1.0000 0.31830  0.17955  0.75006  Biso   1.000  N
  N17      1.0000 0.89872  0.59530  0.10856  Biso   1.000  N
  N18      1.0000 0.60128  0.09530  0.39144  Biso   1.000  N
  N19      1.0000 0.10128  0.40470  0.89144  Biso   1.000  N
  N20      1.0000 0.39872  0.90470  0.60856  Biso   1.000  N
  N21      1.0000 0.00400  0.56110  0.36512  Biso   1.000  N
  N22      1.0000 0.49600  0.06110  0.13488  Biso   1.000  N
  N23      1.0000 0.99600  0.43890  0.63488  Biso   1.000  N
  N24      1.0000 0.50400  0.93890  0.86512  Biso   1.000  N
  N25      1.0000 0.19010  0.62401  0.98635  Biso   1.000  N
  N26      1.0000 0.30990  0.12401  0.51365  Biso   1.000  N
  N27      1.0000 0.80990  0.37599  0.01365  Biso   1.000  N
  N28      1.0000 0.69010  0.87599  0.48635  Biso   1.000  N
  O1       1.0000 0.12367  0.33615  0.15436  Biso   1.000  O
  O2       1.0000 0.37633  0.83615  0.34564  Biso   1.000  O
  O3       1.0000 0.87633  0.66385  0.84564  Biso   1.000  O
  O4       1.0000 0.62367  0.16385  0.65436  Biso   1.000  O
  O5       1.0000 0.14114  0.41595  0.26085  Biso   1.000  O
  O6       1.0000 0.35886  0.91595  0.23915  Biso   1.000  O
  O7       1.0000 0.85886  0.58405  0.73915  Biso   1.000  O
  O8       1.0000 0.64114  0.08405  0.76085  Biso   1.000  O
  O9       1.0000 0.98971  0.38667  0.21200  Biso   1.000  O
  O10      1.0000 0.51029  0.88667  0.28800  Biso   1.000  O
  O11      1.0000 0.01029  0.61333  0.78800  Biso   1.000  O
  O12      1.0000 0.48971  0.11333  0.71200  Biso   1.000  O
  O13      1.0000 0.08980  0.47782  0.15136  Biso   1.000  O
  O14      1.0000 0.41020  0.97782  0.34864  Biso   1.000  O
  O15      1.0000 0.91020  0.52218  0.84864  Biso   1.000  O
  O16      1.0000 0.58980  0.02218  0.65136  Biso   1.000  O
  O17      1.0000 0.05694  0.10734  0.20000  Biso   1.000  O
  O18      1.0000 0.44306  0.60734  0.30000  Biso   1.000  O
  O19      1.0000 0.94306  0.89266  0.80000  Biso   1.000  O
  O20      1.0000 0.55694  0.39266  0.70000  Biso   1.000  O
  O21      1.0000 0.92764  0.19492  0.17881  Biso   1.000  O
  O22      1.0000 0.57236  0.69492  0.32119  Biso   1.000  O
  O23      1.0000 0.07236  0.80508  0.82119  Biso   1.000  O
  O24      1.0000 0.42764  0.30508  0.67881  Biso   1.000  O
  O25      1.0000 0.93070  0.09691  0.27149  Biso   1.000  O
  O26      1.0000 0.56930  0.59691  0.22851  Biso   1.000  O
  O27      1.0000 0.06930  0.90309  0.72851  Biso   1.000  O
  O28      1.0000 0.43070  0.40309  0.77149  Biso   1.000  O
  O29      1.0000 0.91700  0.05058  0.15250  Biso   1.000  O
  O30      1.0000 0.58300  0.55058  0.34750  Biso   1.000  O
  O31      1.0000 0.08300  0.94942  0.84750  Biso   1.000  O
  O32      1.0000 0.41700  0.44942  0.65250  Biso   1.000  O
  O33      1.0000 0.22034  0.14066  0.33071  Biso   1.000  O
  O34      1.0000 0.27966  0.64066  0.16929  Biso   1.000  O
  O35      1.0000 0.77966  0.85934  0.66929  Biso   1.000  O
  O36      1.0000 0.72034  0.35934  0.83071  Biso   1.000  O
  O37      1.0000 0.26920  0.27171  0.29350  Biso   1.000  O
  O38      1.0000 0.23080  0.77171  0.20650  Biso   1.000  O
  O39      1.0000 0.73080  0.72829  0.70650  Biso   1.000  O
  O40      1.0000 0.76920  0.22829  0.79350  Biso   1.000  O
  O41      1.0000 0.25630  0.16920  0.21071  Biso   1.000  O
  O42      1.0000 0.24370  0.66920  0.28929  Biso   1.000  O
  O43      1.0000 0.74370  0.83080  0.78929  Biso   1.000  O
  O44      1.0000 0.75630  0.33080  0.71071  Biso   1.000  O
  O45      1.0000 0.37671  0.16462  0.29808  Biso   1.000  O
  O46      1.0000 0.12329  0.66462  0.20192  Biso   1.000  O
  O47      1.0000 0.62329  0.83538  0.70192  Biso   1.000  O
  O48      1.0000 0.87671  0.33538  0.79808  Biso   1.000  O
  O49      1.0000 0.91890  0.27193  0.36789  Biso   1.000  O
  O50      1.0000 0.58110  0.77193  0.13211  Biso   1.000  O
  O51      1.0000 0.08110  0.72807  0.63211  Biso   1.000  O
  O52      1.0000 0.41890  0.22807  0.86789  Biso   1.000  O
  O53      1.0000 0.06404  0.32235  0.41114  Biso   1.000  O
  O54      1.0000 0.43596  0.82235  0.08886  Biso   1.000  O
  O55      1.0000 0.93596  0.67765  0.58886  Biso   1.000  O
  O56      1.0000 0.56404  0.17765  0.91114  Biso   1.000  O
  O57      1.0000 0.95461  0.27200  0.49205  Biso   1.000  O
  O58      1.0000 0.54539  0.77200  0.00795  Biso   1.000  O
  O59      1.0000 0.04539  0.72800  0.50795  Biso   1.000  O
  O60      1.0000 0.45461  0.22800  0.99205  Biso   1.000  O
  O61      1.0000 0.03050  0.17843  0.41637  Biso   1.000  O
  O62      1.0000 0.46950  0.67843  0.08363  Biso   1.000  O
  O63      1.0000 0.96950  0.82157  0.58363  Biso   1.000  O
  O64      1.0000 0.53050  0.32157  0.91637  Biso   1.000  O
  O65      1.0000 0.97594  0.58411  0.24880  Biso   1.000  O
  O66      1.0000 0.52406  0.08411  0.25120  Biso   1.000  O
  O67      1.0000 0.02406  0.41589  0.75120  Biso   1.000  O
  O68      1.0000 0.47594  0.91589  0.74880  Biso   1.000  O
  O69      1.0000 0.07542  0.61750  0.06191  Biso   1.000  O
  O70      1.0000 0.42458  0.11750  0.43809  Biso   1.000  O
  O71      1.0000 0.92458  0.38250  0.93809  Biso   1.000  O
  O72      1.0000 0.57542  0.88250  0.56191  Biso   1.000  O
  O73      1.0000 0.07304  0.24407  0.27703  Biso   1.000  O
  O74      1.0000 0.42696  0.74407  0.22297  Biso   1.000  O
  O75      1.0000 0.92696  0.75593  0.72297  Biso   1.000  O
  O76      1.0000 0.57304  0.25593  0.77703  Biso   1.000  O
  S1       1.0000 0.08577  0.40450  0.19552  Biso   1.000  S
  S2       1.0000 0.41423  0.90450  0.30448  Biso   1.000  S
  S3       1.0000 0.91423  0.59550  0.80448  Biso   1.000  S
  S4       1.0000 0.58577  0.09550  0.69552  Biso   1.000  S
  S5       1.0000 0.95269  0.11059  0.19879  Biso   1.000  S
  S6       1.0000 0.54731  0.61059  0.30121  Biso   1.000  S
  S7       1.0000 0.04731  0.88941  0.80121  Biso   1.000  S
  S8       1.0000 0.45269  0.38941  0.69879  Biso   1.000  S
  S9       1.0000 0.28241  0.18494  0.28295  Biso   1.000  S
  S10      1.0000 0.21759  0.68494  0.21705  Biso   1.000  S
  S11      1.0000 0.71759  0.81506  0.71705  Biso   1.000  S
  S12      1.0000 0.78241  0.31506  0.78295  Biso   1.000  S
  S13      1.0000 0.99156  0.26078  0.42318  Biso   1.000  S
  S14      1.0000 0.50844  0.76078  0.07682  Biso   1.000  S
  S15      1.0000 0.00844  0.73922  0.57682  Biso   1.000  S
  S16      1.0000 0.49156  0.23922  0.92318  Biso   1.000  S
  Cu1      1.0000 0.11080  0.21981  0.18103  Biso   1.000  Cu
  Cu2      1.0000 0.38920  0.71981  0.31897  Biso   1.000  Cu
  Cu3      1.0000 0.88920  0.78019  0.81897  Biso   1.000  Cu
  Cu4      1.0000 0.61080  0.28019  0.68103  Biso   1.000  Cu
  Cu5      1.0000 0.07679  0.13692  0.32043  Biso   1.000  Cu
  Cu6      1.0000 0.42321  0.63692  0.17957  Biso   1.000  Cu
  Cu7      1.0000 0.92321  0.86308  0.67957  Biso   1.000  Cu
  Cu8      1.0000 0.57679  0.36308  0.82043  Biso   1.000  Cu
  Cu9      1.0000 0.15349  0.31500  0.33471  Biso   1.000  Cu
  Cu10     1.0000 0.34651  0.81500  0.16529  Biso   1.000  Cu
  Cu11     1.0000 0.84651  0.68500  0.66529  Biso   1.000  Cu
  Cu12     1.0000 0.65349  0.18500  0.83471  Biso   1.000  Cu
  Cu13     1.0000 0.94789  0.28291  0.26536  Biso   1.000  Cu
  Cu14     1.0000 0.55211  0.78291  0.23464  Biso   1.000  Cu
  Cu15     1.0000 0.05211  0.71709  0.73464  Biso   1.000  Cu
  Cu16     1.0000 0.44789  0.21709  0.76536  Biso   1.000  Cu
  Cu17     1.0000 0.02747  0.59512  0.15469  Biso   1.000  Cu
  Cu18     1.0000 0.47253  0.09512  0.34531  Biso   1.000  Cu
  Cu19     1.0000 0.97253  0.40488  0.84531  Biso   1.000  Cu
  Cu20     1.0000 0.52747  0.90488  0.65469  Biso   1.000  Cu
