data_image0
_cell_length_a       7.7548
_cell_length_b       13.6358
_cell_length_c       12.7451
_cell_angle_alpha    90
_cell_angle_beta     100.228
_cell_angle_gamma    90

_symmetry_space_group_name_H-M    "P 1"
_symmetry_int_tables_number       1

loop_
  _symmetry_equiv_pos_as_xyz
  'x, y, z'

loop_
  _atom_site_label
  _atom_site_occupancy
  _atom_site_fract_x
  _atom_site_fract_y
  _atom_site_fract_z
  _atom_site_thermal_displace_type
  _atom_site_B_iso_or_equiv
  _atom_site_type_symbol
  Cu1      1.0000 0.66882  0.21671  0.54040  Biso   1.000  Cu
  Cu2      1.0000 0.83118  0.71671  0.95960  Biso   1.000  Cu
  Cu3      1.0000 0.33118  0.78329  0.45960  Biso   1.000  Cu
  Cu4      1.0000 0.16882  0.28329  0.04040  Biso   1.000  Cu
  Cl1      1.0000 0.86634  0.29965  0.46213  Biso   1.000  Cl
  Cl2      1.0000 0.63366  0.79965  0.03787  Biso   1.000  Cl
  Cl3      1.0000 0.13366  0.70035  0.53787  Biso   1.000  Cl
  Cl4      1.0000 0.36634  0.20035  0.96213  Biso   1.000  Cl
  Cl5      1.0000 0.45595  0.14218  0.61310  Biso   1.000  Cl
  Cl6      1.0000 0.04405  0.64218  0.88690  Biso   1.000  Cl
  Cl7      1.0000 0.54405  0.85782  0.38690  Biso   1.000  Cl
  Cl8      1.0000 0.95595  0.35782  0.11310  Biso   1.000  Cl
  S1       1.0000 0.43195  0.22508  0.29179  Biso   1.000  S
  S2       1.0000 0.06805  0.72508  0.20821  Biso   1.000  S
  S3       1.0000 0.56805  0.77492  0.70821  Biso   1.000  S
  S4       1.0000 0.93195  0.27492  0.79179  Biso   1.000  S
  O1       1.0000 0.26670  0.19969  0.22620  Biso   1.000  O
  O2       1.0000 0.23330  0.69969  0.27380  Biso   1.000  O
  O3       1.0000 0.73330  0.80031  0.77380  Biso   1.000  O
  O4       1.0000 0.76670  0.30031  0.72620  Biso   1.000  O
  O5       1.0000 0.53420  0.14961  0.35144  Biso   1.000  O
  O6       1.0000 0.96580  0.64961  0.14856  Biso   1.000  O
  O7       1.0000 0.46580  0.85039  0.64856  Biso   1.000  O
  O8       1.0000 0.03420  0.35039  0.85144  Biso   1.000  O
  N1       1.0000 0.48060  0.31656  0.48259  Biso   1.000  N
  N2       1.0000 0.01940  0.81656  0.01741  Biso   1.000  N
  N3       1.0000 0.51940  0.68344  0.51741  Biso   1.000  N
  N4       1.0000 0.98060  0.18344  0.98259  Biso   1.000  N
  N5       1.0000 0.34290  0.38950  0.09856  Biso   1.000  N
  N6       1.0000 0.15710  0.88950  0.40144  Biso   1.000  N
  N7       1.0000 0.65710  0.61050  0.90144  Biso   1.000  N
  N8       1.0000 0.84290  0.11050  0.59856  Biso   1.000  N
  C1       1.0000 0.43860  0.38200  0.55250  Biso   1.000  C
  C2       1.0000 0.06140  0.88200  0.94750  Biso   1.000  C
  C3       1.0000 0.56140  0.61800  0.44750  Biso   1.000  C
  C4       1.0000 0.93860  0.11800  0.05250  Biso   1.000  C
  H1       1.0000 0.50103  0.38192  0.62186  Biso   1.000  H
  H2       1.0000 0.99897  0.88192  0.87814  Biso   1.000  H
  H3       1.0000 0.49897  0.61808  0.37814  Biso   1.000  H
  H4       1.0000 0.00103  0.11808  0.12186  Biso   1.000  H
  C5       1.0000 0.30500  0.44980  0.52460  Biso   1.000  C
  C6       1.0000 0.19500  0.94980  0.97540  Biso   1.000  C
  C7       1.0000 0.69500  0.55020  0.47540  Biso   1.000  C
  C8       1.0000 0.80500  0.05020  0.02460  Biso   1.000  C
  H5       1.0000 0.28048  0.49560  0.57395  Biso   1.000  H
  H6       1.0000 0.21952  0.99560  0.92605  Biso   1.000  H
  H7       1.0000 0.71952  0.50440  0.42605  Biso   1.000  H
  H8       1.0000 0.78048  0.00440  0.07395  Biso   1.000  H
  C9       1.0000 0.20970  0.44830  0.42330  Biso   1.000  C
  C10      1.0000 0.29030  0.94830  0.07670  Biso   1.000  C
  C11      1.0000 0.79030  0.55170  0.57670  Biso   1.000  C
  C12      1.0000 0.70970  0.05170  0.92330  Biso   1.000  C
  H9       1.0000 0.11950  0.49312  0.40309  Biso   1.000  H
  H10      1.0000 0.38050  0.99312  0.09691  Biso   1.000  H
  H11      1.0000 0.88050  0.50688  0.59691  Biso   1.000  H
  H12      1.0000 0.61950  0.00688  0.90309  Biso   1.000  H
  C13      1.0000 0.24830  0.38060  0.35220  Biso   1.000  C
  C14      1.0000 0.25170  0.88060  0.14780  Biso   1.000  C
  C15      1.0000 0.75170  0.61940  0.64780  Biso   1.000  C
  C16      1.0000 0.74830  0.11940  0.85220  Biso   1.000  C
  H13      1.0000 0.18355  0.37786  0.28345  Biso   1.000  H
  H14      1.0000 0.31645  0.87786  0.21655  Biso   1.000  H
  H15      1.0000 0.81645  0.62214  0.71655  Biso   1.000  H
  H16      1.0000 0.68355  0.12214  0.78345  Biso   1.000  H
  C17      1.0000 0.38380  0.31664  0.38370  Biso   1.000  C
  C18      1.0000 0.11620  0.81664  0.11630  Biso   1.000  C
  C19      1.0000 0.61620  0.68336  0.61630  Biso   1.000  C
  C20      1.0000 0.88380  0.18336  0.88370  Biso   1.000  C
  C21      1.0000 0.56210  0.28310  0.20770  Biso   1.000  C
  C22      1.0000 0.93790  0.78310  0.29230  Biso   1.000  C
  C23      1.0000 0.43790  0.71690  0.79230  Biso   1.000  C
  C24      1.0000 0.06210  0.21690  0.70770  Biso   1.000  C
  H17      1.0000 0.68052  0.29016  0.24716  Biso   1.000  H
  H18      1.0000 0.81948  0.79016  0.25284  Biso   1.000  H
  H19      1.0000 0.31948  0.70984  0.75284  Biso   1.000  H
  H20      1.0000 0.18052  0.20984  0.74716  Biso   1.000  H
  H21      1.0000 0.56739  0.24042  0.14747  Biso   1.000  H
  H22      1.0000 0.93261  0.74042  0.35253  Biso   1.000  H
  H23      1.0000 0.43261  0.75958  0.85253  Biso   1.000  H
  H24      1.0000 0.06739  0.25958  0.64747  Biso   1.000  H
  C25      1.0000 0.49830  0.38164  0.16629  Biso   1.000  C
  C26      1.0000 0.00170  0.88164  0.33371  Biso   1.000  C
  C27      1.0000 0.50170  0.61836  0.83371  Biso   1.000  C
  C28      1.0000 0.99830  0.11836  0.66629  Biso   1.000  C
  C29      1.0000 0.60140  0.46340  0.19700  Biso   1.000  C
  C30      1.0000 0.89860  0.96340  0.30300  Biso   1.000  C
  C31      1.0000 0.39860  0.53660  0.80300  Biso   1.000  C
  C32      1.0000 0.10140  0.03660  0.69700  Biso   1.000  C
  H25      1.0000 0.70785  0.45661  0.24331  Biso   1.000  H
  H26      1.0000 0.79215  0.95661  0.25669  Biso   1.000  H
  H27      1.0000 0.29215  0.54339  0.75669  Biso   1.000  H
  H28      1.0000 0.20785  0.04339  0.74331  Biso   1.000  H
  C33      1.0000 0.54590  0.55440  0.15870  Biso   1.000  C
  C34      1.0000 0.95410  0.05440  0.34130  Biso   1.000  C
  C35      1.0000 0.45410  0.44560  0.84130  Biso   1.000  C
  C36      1.0000 0.04590  0.94560  0.65870  Biso   1.000  C
  H29      1.0000 0.61452  0.60954  0.17864  Biso   1.000  H
  H30      1.0000 0.88548  0.10954  0.32136  Biso   1.000  H
  H31      1.0000 0.38548  0.39046  0.82136  Biso   1.000  H
  H32      1.0000 0.11452  0.89046  0.67864  Biso   1.000  H
  C37      1.0000 0.38920  0.56310  0.09130  Biso   1.000  C
  C38      1.0000 0.11080  0.06310  0.40870  Biso   1.000  C
  C39      1.0000 0.61080  0.43690  0.90870  Biso   1.000  C
  C40      1.0000 0.88920  0.93690  0.59130  Biso   1.000  C
  H33      1.0000 0.34870  0.62402  0.06488  Biso   1.000  H
  H34      1.0000 0.15130  0.12402  0.43512  Biso   1.000  H
  H35      1.0000 0.65130  0.37598  0.93512  Biso   1.000  H
  H36      1.0000 0.84870  0.87598  0.56488  Biso   1.000  H
  C41      1.0000 0.29280  0.48000  0.06340  Biso   1.000  C
  C42      1.0000 0.20720  0.98000  0.43660  Biso   1.000  C
  C43      1.0000 0.70720  0.52000  0.93660  Biso   1.000  C
  C44      1.0000 0.79280  0.02000  0.56340  Biso   1.000  C
  H37      1.0000 0.18609  0.48653  0.01734  Biso   1.000  H
  H38      1.0000 0.31391  0.98653  0.48266  Biso   1.000  H
  H39      1.0000 0.81391  0.51347  0.98266  Biso   1.000  H
  H40      1.0000 0.68609  0.01347  0.51734  Biso   1.000  H
