data_image0
_cell_length_a       10.822
_cell_length_b       11.061
_cell_length_c       12.269
_cell_angle_alpha    112.081
_cell_angle_beta     98.364
_cell_angle_gamma    90.7

_symmetry_space_group_name_H-M    "P 1"
_symmetry_int_tables_number       1

loop_
  _symmetry_equiv_pos_as_xyz
  'x, y, z'

loop_
  _atom_site_label
  _atom_site_occupancy
  _atom_site_fract_x
  _atom_site_fract_y
  _atom_site_fract_z
  _atom_site_thermal_displace_type
  _atom_site_B_iso_or_equiv
  _atom_site_type_symbol
  Cu1      1.0000 0.25033  0.75525  0.50004  Biso   1.000  Cu
  Cu2      1.0000 0.74967  0.24475  0.49996  Biso   1.000  Cu
  N1       1.0000 0.09880  0.21920  0.11320  Biso   1.000  N
  N2       1.0000 0.90120  0.78080  0.88680  Biso   1.000  N
  N3       1.0000 0.39810  0.54210  0.88220  Biso   1.000  N
  N4       1.0000 0.60190  0.45790  0.11780  Biso   1.000  N
  N5       1.0000 0.24950  0.57480  0.49980  Biso   1.000  N
  N6       1.0000 0.75050  0.42520  0.50020  Biso   1.000  N
  N7       1.0000 0.25000  0.93430  0.50000  Biso   1.000  N
  N8       1.0000 0.75000  0.06570  0.50000  Biso   1.000  N
  O1       1.0000 0.18210  0.67830  0.32860  Biso   1.000  O
  O2       1.0000 0.81790  0.32170  0.67140  Biso   1.000  O
  O3       1.0000 0.38540  0.67570  0.33080  Biso   1.000  O
  O4       1.0000 0.61460  0.32430  0.66920  Biso   1.000  O
  O5       1.0000 0.31930  0.82340  0.67100  Biso   1.000  O
  O6       1.0000 0.68070  0.17660  0.32900  Biso   1.000  O
  O7       1.0000 0.11520  0.82000  0.67060  Biso   1.000  O
  O8       1.0000 0.88480  0.18000  0.32940  Biso   1.000  O
  S1       1.0000 0.33082  0.31221  0.18948  Biso   1.000  S
  S2       1.0000 0.66918  0.68779  0.81052  Biso   1.000  S
  S3       1.0000 0.12001  0.44725  0.09310  Biso   1.000  S
  S4       1.0000 0.87999  0.55275  0.90690  Biso   1.000  S
  S5       1.0000 0.16739  0.57014  0.80565  Biso   1.000  S
  S6       1.0000 0.83261  0.42986  0.19435  Biso   1.000  S
  S7       1.0000 0.38101  0.78856  0.90587  Biso   1.000  S
  S8       1.0000 0.61899  0.21144  0.09413  Biso   1.000  S
  C1       1.0000 0.27730  0.64520  0.27790  Biso   1.000  C
  C2       1.0000 0.72270  0.35480  0.72210  Biso   1.000  C
  C3       1.0000 0.25490  0.56400  0.14530  Biso   1.000  C
  C4       1.0000 0.74510  0.43600  0.85470  Biso   1.000  C
  H1       1.0000 0.32870  0.51700  0.12490  Biso   1.000  H
  H2       1.0000 0.67130  0.48300  0.87510  Biso   1.000  H
  H3       1.0000 0.24510  0.62270  0.10300  Biso   1.000  H
  H4       1.0000 0.75490  0.37730  0.89700  Biso   1.000  H
  C5       1.0000 0.17430  0.31940  0.13170  Biso   1.000  C
  C6       1.0000 0.82570  0.68060  0.86830  Biso   1.000  C
  C7       1.0000 0.16350  0.12580  0.14400  Biso   1.000  C
  C8       1.0000 0.83650  0.87420  0.85600  Biso   1.000  C
  C9       1.0000 0.29130  0.15870  0.18750  Biso   1.000  C
  C10      1.0000 0.70870  0.84130  0.81250  Biso   1.000  C
  C11      1.0000 0.36790  0.07290  0.22030  Biso   1.000  C
  C12      1.0000 0.63210  0.92710  0.77970  Biso   1.000  C
  H5       1.0000 0.45280  0.09540  0.24900  Biso   1.000  H
  H6       1.0000 0.54720  0.90460  0.75100  Biso   1.000  H
  C13      1.0000 0.31470  0.95510  0.20920  Biso   1.000  C
  C14      1.0000 0.68530  0.04490  0.79080  Biso   1.000  C
  H7       1.0000 0.36390  0.89660  0.23040  Biso   1.000  H
  H8       1.0000 0.63610  0.10340  0.76960  Biso   1.000  H
  C15      1.0000 0.18790  0.92210  0.16650  Biso   1.000  C
  C16      1.0000 0.81210  0.07790  0.83350  Biso   1.000  C
  H9       1.0000 0.15380  0.84150  0.15990  Biso   1.000  H
  H10      1.0000 0.84620  0.15850  0.84010  Biso   1.000  H
  C17      1.0000 0.11140  0.00470  0.13380  Biso   1.000  C
  C18      1.0000 0.88860  0.99530  0.86620  Biso   1.000  C
  H11      1.0000 0.02660  0.98090  0.10540  Biso   1.000  H
  H12      1.0000 0.97340  0.01910  0.89460  Biso   1.000  H
  C19      1.0000 0.22390  0.83210  0.72240  Biso   1.000  C
  C20      1.0000 0.77610  0.16790  0.27760  Biso   1.000  C
  C21      1.0000 0.24710  0.86010  0.85520  Biso   1.000  C
  C22      1.0000 0.75290  0.13990  0.14480  Biso   1.000  C
  H13      1.0000 0.17320  0.82850  0.87550  Biso   1.000  H
  H14      1.0000 0.82680  0.17150  0.12450  Biso   1.000  H
  H15      1.0000 0.25760  0.95420  0.89840  Biso   1.000  H
  H16      1.0000 0.74240  0.04580  0.10160  Biso   1.000  H
  C23      1.0000 0.32430  0.62610  0.86440  Biso   1.000  C
  C24      1.0000 0.67570  0.37390  0.13560  Biso   1.000  C
  C25      1.0000 0.33170  0.42270  0.85090  Biso   1.000  C
  C26      1.0000 0.66830  0.57730  0.14910  Biso   1.000  C
  C27      1.0000 0.20480  0.41840  0.80630  Biso   1.000  C
  C28      1.0000 0.79520  0.58160  0.19370  Biso   1.000  C
  C29      1.0000 0.12630  0.30560  0.77400  Biso   1.000  C
  C30      1.0000 0.87370  0.69440  0.22600  Biso   1.000  C
  H17      1.0000 0.04180  0.30340  0.74440  Biso   1.000  H
  H18      1.0000 0.95820  0.69660  0.25560  Biso   1.000  H
  C31      1.0000 0.17660  0.19810  0.78680  Biso   1.000  C
  C32      1.0000 0.82340  0.80190  0.21320  Biso   1.000  C
  H19      1.0000 0.12580  0.12180  0.76560  Biso   1.000  H
  H20      1.0000 0.87420  0.87820  0.23440  Biso   1.000  H
  C33      1.0000 0.30310  0.20140  0.83130  Biso   1.000  C
  C34      1.0000 0.69690  0.79860  0.16870  Biso   1.000  C
  H21      1.0000 0.33540  0.12720  0.83950  Biso   1.000  H
  H22      1.0000 0.66460  0.87280  0.16050  Biso   1.000  H
  C35      1.0000 0.38100  0.31220  0.86330  Biso   1.000  C
  C36      1.0000 0.61900  0.68780  0.13670  Biso   1.000  C
  H23      1.0000 0.46540  0.31330  0.89270  Biso   1.000  H
  H24      1.0000 0.53460  0.68670  0.10730  Biso   1.000  H
  C37      1.0000 0.34680  0.53700  0.55760  Biso   1.000  C
  C38      1.0000 0.65320  0.46300  0.44240  Biso   1.000  C
  H25      1.0000 0.41460  0.59720  0.59880  Biso   1.000  H
  H26      1.0000 0.58540  0.40280  0.40120  Biso   1.000  H
  C39      1.0000 0.35050  0.41290  0.55870  Biso   1.000  C
  C40      1.0000 0.64950  0.58710  0.44130  Biso   1.000  C
  H27      1.0000 0.42040  0.39070  0.59910  Biso   1.000  H
  H28      1.0000 0.57960  0.60930  0.40090  Biso   1.000  H
  C41      1.0000 0.25030  0.32120  0.49960  Biso   1.000  C
  C42      1.0000 0.74970  0.67880  0.50040  Biso   1.000  C
  C43      1.0000 0.14950  0.36160  0.43970  Biso   1.000  C
  C44      1.0000 0.85050  0.63840  0.56030  Biso   1.000  C
  H29      1.0000 0.08000  0.30390  0.39830  Biso   1.000  H
  H30      1.0000 0.92000  0.69610  0.60170  Biso   1.000  H
  C45      1.0000 0.15350  0.48660  0.44210  Biso   1.000  C
  C46      1.0000 0.84650  0.51340  0.55790  Biso   1.000  C
  H31      1.0000 0.08560  0.51100  0.40120  Biso   1.000  H
  H32      1.0000 0.91440  0.48900  0.59880  Biso   1.000  H
  C47      1.0000 0.14960  0.97560  0.45100  Biso   1.000  C
  C48      1.0000 0.85040  0.02440  0.54900  Biso   1.000  C
  H33      1.0000 0.07910  0.91760  0.41560  Biso   1.000  H
  H34      1.0000 0.92090  0.08240  0.58440  Biso   1.000  H
  C49      1.0000 0.14510  0.09950  0.45010  Biso   1.000  C
  C50      1.0000 0.85490  0.90050  0.54990  Biso   1.000  C
  H35      1.0000 0.07210  0.12450  0.41670  Biso   1.000  H
  H36      1.0000 0.92790  0.87550  0.58330  Biso   1.000  H
  C51      1.0000 0.25000  0.18680  0.49930  Biso   1.000  C
  C52      1.0000 0.75000  0.81320  0.50070  Biso   1.000  C
  C53      1.0000 0.35540  0.14340  0.54880  Biso   1.000  C
  C54      1.0000 0.64460  0.85660  0.45120  Biso   1.000  C
  H37      1.0000 0.42840  0.19800  0.58200  Biso   1.000  H
  H38      1.0000 0.57160  0.80200  0.41800  Biso   1.000  H
  C55      1.0000 0.35060  0.01910  0.54820  Biso   1.000  C
  C56      1.0000 0.64940  0.98090  0.45180  Biso   1.000  C
  H39      1.0000 0.42140  0.99240  0.58330  Biso   1.000  H
  H40      1.0000 0.57860  0.00760  0.41670  Biso   1.000  H
