data_image0
_cell_length_a       5.6317
_cell_length_b       10.6231
_cell_length_c       11.1386
_cell_angle_alpha    118.087
_cell_angle_beta     99.187
_cell_angle_gamma    94.385

_symmetry_space_group_name_H-M    "P 1"
_symmetry_int_tables_number       1

loop_
  _symmetry_equiv_pos_as_xyz
  'x, y, z'

loop_
  _atom_site_label
  _atom_site_occupancy
  _atom_site_fract_x
  _atom_site_fract_y
  _atom_site_fract_z
  _atom_site_thermal_displace_type
  _atom_site_B_iso_or_equiv
  _atom_site_type_symbol
  Cu1      1.0000 0.00000  0.00000  0.00000  Biso   1.000  Cu
  Cu2      1.0000 0.49746  0.15708  0.03345  Biso   1.000  Cu
  Cu3      1.0000 0.50254  0.84292  0.96655  Biso   1.000  Cu
  O1       1.0000 0.90850  0.11460  0.91080  Biso   1.000  O
  O2       1.0000 0.09150  0.88540  0.08920  Biso   1.000  O
  O3       1.0000 0.27650  0.23680  0.94330  Biso   1.000  O
  O4       1.0000 0.72350  0.76320  0.05670  Biso   1.000  O
  O5       1.0000 0.30340  0.65610  0.87500  Biso   1.000  O
  O6       1.0000 0.69660  0.34390  0.12500  Biso   1.000  O
  O7       1.0000 0.03020  0.65050  0.70120  Biso   1.000  O
  O8       1.0000 0.96980  0.34950  0.29880  Biso   1.000  O
  O9       1.0000 0.25410  0.11650  0.55990  Biso   1.000  O
  O10      1.0000 0.74590  0.88350  0.44010  Biso   1.000  O
  O11      1.0000 0.27560  0.29560  0.52090  Biso   1.000  O
  O12      1.0000 0.72440  0.70440  0.47910  Biso   1.000  O
  O13      1.0000 0.71080  0.03740  0.07760  Biso   1.000  O
  O14      1.0000 0.28920  0.96260  0.92240  Biso   1.000  O
  H1       1.0000 0.75040  0.06970  0.16510  Biso   1.000  H
  H2       1.0000 0.24960  0.93030  0.83490  Biso   1.000  H
  O15      1.0000 0.31120  0.18850  0.21190  Biso   1.000  O
  O16      1.0000 0.68880  0.81150  0.78810  Biso   1.000  O
  H3       1.0000 0.23020  0.25100  0.25950  Biso   1.000  H
  H4       1.0000 0.76980  0.74900  0.74050  Biso   1.000  H
  H5       1.0000 0.38850  0.18870  0.28410  Biso   1.000  H
  H6       1.0000 0.61150  0.81130  0.71590  Biso   1.000  H
  O17      1.0000 0.75110  0.13820  0.35800  Biso   1.000  O
  O18      1.0000 0.24890  0.86180  0.64200  Biso   1.000  O
  H7       1.0000 0.83110  0.22220  0.38760  Biso   1.000  H
  H8       1.0000 0.16890  0.77780  0.61240  Biso   1.000  H
  H9       1.0000 0.82690  0.09620  0.39700  Biso   1.000  H
  H10      1.0000 0.17310  0.90380  0.60300  Biso   1.000  H
  N1       1.0000 0.36220  0.22860  0.57600  Biso   1.000  N
  N2       1.0000 0.63780  0.77140  0.42400  Biso   1.000  N
  C1       1.0000 0.05060  0.20350  0.89900  Biso   1.000  C
  C2       1.0000 0.94940  0.79650  0.10100  Biso   1.000  C
  C3       1.0000 0.93450  0.27600  0.82230  Biso   1.000  C
  C4       1.0000 0.06550  0.72400  0.17770  Biso   1.000  C
  C5       1.0000 0.06710  0.39910  0.83560  Biso   1.000  C
  C6       1.0000 0.93290  0.60090  0.16440  Biso   1.000  C
  H11      1.0000 0.22290  0.43660  0.89300  Biso   1.000  H
  H12      1.0000 0.77710  0.56340  0.10700  Biso   1.000  H
  C7       1.0000 0.96750  0.46730  0.76290  Biso   1.000  C
  C8       1.0000 0.03250  0.53270  0.23710  Biso   1.000  C
  C9       1.0000 0.73400  0.41170  0.67880  Biso   1.000  C
  C10      1.0000 0.26600  0.58830  0.32120  Biso   1.000  C
  H13      1.0000 0.66490  0.45570  0.63010  Biso   1.000  H
  H14      1.0000 0.33510  0.54430  0.36990  Biso   1.000  H
  C11      1.0000 0.60540  0.28950  0.66870  Biso   1.000  C
  C12      1.0000 0.39460  0.71050  0.33130  Biso   1.000  C
  C13      1.0000 0.70190  0.22100  0.73950  Biso   1.000  C
  C14      1.0000 0.29810  0.77900  0.26050  Biso   1.000  C
  H15      1.0000 0.61150  0.13920  0.73140  Biso   1.000  H
  H16      1.0000 0.38850  0.86080  0.26860  Biso   1.000  H
  C15      1.0000 0.11080  0.60240  0.77790  Biso   1.000  C
  C16      1.0000 0.88920  0.39760  0.22210  Biso   1.000  C
