data_image0
_cell_length_a       7.8052
_cell_length_b       17.297
_cell_length_c       8.9172
_cell_angle_alpha    90
_cell_angle_beta     108.513
_cell_angle_gamma    90

_symmetry_space_group_name_H-M    "P 1"
_symmetry_int_tables_number       1

loop_
  _symmetry_equiv_pos_as_xyz
  'x, y, z'

loop_
  _atom_site_label
  _atom_site_occupancy
  _atom_site_fract_x
  _atom_site_fract_y
  _atom_site_fract_z
  _atom_site_thermal_displace_type
  _atom_site_B_iso_or_equiv
  _atom_site_type_symbol
  Cu1      1.0000 0.00000  0.50000  0.50000  Biso   1.000  Cu
  Cu2      1.0000 0.00000  0.00000  0.00000  Biso   1.000  Cu
  O1       1.0000 0.66370  0.50120  0.37100  Biso   1.000  O
  O2       1.0000 0.33630  0.00120  0.12900  Biso   1.000  O
  O3       1.0000 0.33630  0.49880  0.62900  Biso   1.000  O
  O4       1.0000 0.66370  0.99880  0.87100  Biso   1.000  O
  O5       1.0000 0.45920  0.55880  0.16550  Biso   1.000  O
  O6       1.0000 0.54080  0.05880  0.33450  Biso   1.000  O
  O7       1.0000 0.54080  0.44120  0.83450  Biso   1.000  O
  O8       1.0000 0.45920  0.94120  0.66550  Biso   1.000  O
  O9       1.0000 0.55320  0.60960  0.37230  Biso   1.000  O
  O10      1.0000 0.44680  0.10960  0.12770  Biso   1.000  O
  O11      1.0000 0.44680  0.39040  0.62770  Biso   1.000  O
  O12      1.0000 0.55320  0.89040  0.87230  Biso   1.000  O
  N1       1.0000 0.16150  0.40620  0.13480  Biso   1.000  N
  N2       1.0000 0.83850  0.90620  0.36520  Biso   1.000  N
  N3       1.0000 0.83850  0.59380  0.86520  Biso   1.000  N
  N4       1.0000 0.16150  0.09380  0.63480  Biso   1.000  N
  N5       1.0000 0.03550  0.45440  0.30410  Biso   1.000  N
  N6       1.0000 0.96450  0.95440  0.19590  Biso   1.000  N
  N7       1.0000 0.96450  0.54560  0.69590  Biso   1.000  N
  N8       1.0000 0.03550  0.04560  0.80410  Biso   1.000  N
  N9       1.0000 0.84050  0.20100  0.17770  Biso   1.000  N
  N10      1.0000 0.15950  0.70100  0.32230  Biso   1.000  N
  N11      1.0000 0.15950  0.79900  0.82230  Biso   1.000  N
  N12      1.0000 0.84050  0.29900  0.67770  Biso   1.000  N
  N13      1.0000 0.95940  0.10710  0.07590  Biso   1.000  N
  N14      1.0000 0.04060  0.60710  0.42410  Biso   1.000  N
  N15      1.0000 0.04060  0.89290  0.92410  Biso   1.000  N
  N16      1.0000 0.95940  0.39290  0.57590  Biso   1.000  N
  N17      1.0000 0.56230  0.54430  0.28530  Biso   1.000  N
  N18      1.0000 0.43770  0.04430  0.21470  Biso   1.000  N
  N19      1.0000 0.43770  0.45570  0.71470  Biso   1.000  N
  N20      1.0000 0.56230  0.95570  0.78530  Biso   1.000  N
  C1       1.0000 0.29820  0.37490  0.06970  Biso   1.000  C
  C2       1.0000 0.70180  0.87490  0.43030  Biso   1.000  C
  C3       1.0000 0.70180  0.62510  0.93030  Biso   1.000  C
  C4       1.0000 0.29820  0.12510  0.56970  Biso   1.000  C
  H1       1.0000 0.35570  0.41780  0.03200  Biso   1.000  H
  H2       1.0000 0.64430  0.91780  0.46800  Biso   1.000  H
  H3       1.0000 0.64430  0.58220  0.96800  Biso   1.000  H
  H4       1.0000 0.35570  0.08220  0.53200  Biso   1.000  H
  H5       1.0000 0.23820  0.34200  0.97870  Biso   1.000  H
  H6       1.0000 0.76180  0.84200  0.52130  Biso   1.000  H
  H7       1.0000 0.76180  0.65800  0.02130  Biso   1.000  H
  H8       1.0000 0.23820  0.15800  0.47870  Biso   1.000  H
  C5       1.0000 0.44220  0.32830  0.18880  Biso   1.000  C
  C6       1.0000 0.55780  0.82830  0.31120  Biso   1.000  C
  C7       1.0000 0.55780  0.67170  0.81120  Biso   1.000  C
  C8       1.0000 0.44220  0.17170  0.68880  Biso   1.000  C
  H9       1.0000 0.38410  0.29050  0.23880  Biso   1.000  H
  H10      1.0000 0.61590  0.79050  0.26120  Biso   1.000  H
  H11      1.0000 0.61590  0.70950  0.76120  Biso   1.000  H
  H12      1.0000 0.38410  0.20950  0.73880  Biso   1.000  H
  H13      1.0000 0.51500  0.36290  0.27160  Biso   1.000  H
  H14      1.0000 0.48500  0.86290  0.22840  Biso   1.000  H
  H15      1.0000 0.48500  0.63710  0.72840  Biso   1.000  H
  H16      1.0000 0.51500  0.13710  0.77160  Biso   1.000  H
  C9       1.0000 0.56710  0.28550  0.11360  Biso   1.000  C
  C10      1.0000 0.43290  0.78550  0.38640  Biso   1.000  C
  C11      1.0000 0.43290  0.71450  0.88640  Biso   1.000  C
  C12      1.0000 0.56710  0.21450  0.61360  Biso   1.000  C
  H17      1.0000 0.49660  0.24820  0.03540  Biso   1.000  H
  H18      1.0000 0.50340  0.74820  0.46460  Biso   1.000  H
  H19      1.0000 0.50340  0.75180  0.96460  Biso   1.000  H
  H20      1.0000 0.49660  0.25180  0.53540  Biso   1.000  H
  H21      1.0000 0.62160  0.32260  0.05910  Biso   1.000  H
  H22      1.0000 0.37840  0.82260  0.44090  Biso   1.000  H
  H23      1.0000 0.37840  0.67740  0.94090  Biso   1.000  H
  H24      1.0000 0.62160  0.17740  0.55910  Biso   1.000  H
  C13      1.0000 0.71310  0.24390  0.23940  Biso   1.000  C
  C14      1.0000 0.28690  0.74390  0.26060  Biso   1.000  C
  C15      1.0000 0.28690  0.75610  0.76060  Biso   1.000  C
  C16      1.0000 0.71310  0.25610  0.73940  Biso   1.000  C
  H25      1.0000 0.78120  0.28170  0.31750  Biso   1.000  H
  H26      1.0000 0.21880  0.78170  0.18250  Biso   1.000  H
  H27      1.0000 0.21880  0.71830  0.68250  Biso   1.000  H
  H28      1.0000 0.78120  0.21830  0.81750  Biso   1.000  H
  H29      1.0000 0.65670  0.20750  0.29370  Biso   1.000  H
  H30      1.0000 0.34330  0.70750  0.20630  Biso   1.000  H
  H31      1.0000 0.34330  0.79250  0.70630  Biso   1.000  H
  H32      1.0000 0.65670  0.29250  0.79370  Biso   1.000  H
  C17      1.0000 0.18990  0.43190  0.28410  Biso   1.000  C
  C18      1.0000 0.81010  0.93190  0.21590  Biso   1.000  C
  C19      1.0000 0.81010  0.56810  0.71590  Biso   1.000  C
  C20      1.0000 0.18990  0.06810  0.78410  Biso   1.000  C
  H33      1.0000 0.30320  0.43370  0.36300  Biso   1.000  H
  H34      1.0000 0.69680  0.93370  0.13700  Biso   1.000  H
  H35      1.0000 0.69680  0.56630  0.63700  Biso   1.000  H
  H36      1.0000 0.30320  0.06630  0.86300  Biso   1.000  H
  C21      1.0000 0.90360  0.44230  0.16090  Biso   1.000  C
  C22      1.0000 0.09640  0.94230  0.33910  Biso   1.000  C
  C23      1.0000 0.09640  0.55770  0.83910  Biso   1.000  C
  C24      1.0000 0.90360  0.05770  0.66090  Biso   1.000  C
  H37      1.0000 0.77990  0.45290  0.13870  Biso   1.000  H
  H38      1.0000 0.22010  0.95290  0.36130  Biso   1.000  H
  H39      1.0000 0.22010  0.54710  0.86130  Biso   1.000  H
  H40      1.0000 0.77990  0.04710  0.63870  Biso   1.000  H
  C25      1.0000 0.98130  0.41240  0.05700  Biso   1.000  C
  C26      1.0000 0.01870  0.91240  0.44300  Biso   1.000  C
  C27      1.0000 0.01870  0.58760  0.94300  Biso   1.000  C
  C28      1.0000 0.98130  0.08760  0.55700  Biso   1.000  C
  H41      1.0000 0.92160  0.39860  0.95130  Biso   1.000  H
  H42      1.0000 0.07840  0.89860  0.54870  Biso   1.000  H
  H43      1.0000 0.07840  0.60140  0.04870  Biso   1.000  H
  H44      1.0000 0.92160  0.10140  0.45130  Biso   1.000  H
  C29      1.0000 0.81770  0.12980  0.11480  Biso   1.000  C
  C30      1.0000 0.18230  0.62980  0.38520  Biso   1.000  C
  C31      1.0000 0.18230  0.87020  0.88520  Biso   1.000  C
  C32      1.0000 0.81770  0.37020  0.61480  Biso   1.000  C
  H45      1.0000 0.71340  0.09970  0.10010  Biso   1.000  H
  H46      1.0000 0.28660  0.59970  0.39990  Biso   1.000  H
  H47      1.0000 0.28660  0.90030  0.89990  Biso   1.000  H
  H48      1.0000 0.71340  0.40030  0.60010  Biso   1.000  H
  C33      1.0000 0.07950  0.16800  0.11610  Biso   1.000  C
  C34      1.0000 0.92050  0.66800  0.38390  Biso   1.000  C
  C35      1.0000 0.92050  0.83200  0.88390  Biso   1.000  C
  C36      1.0000 0.07950  0.33200  0.61610  Biso   1.000  C
  H49      1.0000 0.19390  0.16910  0.10200  Biso   1.000  H
  H50      1.0000 0.80610  0.66910  0.39800  Biso   1.000  H
  H51      1.0000 0.80610  0.83090  0.89800  Biso   1.000  H
  H52      1.0000 0.19390  0.33090  0.60200  Biso   1.000  H
  C37      1.0000 0.00770  0.22550  0.17870  Biso   1.000  C
  C38      1.0000 0.99230  0.72550  0.32130  Biso   1.000  C
  C39      1.0000 0.99230  0.77450  0.82130  Biso   1.000  C
  C40      1.0000 0.00770  0.27450  0.67870  Biso   1.000  C
  H53      1.0000 0.06190  0.27330  0.21590  Biso   1.000  H
  H54      1.0000 0.93810  0.77330  0.28410  Biso   1.000  H
  H55      1.0000 0.93810  0.72670  0.78410  Biso   1.000  H
  H56      1.0000 0.06190  0.22670  0.71590  Biso   1.000  H
