data_image0
_cell_length_a       7.8773
_cell_length_b       8.4775
_cell_length_c       12.1423
_cell_angle_alpha    90
_cell_angle_beta     90
_cell_angle_gamma    90

_symmetry_space_group_name_H-M    "P 1"
_symmetry_int_tables_number       1

loop_
  _symmetry_equiv_pos_as_xyz
  'x, y, z'

loop_
  _atom_site_label
  _atom_site_occupancy
  _atom_site_fract_x
  _atom_site_fract_y
  _atom_site_fract_z
  _atom_site_thermal_displace_type
  _atom_site_B_iso_or_equiv
  _atom_site_type_symbol
  Cu1      1.0000 0.50000  0.00000  0.50000  Biso   1.000  Cu
  Cu2      1.0000 0.00000  0.00000  0.00000  Biso   1.000  Cu
  Cu3      1.0000 0.00000  0.50000  0.50000  Biso   1.000  Cu
  Cu4      1.0000 0.50000  0.50000  0.00000  Biso   1.000  Cu
  O1       1.0000 0.60244  0.19945  0.54312  Biso   1.000  O
  O2       1.0000 0.89756  0.80055  0.04312  Biso   1.000  O
  O3       1.0000 0.10244  0.30055  0.45688  Biso   1.000  O
  O4       1.0000 0.39756  0.69945  0.95688  Biso   1.000  O
  O5       1.0000 0.39756  0.80055  0.45688  Biso   1.000  O
  O6       1.0000 0.10244  0.19945  0.95688  Biso   1.000  O
  O7       1.0000 0.89756  0.69945  0.54312  Biso   1.000  O
  O8       1.0000 0.60244  0.30055  0.04312  Biso   1.000  O
  C1       1.0000 0.73462  0.26129  0.50530  Biso   1.000  C
  C2       1.0000 0.76538  0.73871  0.00530  Biso   1.000  C
  C3       1.0000 0.23462  0.23871  0.49470  Biso   1.000  C
  C4       1.0000 0.26538  0.76129  0.99470  Biso   1.000  C
  C5       1.0000 0.26538  0.73871  0.49470  Biso   1.000  C
  C6       1.0000 0.23462  0.26129  0.99470  Biso   1.000  C
  C7       1.0000 0.76538  0.76129  0.50530  Biso   1.000  C
  C8       1.0000 0.73462  0.23871  0.00530  Biso   1.000  C
  H1       1.0000 0.79800  0.21000  0.44880  Biso   1.000  H
  H2       1.0000 0.70200  0.79000  0.94880  Biso   1.000  H
  H3       1.0000 0.29800  0.29000  0.55120  Biso   1.000  H
  H4       1.0000 0.20200  0.71000  0.05120  Biso   1.000  H
  H5       1.0000 0.20200  0.79000  0.55120  Biso   1.000  H
  H6       1.0000 0.29800  0.21000  0.05120  Biso   1.000  H
  H7       1.0000 0.70200  0.71000  0.44880  Biso   1.000  H
  H8       1.0000 0.79800  0.29000  0.94880  Biso   1.000  H
  O9       1.0000 0.78688  0.39260  0.54147  Biso   1.000  O
  O10      1.0000 0.71312  0.60740  0.04147  Biso   1.000  O
  O11      1.0000 0.28688  0.10740  0.45853  Biso   1.000  O
  O12      1.0000 0.21312  0.89260  0.95853  Biso   1.000  O
  O13      1.0000 0.21312  0.60740  0.45853  Biso   1.000  O
  O14      1.0000 0.28688  0.39260  0.95853  Biso   1.000  O
  O15      1.0000 0.71312  0.89260  0.54147  Biso   1.000  O
  O16      1.0000 0.78688  0.10740  0.04147  Biso   1.000  O
  O17      1.0000 0.40886  0.97880  0.69101  Biso   1.000  O
  O18      1.0000 0.09114  0.02120  0.19101  Biso   1.000  O
  O19      1.0000 0.90886  0.52120  0.30899  Biso   1.000  O
  O20      1.0000 0.59114  0.47880  0.80899  Biso   1.000  O
  O21      1.0000 0.59114  0.02120  0.30899  Biso   1.000  O
  O22      1.0000 0.90886  0.97880  0.80899  Biso   1.000  O
  O23      1.0000 0.09114  0.47880  0.69101  Biso   1.000  O
  O24      1.0000 0.40886  0.52120  0.19101  Biso   1.000  O
  C9       1.0000 0.49485  0.04670  0.75788  Biso   1.000  C
  C10      1.0000 0.00515  0.95330  0.25788  Biso   1.000  C
  C11      1.0000 0.99485  0.45330  0.24212  Biso   1.000  C
  C12      1.0000 0.50515  0.54670  0.74212  Biso   1.000  C
  C13      1.0000 0.50515  0.95330  0.24212  Biso   1.000  C
  C14      1.0000 0.99485  0.04670  0.74212  Biso   1.000  C
  C15      1.0000 0.00515  0.54670  0.75788  Biso   1.000  C
  C16      1.0000 0.49485  0.45330  0.25788  Biso   1.000  C
  H9       1.0000 0.58800  0.11200  0.73850  Biso   1.000  H
  H10      1.0000 0.91200  0.88800  0.23850  Biso   1.000  H
  H11      1.0000 0.08800  0.38800  0.26150  Biso   1.000  H
  H12      1.0000 0.41200  0.61200  0.76150  Biso   1.000  H
  H13      1.0000 0.41200  0.88800  0.26150  Biso   1.000  H
  H14      1.0000 0.08800  0.11200  0.76150  Biso   1.000  H
  H15      1.0000 0.91200  0.61200  0.73850  Biso   1.000  H
  H16      1.0000 0.58800  0.38800  0.23850  Biso   1.000  H
  O25      1.0000 0.47463  0.04356  0.86499  Biso   1.000  O
  O26      1.0000 0.02537  0.95644  0.36499  Biso   1.000  O
  O27      1.0000 0.97463  0.45644  0.13501  Biso   1.000  O
  O28      1.0000 0.52537  0.54356  0.63501  Biso   1.000  O
  O29      1.0000 0.52537  0.95644  0.13501  Biso   1.000  O
  O30      1.0000 0.97463  0.04356  0.63501  Biso   1.000  O
  O31      1.0000 0.02537  0.54356  0.86499  Biso   1.000  O
  O32      1.0000 0.47463  0.45644  0.36499  Biso   1.000  O
  H17      1.0000 0.40400  0.98500  0.87900  Biso   1.000  H
  H18      1.0000 0.09600  0.01500  0.37900  Biso   1.000  H
  H19      1.0000 0.90400  0.51500  0.12100  Biso   1.000  H
  H20      1.0000 0.59600  0.48500  0.62100  Biso   1.000  H
  H21      1.0000 0.59600  0.01500  0.12100  Biso   1.000  H
  H22      1.0000 0.90400  0.98500  0.62100  Biso   1.000  H
  H23      1.0000 0.09600  0.48500  0.87900  Biso   1.000  H
  H24      1.0000 0.40400  0.51500  0.37900  Biso   1.000  H
