data_image0
_cell_length_a       10.873
_cell_length_b       11.153
_cell_length_c       10.897
_cell_angle_alpha    90
_cell_angle_beta     102.871
_cell_angle_gamma    90

_symmetry_space_group_name_H-M    "P 1"
_symmetry_int_tables_number       1

loop_
  _symmetry_equiv_pos_as_xyz
  'x, y, z'

loop_
  _atom_site_label
  _atom_site_occupancy
  _atom_site_fract_x
  _atom_site_fract_y
  _atom_site_fract_z
  _atom_site_thermal_displace_type
  _atom_site_B_iso_or_equiv
  _atom_site_type_symbol
  Cu1      1.0000 0.25000  0.34771  0.25000  Biso   1.000  Cu
  Cu2      1.0000 0.75000  0.65229  0.75000  Biso   1.000  Cu
  S1       1.0000 0.33140  0.32389  0.55085  Biso   1.000  S
  S2       1.0000 0.16860  0.32389  0.94915  Biso   1.000  S
  S3       1.0000 0.66860  0.67611  0.44915  Biso   1.000  S
  S4       1.0000 0.83140  0.67611  0.05085  Biso   1.000  S
  O1       1.0000 0.39090  0.33540  0.44300  Biso   1.000  O
  O2       1.0000 0.10910  0.33540  0.05700  Biso   1.000  O
  O3       1.0000 0.60910  0.66460  0.55700  Biso   1.000  O
  O4       1.0000 0.89090  0.66460  0.94300  Biso   1.000  O
  O5       1.0000 0.35460  0.20960  0.61350  Biso   1.000  O
  O6       1.0000 0.14540  0.20960  0.88650  Biso   1.000  O
  O7       1.0000 0.64540  0.79040  0.38650  Biso   1.000  O
  O8       1.0000 0.85460  0.79040  0.11350  Biso   1.000  O
  O9       1.0000 0.35570  0.42600  0.63500  Biso   1.000  O
  O10      1.0000 0.14430  0.42600  0.86500  Biso   1.000  O
  O11      1.0000 0.64430  0.57400  0.36500  Biso   1.000  O
  O12      1.0000 0.85570  0.57400  0.13500  Biso   1.000  O
  N1       1.0000 0.12270  0.34910  0.36180  Biso   1.000  N
  N2       1.0000 0.37730  0.34910  0.13820  Biso   1.000  N
  N3       1.0000 0.87730  0.65090  0.63820  Biso   1.000  N
  N4       1.0000 0.62270  0.65090  0.86180  Biso   1.000  N
  N5       1.0000 0.25000  0.53080  0.25000  Biso   1.000  N
  N6       1.0000 0.75000  0.46920  0.75000  Biso   1.000  N
  N7       1.0000 0.25000  0.16370  0.25000  Biso   1.000  N
  N8       1.0000 0.75000  0.83630  0.75000  Biso   1.000  N
  C1       1.0000 0.16250  0.33010  0.48610  Biso   1.000  C
  C2       1.0000 0.33750  0.33010  0.01390  Biso   1.000  C
  C3       1.0000 0.83750  0.66990  0.51390  Biso   1.000  C
  C4       1.0000 0.66250  0.66990  0.98610  Biso   1.000  C
  C5       1.0000 0.08180  0.32310  0.56780  Biso   1.000  C
  C6       1.0000 0.41820  0.32310  0.93220  Biso   1.000  C
  C7       1.0000 0.91820  0.67690  0.43220  Biso   1.000  C
  C8       1.0000 0.58180  0.67690  0.06780  Biso   1.000  C
  H1       1.0000 0.11320  0.30680  0.65520  Biso   1.000  H
  H2       1.0000 0.38680  0.30680  0.84480  Biso   1.000  H
  H3       1.0000 0.88680  0.69320  0.34480  Biso   1.000  H
  H4       1.0000 0.61320  0.69320  0.15520  Biso   1.000  H
  C9       1.0000 0.95400  0.34050  0.51810  Biso   1.000  C
  C10      1.0000 0.54600  0.34050  0.98190  Biso   1.000  C
  C11      1.0000 0.04600  0.65950  0.48190  Biso   1.000  C
  C12      1.0000 0.45400  0.65950  0.01810  Biso   1.000  C
  H5       1.0000 0.89500  0.33700  0.57120  Biso   1.000  H
  H6       1.0000 0.60500  0.33700  0.92880  Biso   1.000  H
  H7       1.0000 0.10500  0.66300  0.42880  Biso   1.000  H
  H8       1.0000 0.39500  0.66300  0.07120  Biso   1.000  H
  C13      1.0000 0.91190  0.36340  0.38990  Biso   1.000  C
  C14      1.0000 0.58810  0.36340  0.11010  Biso   1.000  C
  C15      1.0000 0.08810  0.63660  0.61010  Biso   1.000  C
  C16      1.0000 0.41190  0.63660  0.88990  Biso   1.000  C
  H9       1.0000 0.82400  0.37740  0.35470  Biso   1.000  H
  H10      1.0000 0.67600  0.37740  0.14530  Biso   1.000  H
  H11      1.0000 0.17600  0.62260  0.64530  Biso   1.000  H
  H12      1.0000 0.32400  0.62260  0.85470  Biso   1.000  H
  C17      1.0000 0.99750  0.36570  0.31470  Biso   1.000  C
  C18      1.0000 0.50250  0.36570  0.18530  Biso   1.000  C
  C19      1.0000 0.00250  0.63430  0.68530  Biso   1.000  C
  C20      1.0000 0.49750  0.63430  0.81470  Biso   1.000  C
  H13      1.0000 0.96780  0.37930  0.22650  Biso   1.000  H
  H14      1.0000 0.53220  0.37930  0.27350  Biso   1.000  H
  H15      1.0000 0.03220  0.62070  0.77350  Biso   1.000  H
  H16      1.0000 0.46780  0.62070  0.72650  Biso   1.000  H
  C21      1.0000 0.16940  0.59250  0.15950  Biso   1.000  C
  C22      1.0000 0.33060  0.59250  0.34050  Biso   1.000  C
  C23      1.0000 0.83060  0.40750  0.84050  Biso   1.000  C
  C24      1.0000 0.66940  0.40750  0.65950  Biso   1.000  C
  H17      1.0000 0.11210  0.54970  0.09510  Biso   1.000  H
  H18      1.0000 0.38790  0.54970  0.40490  Biso   1.000  H
  H19      1.0000 0.88790  0.45030  0.90490  Biso   1.000  H
  H20      1.0000 0.61210  0.45030  0.59510  Biso   1.000  H
  C25      1.0000 0.16760  0.71640  0.15750  Biso   1.000  C
  C26      1.0000 0.33240  0.71640  0.34250  Biso   1.000  C
  C27      1.0000 0.83240  0.28360  0.84250  Biso   1.000  C
  C28      1.0000 0.66760  0.28360  0.65750  Biso   1.000  C
  H21      1.0000 0.10940  0.75750  0.09230  Biso   1.000  H
  H22      1.0000 0.39060  0.75750  0.40770  Biso   1.000  H
  H23      1.0000 0.89060  0.24250  0.90770  Biso   1.000  H
  H24      1.0000 0.60940  0.24250  0.59230  Biso   1.000  H
  C29      1.0000 0.25000  0.78100  0.25000  Biso   1.000  C
  C30      1.0000 0.75000  0.21900  0.75000  Biso   1.000  C
  C31      1.0000 0.25000  0.91530  0.25000  Biso   1.000  C
  C32      1.0000 0.75000  0.08470  0.75000  Biso   1.000  C
  C33      1.0000 0.13940  0.97790  0.20640  Biso   1.000  C
  C34      1.0000 0.36060  0.97790  0.29360  Biso   1.000  C
  C35      1.0000 0.86060  0.02210  0.79360  Biso   1.000  C
  C36      1.0000 0.63940  0.02210  0.70640  Biso   1.000  C
  H25      1.0000 0.06150  0.93660  0.17530  Biso   1.000  H
  H26      1.0000 0.43850  0.93660  0.32470  Biso   1.000  H
  H27      1.0000 0.93850  0.06340  0.82470  Biso   1.000  H
  H28      1.0000 0.56150  0.06340  0.67530  Biso   1.000  H
  C37      1.0000 0.14270  0.10180  0.20820  Biso   1.000  C
  C38      1.0000 0.35730  0.10180  0.29180  Biso   1.000  C
  C39      1.0000 0.85730  0.89820  0.79180  Biso   1.000  C
  C40      1.0000 0.64270  0.89820  0.70820  Biso   1.000  C
  H29      1.0000 0.06550  0.14470  0.17860  Biso   1.000  H
  H30      1.0000 0.43450  0.14470  0.32140  Biso   1.000  H
  H31      1.0000 0.93450  0.85530  0.82140  Biso   1.000  H
  H32      1.0000 0.56550  0.85530  0.67860  Biso   1.000  H
  O13      1.0000 0.30010  0.94710  0.61710  Biso   1.000  O
  O14      1.0000 0.19990  0.94710  0.88290  Biso   1.000  O
  O15      1.0000 0.69990  0.05290  0.38290  Biso   1.000  O
  O16      1.0000 0.80010  0.05290  0.11710  Biso   1.000  O
  H33      1.0000 0.33950  0.01370  0.62680  Biso   1.000  H
  H34      1.0000 0.16050  0.01370  0.87320  Biso   1.000  H
  H35      1.0000 0.66050  0.98630  0.37320  Biso   1.000  H
  H36      1.0000 0.83950  0.98630  0.12680  Biso   1.000  H
  H37      1.0000 0.27310  0.94710  0.68500  Biso   1.000  H
  H38      1.0000 0.22690  0.94710  0.81500  Biso   1.000  H
  H39      1.0000 0.72690  0.05290  0.31500  Biso   1.000  H
  H40      1.0000 0.77310  0.05290  0.18500  Biso   1.000  H
