data_image0
_cell_length_a       10.748
_cell_length_b       11.127
_cell_length_c       10.84
_cell_angle_alpha    90
_cell_angle_beta     102.4
_cell_angle_gamma    90

_symmetry_space_group_name_H-M    "P 1"
_symmetry_int_tables_number       1

loop_
  _symmetry_equiv_pos_as_xyz
  'x, y, z'

loop_
  _atom_site_label
  _atom_site_occupancy
  _atom_site_fract_x
  _atom_site_fract_y
  _atom_site_fract_z
  _atom_site_thermal_displace_type
  _atom_site_B_iso_or_equiv
  _atom_site_type_symbol
  Cu1      1.0000 0.75000  0.65178  0.75000  Biso   1.000  Cu
  Cu2      1.0000 0.25000  0.34822  0.25000  Biso   1.000  Cu
  S1       1.0000 0.83114  0.67205  0.05089  Biso   1.000  S
  S2       1.0000 0.66886  0.67205  0.44911  Biso   1.000  S
  S3       1.0000 0.16886  0.32795  0.94911  Biso   1.000  S
  S4       1.0000 0.33114  0.32795  0.55089  Biso   1.000  S
  O1       1.0000 0.89010  0.66470  0.94230  Biso   1.000  O
  O2       1.0000 0.60990  0.66470  0.55770  Biso   1.000  O
  O3       1.0000 0.10990  0.33530  0.05770  Biso   1.000  O
  O4       1.0000 0.39010  0.33530  0.44230  Biso   1.000  O
  O5       1.0000 0.85430  0.78440  0.11720  Biso   1.000  O
  O6       1.0000 0.64570  0.78440  0.38280  Biso   1.000  O
  O7       1.0000 0.14570  0.21560  0.88280  Biso   1.000  O
  O8       1.0000 0.35430  0.21560  0.61720  Biso   1.000  O
  O9       1.0000 0.85490  0.56750  0.13080  Biso   1.000  O
  O10      1.0000 0.64510  0.56750  0.36920  Biso   1.000  O
  O11      1.0000 0.14510  0.43250  0.86920  Biso   1.000  O
  O12      1.0000 0.35490  0.43250  0.63080  Biso   1.000  O
  N1       1.0000 0.62210  0.65060  0.86280  Biso   1.000  N
  N2       1.0000 0.87790  0.65060  0.63720  Biso   1.000  N
  N3       1.0000 0.37790  0.34940  0.13720  Biso   1.000  N
  N4       1.0000 0.12210  0.34940  0.36280  Biso   1.000  N
  N5       1.0000 0.75000  0.46890  0.75000  Biso   1.000  N
  N6       1.0000 0.25000  0.53110  0.25000  Biso   1.000  N
  N7       1.0000 0.75000  0.83650  0.75000  Biso   1.000  N
  N8       1.0000 0.25000  0.16350  0.25000  Biso   1.000  N
  C1       1.0000 0.66250  0.66690  0.98780  Biso   1.000  C
  C2       1.0000 0.83750  0.66690  0.51220  Biso   1.000  C
  C3       1.0000 0.33750  0.33310  0.01220  Biso   1.000  C
  C4       1.0000 0.16250  0.33310  0.48780  Biso   1.000  C
  C5       1.0000 0.58020  0.67140  0.06920  Biso   1.000  C
  C6       1.0000 0.91980  0.67140  0.43080  Biso   1.000  C
  C7       1.0000 0.41980  0.32860  0.93080  Biso   1.000  C
  C8       1.0000 0.08020  0.32860  0.56920  Biso   1.000  C
  H1       1.0000 0.61050  0.68340  0.15540  Biso   1.000  H
  H2       1.0000 0.88950  0.68340  0.34460  Biso   1.000  H
  H3       1.0000 0.38950  0.31660  0.84460  Biso   1.000  H
  H4       1.0000 0.11050  0.31660  0.65540  Biso   1.000  H
  C9       1.0000 0.45240  0.65780  0.01950  Biso   1.000  C
  C10      1.0000 0.04760  0.65780  0.48050  Biso   1.000  C
  C11      1.0000 0.54760  0.34220  0.98050  Biso   1.000  C
  C12      1.0000 0.95240  0.34220  0.51950  Biso   1.000  C
  H5       1.0000 0.39430  0.66230  0.07180  Biso   1.000  H
  H6       1.0000 0.10570  0.66230  0.42820  Biso   1.000  H
  H7       1.0000 0.60570  0.33770  0.92820  Biso   1.000  H
  H8       1.0000 0.89430  0.33770  0.57180  Biso   1.000  H
  C13      1.0000 0.40990  0.63730  0.89150  Biso   1.000  C
  C14      1.0000 0.09010  0.63730  0.60850  Biso   1.000  C
  C15      1.0000 0.59010  0.36270  0.10850  Biso   1.000  C
  C16      1.0000 0.90990  0.36270  0.39150  Biso   1.000  C
  H9       1.0000 0.32380  0.62480  0.85730  Biso   1.000  H
  H10      1.0000 0.17620  0.62480  0.64270  Biso   1.000  H
  H11      1.0000 0.67620  0.37520  0.14270  Biso   1.000  H
  H12      1.0000 0.82380  0.37520  0.35730  Biso   1.000  H
  C17      1.0000 0.49770  0.63590  0.81610  Biso   1.000  C
  C18      1.0000 0.00230  0.63590  0.68390  Biso   1.000  C
  C19      1.0000 0.50230  0.36410  0.18390  Biso   1.000  C
  C20      1.0000 0.99770  0.36410  0.31610  Biso   1.000  C
  H13      1.0000 0.46950  0.62430  0.72960  Biso   1.000  H
  H14      1.0000 0.03050  0.62430  0.77040  Biso   1.000  H
  H15      1.0000 0.53050  0.37570  0.27040  Biso   1.000  H
  H16      1.0000 0.96950  0.37570  0.22960  Biso   1.000  H
  C21      1.0000 0.66870  0.40740  0.66150  Biso   1.000  C
  C22      1.0000 0.83130  0.40740  0.83850  Biso   1.000  C
  C23      1.0000 0.33130  0.59260  0.33850  Biso   1.000  C
  C24      1.0000 0.16870  0.59260  0.16150  Biso   1.000  C
  H17      1.0000 0.61180  0.44970  0.60010  Biso   1.000  H
  H18      1.0000 0.88820  0.44970  0.89990  Biso   1.000  H
  H19      1.0000 0.38820  0.55030  0.39990  Biso   1.000  H
  H20      1.0000 0.11180  0.55030  0.10010  Biso   1.000  H
  C25      1.0000 0.66640  0.28330  0.65830  Biso   1.000  C
  C26      1.0000 0.83360  0.28330  0.84170  Biso   1.000  C
  C27      1.0000 0.33360  0.71670  0.34170  Biso   1.000  C
  C28      1.0000 0.16640  0.71670  0.15830  Biso   1.000  C
  H21      1.0000 0.60920  0.24330  0.59510  Biso   1.000  H
  H22      1.0000 0.89080  0.24330  0.90490  Biso   1.000  H
  H23      1.0000 0.39080  0.75670  0.40490  Biso   1.000  H
  H24      1.0000 0.10920  0.75670  0.09510  Biso   1.000  H
  C29      1.0000 0.75000  0.21860  0.75000  Biso   1.000  C
  C30      1.0000 0.25000  0.78140  0.25000  Biso   1.000  C
  C31      1.0000 0.75000  0.08590  0.75000  Biso   1.000  C
  C32      1.0000 0.25000  0.91410  0.25000  Biso   1.000  C
  C33      1.0000 0.63810  0.02170  0.70660  Biso   1.000  C
  C34      1.0000 0.86190  0.02170  0.79340  Biso   1.000  C
  C35      1.0000 0.36190  0.97830  0.29340  Biso   1.000  C
  C36      1.0000 0.13810  0.97830  0.20660  Biso   1.000  C
  H25      1.0000 0.56160  0.06170  0.67660  Biso   1.000  H
  H26      1.0000 0.93840  0.06170  0.82340  Biso   1.000  H
  H27      1.0000 0.43840  0.93830  0.32340  Biso   1.000  H
  H28      1.0000 0.06160  0.93830  0.17660  Biso   1.000  H
  C37      1.0000 0.64250  0.89760  0.70870  Biso   1.000  C
  C38      1.0000 0.85750  0.89760  0.79130  Biso   1.000  C
  C39      1.0000 0.35750  0.10240  0.29130  Biso   1.000  C
  C40      1.0000 0.14250  0.10240  0.20870  Biso   1.000  C
  H29      1.0000 0.56500  0.85360  0.67930  Biso   1.000  H
  H30      1.0000 0.93500  0.85360  0.82070  Biso   1.000  H
  H31      1.0000 0.43500  0.14640  0.32070  Biso   1.000  H
  H32      1.0000 0.06500  0.14640  0.17930  Biso   1.000  H
  O13      1.0000 0.19320  0.97610  0.57300  Biso   1.000  O
  O14      1.0000 0.30680  0.97610  0.92700  Biso   1.000  O
  O15      1.0000 0.80680  0.02390  0.42700  Biso   1.000  O
  O16      1.0000 0.69320  0.02390  0.07300  Biso   1.000  O
  H33      1.0000 0.14590  0.92260  0.53830  Biso   1.000  H
  H34      1.0000 0.35410  0.92260  0.96170  Biso   1.000  H
  H35      1.0000 0.85410  0.07740  0.46170  Biso   1.000  H
  H36      1.0000 0.64590  0.07740  0.03830  Biso   1.000  H
  C41      1.0000 0.30930  0.92800  0.63000  Biso   1.000  C
  C42      1.0000 0.19070  0.92800  0.87000  Biso   1.000  C
  C43      1.0000 0.69070  0.07200  0.37000  Biso   1.000  C
  C44      1.0000 0.80930  0.07200  0.13000  Biso   1.000  C
  H37      1.0000 0.37650  0.97720  0.61250  Biso   1.000  H
  H38      1.0000 0.12350  0.97720  0.88750  Biso   1.000  H
  H39      1.0000 0.62350  0.02280  0.38750  Biso   1.000  H
  H40      1.0000 0.87650  0.02280  0.11250  Biso   1.000  H
  H41      1.0000 0.31660  0.84820  0.59750  Biso   1.000  H
  H42      1.0000 0.18340  0.84820  0.90250  Biso   1.000  H
  H43      1.0000 0.68340  0.15180  0.40250  Biso   1.000  H
  H44      1.0000 0.81660  0.15180  0.09750  Biso   1.000  H
  H45      1.0000 0.31570  0.92340  0.71950  Biso   1.000  H
  H46      1.0000 0.18430  0.92340  0.78050  Biso   1.000  H
  H47      1.0000 0.68430  0.07660  0.28050  Biso   1.000  H
  H48      1.0000 0.81570  0.07660  0.21950  Biso   1.000  H
