data_image0
_cell_length_a       10.0804
_cell_length_b       28.864
_cell_length_c       11.4871
_cell_angle_alpha    90
_cell_angle_beta     105.198
_cell_angle_gamma    90

_symmetry_space_group_name_H-M    "P 1"
_symmetry_int_tables_number       1

loop_
  _symmetry_equiv_pos_as_xyz
  'x, y, z'

loop_
  _atom_site_label
  _atom_site_occupancy
  _atom_site_fract_x
  _atom_site_fract_y
  _atom_site_fract_z
  _atom_site_thermal_displace_type
  _atom_site_B_iso_or_equiv
  _atom_site_type_symbol
  Cu1      1.0000 0.82571  0.39302  0.65964  Biso   1.000  Cu
  Cu2      1.0000 0.32571  0.60698  0.65964  Biso   1.000  Cu
  Cu3      1.0000 0.32571  0.89302  0.15964  Biso   1.000  Cu
  Cu4      1.0000 0.82571  0.10698  0.15964  Biso   1.000  Cu
  O1       1.0000 0.91790  0.33315  0.53280  Biso   1.000  O
  O2       1.0000 0.41790  0.66685  0.53280  Biso   1.000  O
  O3       1.0000 0.41790  0.83315  0.03280  Biso   1.000  O
  O4       1.0000 0.91790  0.16685  0.03280  Biso   1.000  O
  O5       1.0000 0.02330  0.38541  0.66740  Biso   1.000  O
  O6       1.0000 0.52330  0.61459  0.66740  Biso   1.000  O
  O7       1.0000 0.52330  0.88541  0.16740  Biso   1.000  O
  O8       1.0000 0.02330  0.11459  0.16740  Biso   1.000  O
  O9       1.0000 0.53170  0.41433  0.72240  Biso   1.000  O
  O10      1.0000 0.03170  0.58567  0.72240  Biso   1.000  O
  O11      1.0000 0.03170  0.91433  0.22240  Biso   1.000  O
  O12      1.0000 0.53170  0.08567  0.22240  Biso   1.000  O
  O13      1.0000 0.62860  0.37846  0.59410  Biso   1.000  O
  O14      1.0000 0.12860  0.62154  0.59410  Biso   1.000  O
  O15      1.0000 0.12860  0.87846  0.09410  Biso   1.000  O
  O16      1.0000 0.62860  0.12154  0.09410  Biso   1.000  O
  O17      1.0000 0.79540  0.44357  0.80380  Biso   1.000  O
  O18      1.0000 0.29540  0.55643  0.80380  Biso   1.000  O
  O19      1.0000 0.29540  0.94357  0.30380  Biso   1.000  O
  O20      1.0000 0.79540  0.05643  0.30380  Biso   1.000  O
  H1       1.0000 0.80670  0.47450  0.80530  Biso   1.000  H
  H2       1.0000 0.30670  0.52550  0.80530  Biso   1.000  H
  H3       1.0000 0.30670  0.97450  0.30530  Biso   1.000  H
  H4       1.0000 0.80670  0.02550  0.30530  Biso   1.000  H
  H5       1.0000 0.69920  0.44110  0.77910  Biso   1.000  H
  H6       1.0000 0.19920  0.55890  0.77910  Biso   1.000  H
  H7       1.0000 0.19920  0.94110  0.27910  Biso   1.000  H
  H8       1.0000 0.69920  0.05890  0.27910  Biso   1.000  H
  O21      1.0000 0.96730  0.38898  0.27620  Biso   1.000  O
  O22      1.0000 0.46730  0.61102  0.27620  Biso   1.000  O
  O23      1.0000 0.46730  0.88898  0.77620  Biso   1.000  O
  O24      1.0000 0.96730  0.11102  0.77620  Biso   1.000  O
  O25      1.0000 0.65780  0.22390  0.61430  Biso   1.000  O
  O26      1.0000 0.15780  0.77610  0.61430  Biso   1.000  O
  O27      1.0000 0.15780  0.72390  0.11430  Biso   1.000  O
  O28      1.0000 0.65780  0.27610  0.11430  Biso   1.000  O
  N1       1.0000 0.81580  0.44591  0.53720  Biso   1.000  N
  N2       1.0000 0.31580  0.55409  0.53720  Biso   1.000  N
  N3       1.0000 0.31580  0.94591  0.03720  Biso   1.000  N
  N4       1.0000 0.81580  0.05409  0.03720  Biso   1.000  N
  N5       1.0000 0.94570  0.46810  0.27020  Biso   1.000  N
  N6       1.0000 0.44570  0.53190  0.27020  Biso   1.000  N
  N7       1.0000 0.44570  0.96810  0.77020  Biso   1.000  N
  N8       1.0000 0.94570  0.03190  0.77020  Biso   1.000  N
  H9       1.0000 0.96060  0.49290  0.23100  Biso   1.000  H
  H10      1.0000 0.46060  0.50710  0.23100  Biso   1.000  H
  H11      1.0000 0.46060  0.99290  0.73100  Biso   1.000  H
  H12      1.0000 0.96060  0.00710  0.73100  Biso   1.000  H
  N9       1.0000 0.22280  0.42941  0.97590  Biso   1.000  N
  N10      1.0000 0.72280  0.57059  0.97590  Biso   1.000  N
  N11      1.0000 0.72280  0.92941  0.47590  Biso   1.000  N
  N12      1.0000 0.22280  0.07059  0.47590  Biso   1.000  N
  N13      1.0000 0.84170  0.34248  0.78530  Biso   1.000  N
  N14      1.0000 0.34170  0.65752  0.78530  Biso   1.000  N
  N15      1.0000 0.34170  0.84248  0.28530  Biso   1.000  N
  N16      1.0000 0.84170  0.15752  0.28530  Biso   1.000  N
  N17      1.0000 0.77660  0.21742  0.81250  Biso   1.000  N
  N18      1.0000 0.27660  0.78258  0.81250  Biso   1.000  N
  N19      1.0000 0.27660  0.71742  0.31250  Biso   1.000  N
  N20      1.0000 0.77660  0.28258  0.31250  Biso   1.000  N
  H13      1.0000 0.80710  0.19700  0.87010  Biso   1.000  H
  H14      1.0000 0.30710  0.80300  0.87010  Biso   1.000  H
  H15      1.0000 0.30710  0.69700  0.37010  Biso   1.000  H
  H16      1.0000 0.80710  0.30300  0.37010  Biso   1.000  H
  N21      1.0000 0.55290  0.06040  0.70270  Biso   1.000  N
  N22      1.0000 0.05290  0.93960  0.70270  Biso   1.000  N
  N23      1.0000 0.05290  0.56040  0.20270  Biso   1.000  N
  N24      1.0000 0.55290  0.43960  0.20270  Biso   1.000  N
  C1       1.0000 0.75310  0.48593  0.54390  Biso   1.000  C
  C2       1.0000 0.25310  0.51407  0.54390  Biso   1.000  C
  C3       1.0000 0.25310  0.98593  0.04390  Biso   1.000  C
  C4       1.0000 0.75310  0.01407  0.04390  Biso   1.000  C
  H17      1.0000 0.70580  0.48980  0.60480  Biso   1.000  H
  H18      1.0000 0.20580  0.51020  0.60480  Biso   1.000  H
  H19      1.0000 0.20580  0.98980  0.10480  Biso   1.000  H
  H20      1.0000 0.70580  0.01020  0.10480  Biso   1.000  H
  C5       1.0000 0.75420  0.52248  0.46470  Biso   1.000  C
  C6       1.0000 0.25420  0.47752  0.46470  Biso   1.000  C
  C7       1.0000 0.25420  0.02248  0.96470  Biso   1.000  C
  C8       1.0000 0.75420  0.97752  0.96470  Biso   1.000  C
  H21      1.0000 0.71130  0.55110  0.47350  Biso   1.000  H
  H22      1.0000 0.21130  0.44890  0.47350  Biso   1.000  H
  H23      1.0000 0.21130  0.05110  0.97350  Biso   1.000  H
  H24      1.0000 0.71130  0.94890  0.97350  Biso   1.000  H
  C9       1.0000 0.81800  0.51643  0.37400  Biso   1.000  C
  C10      1.0000 0.31800  0.48357  0.37400  Biso   1.000  C
  C11      1.0000 0.31800  0.01643  0.87400  Biso   1.000  C
  C12      1.0000 0.81800  0.98357  0.87400  Biso   1.000  C
  H25      1.0000 0.81980  0.54090  0.31900  Biso   1.000  H
  H26      1.0000 0.31980  0.45910  0.31900  Biso   1.000  H
  H27      1.0000 0.31980  0.04090  0.81900  Biso   1.000  H
  H28      1.0000 0.81980  0.95910  0.81900  Biso   1.000  H
  C13      1.0000 0.88010  0.47422  0.36330  Biso   1.000  C
  C14      1.0000 0.38010  0.52578  0.36330  Biso   1.000  C
  C15      1.0000 0.38010  0.97422  0.86330  Biso   1.000  C
  C16      1.0000 0.88010  0.02578  0.86330  Biso   1.000  C
  C17      1.0000 0.87800  0.44010  0.44810  Biso   1.000  C
  C18      1.0000 0.37800  0.55990  0.44810  Biso   1.000  C
  C19      1.0000 0.37800  0.94010  0.94810  Biso   1.000  C
  C20      1.0000 0.87800  0.05990  0.94810  Biso   1.000  C
  H29      1.0000 0.92250  0.41140  0.44290  Biso   1.000  H
  H30      1.0000 0.42250  0.58860  0.44290  Biso   1.000  H
  H31      1.0000 0.42250  0.91140  0.94290  Biso   1.000  H
  H32      1.0000 0.92250  0.08860  0.94290  Biso   1.000  H
  C21      1.0000 0.98760  0.42652  0.23650  Biso   1.000  C
  C22      1.0000 0.48760  0.57348  0.23650  Biso   1.000  C
  C23      1.0000 0.48760  0.92652  0.73650  Biso   1.000  C
  C24      1.0000 0.98760  0.07348  0.73650  Biso   1.000  C
  C25      1.0000 0.24610  0.39765  0.06480  Biso   1.000  C
  C26      1.0000 0.74610  0.60235  0.06480  Biso   1.000  C
  C27      1.0000 0.74610  0.89765  0.56480  Biso   1.000  C
  C28      1.0000 0.24610  0.10235  0.56480  Biso   1.000  C
  H33      1.0000 0.31660  0.37540  0.06960  Biso   1.000  H
  H34      1.0000 0.81660  0.62460  0.06960  Biso   1.000  H
  H35      1.0000 0.81660  0.87540  0.56960  Biso   1.000  H
  H36      1.0000 0.31660  0.12460  0.56960  Biso   1.000  H
  C29      1.0000 0.17050  0.39646  0.14930  Biso   1.000  C
  C30      1.0000 0.67050  0.60354  0.14930  Biso   1.000  C
  C31      1.0000 0.67050  0.89646  0.64930  Biso   1.000  C
  C32      1.0000 0.17050  0.10354  0.64930  Biso   1.000  C
  H37      1.0000 0.18850  0.37350  0.21080  Biso   1.000  H
  H38      1.0000 0.68850  0.62650  0.21080  Biso   1.000  H
  H39      1.0000 0.68850  0.87350  0.71080  Biso   1.000  H
  H40      1.0000 0.18850  0.12650  0.71080  Biso   1.000  H
  C33      1.0000 0.06760  0.42926  0.14320  Biso   1.000  C
  C34      1.0000 0.56760  0.57074  0.14320  Biso   1.000  C
  C35      1.0000 0.56760  0.92926  0.64320  Biso   1.000  C
  C36      1.0000 0.06760  0.07074  0.64320  Biso   1.000  C
  C37      1.0000 0.04290  0.46126  0.05070  Biso   1.000  C
  C38      1.0000 0.54290  0.53874  0.05070  Biso   1.000  C
  C39      1.0000 0.54290  0.96126  0.55070  Biso   1.000  C
  C40      1.0000 0.04290  0.03874  0.55070  Biso   1.000  C
  H41      1.0000 0.97280  0.48390  0.04330  Biso   1.000  H
  H42      1.0000 0.47280  0.51610  0.04330  Biso   1.000  H
  H43      1.0000 0.47280  0.98390  0.54330  Biso   1.000  H
  H44      1.0000 0.97280  0.01610  0.54330  Biso   1.000  H
  C41      1.0000 0.12280  0.45979  0.96850  Biso   1.000  C
  C42      1.0000 0.62280  0.54021  0.96850  Biso   1.000  C
  C43      1.0000 0.62280  0.95979  0.46850  Biso   1.000  C
  C44      1.0000 0.12280  0.04021  0.46850  Biso   1.000  C
  H45      1.0000 0.10460  0.48160  0.90440  Biso   1.000  H
  H46      1.0000 0.60460  0.51840  0.90440  Biso   1.000  H
  H47      1.0000 0.60460  0.98160  0.40440  Biso   1.000  H
  H48      1.0000 0.10460  0.01840  0.40440  Biso   1.000  H
  C45      1.0000 0.80000  0.29925  0.75380  Biso   1.000  C
  C46      1.0000 0.30000  0.70075  0.75380  Biso   1.000  C
  C47      1.0000 0.30000  0.79925  0.25380  Biso   1.000  C
  C48      1.0000 0.80000  0.20075  0.25380  Biso   1.000  C
  H49      1.0000 0.75880  0.29240  0.67130  Biso   1.000  H
  H50      1.0000 0.25880  0.70760  0.67130  Biso   1.000  H
  H51      1.0000 0.25880  0.79240  0.17130  Biso   1.000  H
  H52      1.0000 0.75880  0.20760  0.17130  Biso   1.000  H
  C49      1.0000 0.81570  0.26382  0.83990  Biso   1.000  C
  C50      1.0000 0.31570  0.73618  0.83990  Biso   1.000  C
  C51      1.0000 0.31570  0.76382  0.33990  Biso   1.000  C
  C52      1.0000 0.81570  0.23618  0.33990  Biso   1.000  C
  C53      1.0000 0.87400  0.27472  0.96070  Biso   1.000  C
  C54      1.0000 0.37400  0.72528  0.96070  Biso   1.000  C
  C55      1.0000 0.37400  0.77472  0.46070  Biso   1.000  C
  C56      1.0000 0.87400  0.22528  0.46070  Biso   1.000  C
  H53      1.0000 0.88560  0.25150  0.02110  Biso   1.000  H
  H54      1.0000 0.38560  0.74850  0.02110  Biso   1.000  H
  H55      1.0000 0.38560  0.75150  0.52110  Biso   1.000  H
  H56      1.0000 0.88560  0.24850  0.52110  Biso   1.000  H
  C57      1.0000 0.91440  0.31956  0.99100  Biso   1.000  C
  C58      1.0000 0.41440  0.68044  0.99100  Biso   1.000  C
  C59      1.0000 0.41440  0.81956  0.49100  Biso   1.000  C
  C60      1.0000 0.91440  0.18044  0.49100  Biso   1.000  C
  H57      1.0000 0.95290  0.32780  0.07300  Biso   1.000  H
  H58      1.0000 0.45290  0.67220  0.07300  Biso   1.000  H
  H59      1.0000 0.45290  0.82780  0.57300  Biso   1.000  H
  H60      1.0000 0.95290  0.17220  0.57300  Biso   1.000  H
  C61      1.0000 0.89860  0.35241  0.90180  Biso   1.000  C
  C62      1.0000 0.39860  0.64759  0.90180  Biso   1.000  C
  C63      1.0000 0.39860  0.85241  0.40180  Biso   1.000  C
  C64      1.0000 0.89860  0.14759  0.40180  Biso   1.000  C
  H61      1.0000 0.92900  0.38310  0.92330  Biso   1.000  H
  H62      1.0000 0.42900  0.61690  0.92330  Biso   1.000  H
  H63      1.0000 0.42900  0.88310  0.42330  Biso   1.000  H
  H64      1.0000 0.92900  0.11690  0.42330  Biso   1.000  H
  C65      1.0000 0.69650  0.20089  0.70640  Biso   1.000  C
  C66      1.0000 0.19650  0.79911  0.70640  Biso   1.000  C
  C67      1.0000 0.19650  0.70089  0.20640  Biso   1.000  C
  C68      1.0000 0.69650  0.29911  0.20640  Biso   1.000  C
  C69      1.0000 0.57460  0.08680  0.80190  Biso   1.000  C
  C70      1.0000 0.07460  0.91320  0.80190  Biso   1.000  C
  C71      1.0000 0.07460  0.58680  0.30190  Biso   1.000  C
  C72      1.0000 0.57460  0.41320  0.30190  Biso   1.000  C
  H65      1.0000 0.55380  0.07390  0.87110  Biso   1.000  H
  H66      1.0000 0.05380  0.92610  0.87110  Biso   1.000  H
  H67      1.0000 0.05380  0.57390  0.37110  Biso   1.000  H
  H68      1.0000 0.55380  0.42610  0.37110  Biso   1.000  H
  C73      1.0000 0.62500  0.13132  0.81000  Biso   1.000  C
  C74      1.0000 0.12500  0.86868  0.81000  Biso   1.000  C
  C75      1.0000 0.12500  0.63132  0.31000  Biso   1.000  C
  C76      1.0000 0.62500  0.36868  0.31000  Biso   1.000  C
  H69      1.0000 0.64080  0.14810  0.88360  Biso   1.000  H
  H70      1.0000 0.14080  0.85190  0.88360  Biso   1.000  H
  H71      1.0000 0.14080  0.64810  0.38360  Biso   1.000  H
  H72      1.0000 0.64080  0.35190  0.38360  Biso   1.000  H
  C77      1.0000 0.65220  0.15123  0.70890  Biso   1.000  C
  C78      1.0000 0.15220  0.84877  0.70890  Biso   1.000  C
  C79      1.0000 0.15220  0.65123  0.20890  Biso   1.000  C
  C80      1.0000 0.65220  0.34877  0.20890  Biso   1.000  C
  C81      1.0000 0.62840  0.12493  0.60480  Biso   1.000  C
  C82      1.0000 0.12840  0.87507  0.60480  Biso   1.000  C
  C83      1.0000 0.12840  0.62493  0.10480  Biso   1.000  C
  C84      1.0000 0.62840  0.37507  0.10480  Biso   1.000  C
  H73      1.0000 0.64350  0.13780  0.53320  Biso   1.000  H
  H74      1.0000 0.14350  0.86220  0.53320  Biso   1.000  H
  H75      1.0000 0.14350  0.63780  0.03320  Biso   1.000  H
  H76      1.0000 0.64350  0.36220  0.03320  Biso   1.000  H
  C85      1.0000 0.58250  0.07990  0.60570  Biso   1.000  C
  C86      1.0000 0.08250  0.92010  0.60570  Biso   1.000  C
  C87      1.0000 0.08250  0.57990  0.10570  Biso   1.000  C
  C88      1.0000 0.58250  0.42010  0.10570  Biso   1.000  C
  H77      1.0000 0.57130  0.06180  0.53470  Biso   1.000  H
  H78      1.0000 0.07130  0.93820  0.53470  Biso   1.000  H
  H79      1.0000 0.07130  0.56180  0.03470  Biso   1.000  H
  H80      1.0000 0.57130  0.43820  0.03470  Biso   1.000  H
  C89      1.0000 0.02410  0.35379  0.58840  Biso   1.000  C
  C90      1.0000 0.52410  0.64621  0.58840  Biso   1.000  C
  C91      1.0000 0.52410  0.85379  0.08840  Biso   1.000  C
  C92      1.0000 0.02410  0.14621  0.08840  Biso   1.000  C
  C93      1.0000 0.16060  0.34332  0.56220  Biso   1.000  C
  C94      1.0000 0.66060  0.65668  0.56220  Biso   1.000  C
  C95      1.0000 0.66060  0.84332  0.06220  Biso   1.000  C
  C96      1.0000 0.16060  0.15668  0.06220  Biso   1.000  C
  C97      1.0000 0.27800  0.36821  0.61550  Biso   1.000  C
  C98      1.0000 0.77800  0.63179  0.61550  Biso   1.000  C
  C99      1.0000 0.77800  0.86821  0.11550  Biso   1.000  C
  C100     1.0000 0.27800  0.13179  0.11550  Biso   1.000  C
  H81      1.0000 0.27520  0.39180  0.67240  Biso   1.000  H
  H82      1.0000 0.77520  0.60820  0.67240  Biso   1.000  H
  H83      1.0000 0.77520  0.89180  0.17240  Biso   1.000  H
  H84      1.0000 0.27520  0.10820  0.17240  Biso   1.000  H
  C101     1.0000 0.40050  0.35860  0.58570  Biso   1.000  C
  C102     1.0000 0.90050  0.64140  0.58570  Biso   1.000  C
  C103     1.0000 0.90050  0.85860  0.08570  Biso   1.000  C
  C104     1.0000 0.40050  0.14140  0.08570  Biso   1.000  C
  C105     1.0000 0.40270  0.32301  0.50390  Biso   1.000  C
  C106     1.0000 0.90270  0.67699  0.50390  Biso   1.000  C
  C107     1.0000 0.90270  0.82301  0.00390  Biso   1.000  C
  C108     1.0000 0.40270  0.17699  0.00390  Biso   1.000  C
  H85      1.0000 0.48690  0.31610  0.48500  Biso   1.000  H
  H86      1.0000 0.98690  0.68390  0.48500  Biso   1.000  H
  H87      1.0000 0.98690  0.81610  0.98500  Biso   1.000  H
  H88      1.0000 0.48690  0.18390  0.98500  Biso   1.000  H
  C109     1.0000 0.28690  0.29740  0.44920  Biso   1.000  C
  C110     1.0000 0.78690  0.70260  0.44920  Biso   1.000  C
  C111     1.0000 0.78690  0.79740  0.94920  Biso   1.000  C
  C112     1.0000 0.28690  0.20260  0.94920  Biso   1.000  C
  C113     1.0000 0.16430  0.30890  0.47910  Biso   1.000  C
  C114     1.0000 0.66430  0.69110  0.47910  Biso   1.000  C
  C115     1.0000 0.66430  0.80890  0.97910  Biso   1.000  C
  C116     1.0000 0.16430  0.19110  0.97910  Biso   1.000  C
  H89      1.0000 0.08220  0.29270  0.44140  Biso   1.000  H
  H90      1.0000 0.58220  0.70730  0.44140  Biso   1.000  H
  H91      1.0000 0.58220  0.79270  0.94140  Biso   1.000  H
  H92      1.0000 0.08220  0.20730  0.94140  Biso   1.000  H
  C117     1.0000 0.28760  0.25724  0.36160  Biso   1.000  C
  C118     1.0000 0.78760  0.74276  0.36160  Biso   1.000  C
  C119     1.0000 0.78760  0.75724  0.86160  Biso   1.000  C
  C120     1.0000 0.28760  0.24276  0.86160  Biso   1.000  C
  C121     1.0000 0.16460  0.26096  0.25230  Biso   1.000  C
  C122     1.0000 0.66460  0.73904  0.25230  Biso   1.000  C
  C123     1.0000 0.66460  0.76096  0.75230  Biso   1.000  C
  C124     1.0000 0.16460  0.23904  0.75230  Biso   1.000  C
  H93      1.0000 0.07970  0.26120  0.27880  Biso   1.000  H
  H94      1.0000 0.57970  0.73880  0.27880  Biso   1.000  H
  H95      1.0000 0.57970  0.76120  0.77880  Biso   1.000  H
  H96      1.0000 0.07970  0.23880  0.77880  Biso   1.000  H
  H97      1.0000 0.16370  0.23440  0.19890  Biso   1.000  H
  H98      1.0000 0.66370  0.76560  0.19890  Biso   1.000  H
  H99      1.0000 0.66370  0.73440  0.69890  Biso   1.000  H
  H100     1.0000 0.16370  0.26560  0.69890  Biso   1.000  H
  H101     1.0000 0.17090  0.28970  0.20870  Biso   1.000  H
  H102     1.0000 0.67090  0.71030  0.20870  Biso   1.000  H
  H103     1.0000 0.67090  0.78970  0.70870  Biso   1.000  H
  H104     1.0000 0.17090  0.21030  0.70870  Biso   1.000  H
  C125     1.0000 0.41810  0.25678  0.31790  Biso   1.000  C
  C126     1.0000 0.91810  0.74322  0.31790  Biso   1.000  C
  C127     1.0000 0.91810  0.75678  0.81790  Biso   1.000  C
  C128     1.0000 0.41810  0.24322  0.81790  Biso   1.000  C
  H105     1.0000 0.42350  0.28540  0.27370  Biso   1.000  H
  H106     1.0000 0.92350  0.71460  0.27370  Biso   1.000  H
  H107     1.0000 0.92350  0.78540  0.77370  Biso   1.000  H
  H108     1.0000 0.42350  0.21460  0.77370  Biso   1.000  H
  H109     1.0000 0.41600  0.23010  0.26460  Biso   1.000  H
  H110     1.0000 0.91600  0.76990  0.26460  Biso   1.000  H
  H111     1.0000 0.91600  0.73010  0.76460  Biso   1.000  H
  H112     1.0000 0.41600  0.26990  0.76460  Biso   1.000  H
  H113     1.0000 0.49850  0.25440  0.38750  Biso   1.000  H
  H114     1.0000 0.99850  0.74560  0.38750  Biso   1.000  H
  H115     1.0000 0.99850  0.75440  0.88750  Biso   1.000  H
  H116     1.0000 0.49850  0.24560  0.88750  Biso   1.000  H
  C129     1.0000 0.28080  0.21142  0.42790  Biso   1.000  C
  C130     1.0000 0.78080  0.78858  0.42790  Biso   1.000  C
  C131     1.0000 0.78080  0.71142  0.92790  Biso   1.000  C
  C132     1.0000 0.28080  0.28858  0.92790  Biso   1.000  C
  H117     1.0000 0.35940  0.20940  0.49910  Biso   1.000  H
  H118     1.0000 0.85940  0.79060  0.49910  Biso   1.000  H
  H119     1.0000 0.85940  0.70940  0.99910  Biso   1.000  H
  H120     1.0000 0.35940  0.29060  0.99910  Biso   1.000  H
  H121     1.0000 0.28330  0.18540  0.37380  Biso   1.000  H
  H122     1.0000 0.78330  0.81460  0.37380  Biso   1.000  H
  H123     1.0000 0.78330  0.68540  0.87380  Biso   1.000  H
  H124     1.0000 0.28330  0.31460  0.87380  Biso   1.000  H
  H125     1.0000 0.19520  0.21030  0.45320  Biso   1.000  H
  H126     1.0000 0.69520  0.78970  0.45320  Biso   1.000  H
  H127     1.0000 0.69520  0.71030  0.95320  Biso   1.000  H
  H128     1.0000 0.19520  0.28970  0.95320  Biso   1.000  H
  C133     1.0000 0.52930  0.38603  0.63910  Biso   1.000  C
  C134     1.0000 0.02930  0.61397  0.63910  Biso   1.000  C
  C135     1.0000 0.02930  0.88603  0.13910  Biso   1.000  C
  C136     1.0000 0.52930  0.11397  0.13910  Biso   1.000  C
  O29      1.0000 0.37320  0.46684  0.82760  Biso   1.000  O
  O30      1.0000 0.87320  0.53316  0.82760  Biso   1.000  O
  O31      1.0000 0.87320  0.96684  0.32760  Biso   1.000  O
  O32      1.0000 0.37320  0.03316  0.32760  Biso   1.000  O
  H129     1.0000 0.41800  0.45020  0.79100  Biso   1.000  H
  H130     1.0000 0.91800  0.54980  0.79100  Biso   1.000  H
  H131     1.0000 0.91800  0.95020  0.29100  Biso   1.000  H
  H132     1.0000 0.41800  0.04980  0.29100  Biso   1.000  H
  H133     1.0000 0.34000  0.45230  0.87600  Biso   1.000  H
  H134     1.0000 0.84000  0.54770  0.87600  Biso   1.000  H
  H135     1.0000 0.84000  0.95230  0.37600  Biso   1.000  H
  H136     1.0000 0.34000  0.04770  0.37600  Biso   1.000  H
