data_image0
_cell_length_a       23.205
_cell_length_b       9.0844
_cell_length_c       12.5312
_cell_angle_alpha    90
_cell_angle_beta     91.946
_cell_angle_gamma    90

_symmetry_space_group_name_H-M    "P 1"
_symmetry_int_tables_number       1

loop_
  _symmetry_equiv_pos_as_xyz
  'x, y, z'

loop_
  _atom_site_label
  _atom_site_occupancy
  _atom_site_fract_x
  _atom_site_fract_y
  _atom_site_fract_z
  _atom_site_thermal_displace_type
  _atom_site_B_iso_or_equiv
  _atom_site_type_symbol
  Cu1      1.0000 0.36456  0.24954  0.09027  Biso   1.000  Cu
  Cu2      1.0000 0.63544  0.24954  0.40973  Biso   1.000  Cu
  Cu3      1.0000 0.86456  0.74954  0.09027  Biso   1.000  Cu
  Cu4      1.0000 0.13544  0.74954  0.40973  Biso   1.000  Cu
  Cu5      1.0000 0.63544  0.75046  0.90973  Biso   1.000  Cu
  Cu6      1.0000 0.36456  0.75046  0.59027  Biso   1.000  Cu
  Cu7      1.0000 0.13544  0.25046  0.90973  Biso   1.000  Cu
  Cu8      1.0000 0.86456  0.25046  0.59027  Biso   1.000  Cu
  O1       1.0000 0.43390  0.06330  0.07590  Biso   1.000  O
  O2       1.0000 0.56610  0.06330  0.42410  Biso   1.000  O
  O3       1.0000 0.93390  0.56330  0.07590  Biso   1.000  O
  O4       1.0000 0.06610  0.56330  0.42410  Biso   1.000  O
  O5       1.0000 0.56610  0.93670  0.92410  Biso   1.000  O
  O6       1.0000 0.43390  0.93670  0.57590  Biso   1.000  O
  O7       1.0000 0.06610  0.43670  0.92410  Biso   1.000  O
  O8       1.0000 0.93390  0.43670  0.57590  Biso   1.000  O
  N1       1.0000 0.34470  0.45730  0.04300  Biso   1.000  N
  N2       1.0000 0.65530  0.45730  0.45700  Biso   1.000  N
  N3       1.0000 0.84470  0.95730  0.04300  Biso   1.000  N
  N4       1.0000 0.15530  0.95730  0.45700  Biso   1.000  N
  N5       1.0000 0.65530  0.54270  0.95700  Biso   1.000  N
  N6       1.0000 0.34470  0.54270  0.54300  Biso   1.000  N
  N7       1.0000 0.15530  0.04270  0.95700  Biso   1.000  N
  N8       1.0000 0.84470  0.04270  0.54300  Biso   1.000  N
  N9       1.0000 0.40510  0.36450  0.21220  Biso   1.000  N
  N10      1.0000 0.59490  0.36450  0.28780  Biso   1.000  N
  N11      1.0000 0.90510  0.86450  0.21220  Biso   1.000  N
  N12      1.0000 0.09490  0.86450  0.28780  Biso   1.000  N
  N13      1.0000 0.59490  0.63550  0.78780  Biso   1.000  N
  N14      1.0000 0.40510  0.63550  0.71220  Biso   1.000  N
  N15      1.0000 0.09490  0.13550  0.78780  Biso   1.000  N
  N16      1.0000 0.90510  0.13550  0.71220  Biso   1.000  N
  N17      1.0000 0.41910  0.61220  0.26850  Biso   1.000  N
  N18      1.0000 0.58090  0.61220  0.23150  Biso   1.000  N
  N19      1.0000 0.91910  0.11220  0.26850  Biso   1.000  N
  N20      1.0000 0.08090  0.11220  0.23150  Biso   1.000  N
  N21      1.0000 0.58090  0.38780  0.73150  Biso   1.000  N
  N22      1.0000 0.41910  0.38780  0.76850  Biso   1.000  N
  N23      1.0000 0.08090  0.88780  0.73150  Biso   1.000  N
  N24      1.0000 0.91910  0.88780  0.76850  Biso   1.000  N
  N25      1.0000 0.45700  0.41180  0.37400  Biso   1.000  N
  N26      1.0000 0.54300  0.41180  0.12600  Biso   1.000  N
  N27      1.0000 0.95700  0.91180  0.37400  Biso   1.000  N
  N28      1.0000 0.04300  0.91180  0.12600  Biso   1.000  N
  N29      1.0000 0.54300  0.58820  0.62600  Biso   1.000  N
  N30      1.0000 0.45700  0.58820  0.87400  Biso   1.000  N
  N31      1.0000 0.04300  0.08820  0.62600  Biso   1.000  N
  N32      1.0000 0.95700  0.08820  0.87400  Biso   1.000  N
  N33      1.0000 0.47070  0.66010  0.42420  Biso   1.000  N
  N34      1.0000 0.52930  0.66010  0.07580  Biso   1.000  N
  N35      1.0000 0.97070  0.16010  0.42420  Biso   1.000  N
  N36      1.0000 0.02930  0.16010  0.07580  Biso   1.000  N
  N37      1.0000 0.52930  0.33990  0.57580  Biso   1.000  N
  N38      1.0000 0.47070  0.33990  0.92420  Biso   1.000  N
  N39      1.0000 0.02930  0.83990  0.57580  Biso   1.000  N
  N40      1.0000 0.97070  0.83990  0.92420  Biso   1.000  N
  H1       1.0000 0.48990  0.63490  0.48120  Biso   1.000  H
  H2       1.0000 0.51010  0.63490  0.01880  Biso   1.000  H
  H3       1.0000 0.98990  0.13490  0.48120  Biso   1.000  H
  H4       1.0000 0.01010  0.13490  0.01880  Biso   1.000  H
  H5       1.0000 0.51010  0.36510  0.51880  Biso   1.000  H
  H6       1.0000 0.48990  0.36510  0.98120  Biso   1.000  H
  H7       1.0000 0.01010  0.86510  0.51880  Biso   1.000  H
  H8       1.0000 0.98990  0.86510  0.98120  Biso   1.000  H
  H9       1.0000 0.46490  0.75170  0.41010  Biso   1.000  H
  H10      1.0000 0.53510  0.75170  0.08990  Biso   1.000  H
  H11      1.0000 0.96490  0.25170  0.41010  Biso   1.000  H
  H12      1.0000 0.03510  0.25170  0.08990  Biso   1.000  H
  H13      1.0000 0.53510  0.24830  0.58990  Biso   1.000  H
  H14      1.0000 0.46490  0.24830  0.91010  Biso   1.000  H
  H15      1.0000 0.03510  0.74830  0.58990  Biso   1.000  H
  H16      1.0000 0.96490  0.74830  0.91010  Biso   1.000  H
  N41      1.0000 0.43940  0.17670  0.31950  Biso   1.000  N
  N42      1.0000 0.56060  0.17670  0.18050  Biso   1.000  N
  N43      1.0000 0.93940  0.67670  0.31950  Biso   1.000  N
  N44      1.0000 0.06060  0.67670  0.18050  Biso   1.000  N
  N45      1.0000 0.56060  0.82330  0.68050  Biso   1.000  N
  N46      1.0000 0.43940  0.82330  0.81950  Biso   1.000  N
  N47      1.0000 0.06060  0.32330  0.68050  Biso   1.000  N
  N48      1.0000 0.93940  0.32330  0.81950  Biso   1.000  N
  H17      1.0000 0.45770  0.14640  0.37620  Biso   1.000  H
  H18      1.0000 0.54230  0.14640  0.12380  Biso   1.000  H
  H19      1.0000 0.95770  0.64640  0.37620  Biso   1.000  H
  H20      1.0000 0.04230  0.64640  0.12380  Biso   1.000  H
  H21      1.0000 0.54230  0.85360  0.62380  Biso   1.000  H
  H22      1.0000 0.45770  0.85360  0.87620  Biso   1.000  H
  H23      1.0000 0.04230  0.35360  0.62380  Biso   1.000  H
  H24      1.0000 0.95770  0.35360  0.87620  Biso   1.000  H
  H25      1.0000 0.42490  0.11420  0.27460  Biso   1.000  H
  H26      1.0000 0.57510  0.11420  0.22540  Biso   1.000  H
  H27      1.0000 0.92490  0.61420  0.27460  Biso   1.000  H
  H28      1.0000 0.07510  0.61420  0.22540  Biso   1.000  H
  H29      1.0000 0.57510  0.88580  0.72540  Biso   1.000  H
  H30      1.0000 0.42490  0.88580  0.77460  Biso   1.000  H
  H31      1.0000 0.07510  0.38580  0.72540  Biso   1.000  H
  H32      1.0000 0.92490  0.38580  0.77460  Biso   1.000  H
  N49      1.0000 0.32060  0.16900  0.96600  Biso   1.000  N
  N50      1.0000 0.67940  0.16900  0.53400  Biso   1.000  N
  N51      1.0000 0.82060  0.66900  0.96600  Biso   1.000  N
  N52      1.0000 0.17940  0.66900  0.53400  Biso   1.000  N
  N53      1.0000 0.67940  0.83100  0.03400  Biso   1.000  N
  N54      1.0000 0.32060  0.83100  0.46600  Biso   1.000  N
  N55      1.0000 0.17940  0.33100  0.03400  Biso   1.000  N
  N56      1.0000 0.82060  0.33100  0.46600  Biso   1.000  N
  N57      1.0000 0.27160  0.05630  0.81200  Biso   1.000  N
  N58      1.0000 0.72840  0.05630  0.68800  Biso   1.000  N
  N59      1.0000 0.77160  0.55630  0.81200  Biso   1.000  N
  N60      1.0000 0.22840  0.55630  0.68800  Biso   1.000  N
  N61      1.0000 0.72840  0.94370  0.18800  Biso   1.000  N
  N62      1.0000 0.27160  0.94370  0.31200  Biso   1.000  N
  N63      1.0000 0.22840  0.44370  0.18800  Biso   1.000  N
  N64      1.0000 0.77160  0.44370  0.31200  Biso   1.000  N
  N65      1.0000 0.30910  0.86240  0.69700  Biso   1.000  N
  N66      1.0000 0.69090  0.86240  0.80300  Biso   1.000  N
  N67      1.0000 0.80910  0.36240  0.69700  Biso   1.000  N
  N68      1.0000 0.19090  0.36240  0.80300  Biso   1.000  N
  N69      1.0000 0.69090  0.13760  0.30300  Biso   1.000  N
  N70      1.0000 0.30910  0.13760  0.19700  Biso   1.000  N
  N71      1.0000 0.19090  0.63760  0.30300  Biso   1.000  N
  N72      1.0000 0.80910  0.63760  0.19700  Biso   1.000  N
  C1       1.0000 0.31420  0.49890  0.95380  Biso   1.000  C
  C2       1.0000 0.68580  0.49890  0.54620  Biso   1.000  C
  C3       1.0000 0.81420  0.99890  0.95380  Biso   1.000  C
  C4       1.0000 0.18580  0.99890  0.54620  Biso   1.000  C
  C5       1.0000 0.68580  0.50110  0.04620  Biso   1.000  C
  C6       1.0000 0.31420  0.50110  0.45380  Biso   1.000  C
  C7       1.0000 0.18580  0.00110  0.04620  Biso   1.000  C
  C8       1.0000 0.81420  0.00110  0.45380  Biso   1.000  C
  H33      1.0000 0.29690  0.42650  0.91110  Biso   1.000  H
  H34      1.0000 0.70310  0.42650  0.58890  Biso   1.000  H
  H35      1.0000 0.79690  0.92650  0.91110  Biso   1.000  H
  H36      1.0000 0.20310  0.92650  0.58890  Biso   1.000  H
  H37      1.0000 0.70310  0.57350  0.08890  Biso   1.000  H
  H38      1.0000 0.29690  0.57350  0.41110  Biso   1.000  H
  H39      1.0000 0.20310  0.07350  0.08890  Biso   1.000  H
  H40      1.0000 0.79690  0.07350  0.41110  Biso   1.000  H
  C9       1.0000 0.30800  0.63970  0.92470  Biso   1.000  C
  C10      1.0000 0.69200  0.63970  0.57530  Biso   1.000  C
  C11      1.0000 0.80800  0.13970  0.92470  Biso   1.000  C
  C12      1.0000 0.19200  0.13970  0.57530  Biso   1.000  C
  C13      1.0000 0.69200  0.36030  0.07530  Biso   1.000  C
  C14      1.0000 0.30800  0.36030  0.42470  Biso   1.000  C
  C15      1.0000 0.19200  0.86030  0.07530  Biso   1.000  C
  C16      1.0000 0.80800  0.86030  0.42470  Biso   1.000  C
  H41      1.0000 0.28760  0.66460  0.86210  Biso   1.000  H
  H42      1.0000 0.71240  0.66460  0.63790  Biso   1.000  H
  H43      1.0000 0.78760  0.16460  0.86210  Biso   1.000  H
  H44      1.0000 0.21240  0.16460  0.63790  Biso   1.000  H
  H45      1.0000 0.71240  0.33540  0.13790  Biso   1.000  H
  H46      1.0000 0.28760  0.33540  0.36210  Biso   1.000  H
  H47      1.0000 0.21240  0.83540  0.13790  Biso   1.000  H
  H48      1.0000 0.78760  0.83540  0.36210  Biso   1.000  H
  C17      1.0000 0.33310  0.75060  0.99130  Biso   1.000  C
  C18      1.0000 0.66690  0.75060  0.50870  Biso   1.000  C
  C19      1.0000 0.83310  0.25060  0.99130  Biso   1.000  C
  C20      1.0000 0.16690  0.25060  0.50870  Biso   1.000  C
  C21      1.0000 0.66690  0.24940  0.00870  Biso   1.000  C
  C22      1.0000 0.33310  0.24940  0.49130  Biso   1.000  C
  C23      1.0000 0.16690  0.74940  0.00870  Biso   1.000  C
  C24      1.0000 0.83310  0.74940  0.49130  Biso   1.000  C
  H49      1.0000 0.32980  0.84920  0.97220  Biso   1.000  H
  H50      1.0000 0.67020  0.84920  0.52780  Biso   1.000  H
  H51      1.0000 0.82980  0.34920  0.97220  Biso   1.000  H
  H52      1.0000 0.17020  0.34920  0.52780  Biso   1.000  H
  H53      1.0000 0.67020  0.15080  0.02780  Biso   1.000  H
  H54      1.0000 0.32980  0.15080  0.47220  Biso   1.000  H
  H55      1.0000 0.17020  0.65080  0.02780  Biso   1.000  H
  H56      1.0000 0.82980  0.65080  0.47220  Biso   1.000  H
  C25      1.0000 0.36160  0.71280  0.08120  Biso   1.000  C
  C26      1.0000 0.63840  0.71280  0.41880  Biso   1.000  C
  C27      1.0000 0.86160  0.21280  0.08120  Biso   1.000  C
  C28      1.0000 0.13840  0.21280  0.41880  Biso   1.000  C
  C29      1.0000 0.63840  0.28720  0.91880  Biso   1.000  C
  C30      1.0000 0.36160  0.28720  0.58120  Biso   1.000  C
  C31      1.0000 0.13840  0.78720  0.91880  Biso   1.000  C
  C32      1.0000 0.86160  0.78720  0.58120  Biso   1.000  C
  H57      1.0000 0.37730  0.78430  0.12660  Biso   1.000  H
  H58      1.0000 0.62270  0.78430  0.37340  Biso   1.000  H
  H59      1.0000 0.87730  0.28430  0.12660  Biso   1.000  H
  H60      1.0000 0.12270  0.28430  0.37340  Biso   1.000  H
  H61      1.0000 0.62270  0.21570  0.87340  Biso   1.000  H
  H62      1.0000 0.37730  0.21570  0.62660  Biso   1.000  H
  H63      1.0000 0.12270  0.71570  0.87340  Biso   1.000  H
  H64      1.0000 0.87730  0.71570  0.62660  Biso   1.000  H
  C33      1.0000 0.36720  0.56420  0.10560  Biso   1.000  C
  C34      1.0000 0.63280  0.56420  0.39440  Biso   1.000  C
  C35      1.0000 0.86720  0.06420  0.10560  Biso   1.000  C
  C36      1.0000 0.13280  0.06420  0.39440  Biso   1.000  C
  C37      1.0000 0.63280  0.43580  0.89440  Biso   1.000  C
  C38      1.0000 0.36720  0.43580  0.60560  Biso   1.000  C
  C39      1.0000 0.13280  0.93580  0.89440  Biso   1.000  C
  C40      1.0000 0.86720  0.93580  0.60560  Biso   1.000  C
  C41      1.0000 0.39910  0.51410  0.20260  Biso   1.000  C
  C42      1.0000 0.60090  0.51410  0.29740  Biso   1.000  C
  C43      1.0000 0.89910  0.01410  0.20260  Biso   1.000  C
  C44      1.0000 0.10090  0.01410  0.29740  Biso   1.000  C
  C45      1.0000 0.60090  0.48590  0.79740  Biso   1.000  C
  C46      1.0000 0.39910  0.48590  0.70260  Biso   1.000  C
  C47      1.0000 0.10090  0.98590  0.79740  Biso   1.000  C
  C48      1.0000 0.89910  0.98590  0.70260  Biso   1.000  C
  C49      1.0000 0.44930  0.55460  0.35600  Biso   1.000  C
  C50      1.0000 0.55070  0.55460  0.14400  Biso   1.000  C
  C51      1.0000 0.94930  0.05460  0.35600  Biso   1.000  C
  C52      1.0000 0.05070  0.05460  0.14400  Biso   1.000  C
  C53      1.0000 0.55070  0.44540  0.64400  Biso   1.000  C
  C54      1.0000 0.44930  0.44540  0.85600  Biso   1.000  C
  C55      1.0000 0.05070  0.94540  0.64400  Biso   1.000  C
  C56      1.0000 0.94930  0.94540  0.85600  Biso   1.000  C
  C57      1.0000 0.43360  0.31930  0.30150  Biso   1.000  C
  C58      1.0000 0.56640  0.31930  0.19850  Biso   1.000  C
  C59      1.0000 0.93360  0.81930  0.30150  Biso   1.000  C
  C60      1.0000 0.06640  0.81930  0.19850  Biso   1.000  C
  C61      1.0000 0.56640  0.68070  0.69850  Biso   1.000  C
  C62      1.0000 0.43360  0.68070  0.80150  Biso   1.000  C
  C63      1.0000 0.06640  0.18070  0.69850  Biso   1.000  C
  C64      1.0000 0.93360  0.18070  0.80150  Biso   1.000  C
  C65      1.0000 0.30280  0.11620  0.88890  Biso   1.000  C
  C66      1.0000 0.69720  0.11620  0.61110  Biso   1.000  C
  C67      1.0000 0.80280  0.61620  0.88890  Biso   1.000  C
  C68      1.0000 0.19720  0.61620  0.61110  Biso   1.000  C
  C69      1.0000 0.69720  0.88380  0.11110  Biso   1.000  C
  C70      1.0000 0.30280  0.88380  0.38890  Biso   1.000  C
  C71      1.0000 0.19720  0.38380  0.11110  Biso   1.000  C
  C72      1.0000 0.80280  0.38380  0.38890  Biso   1.000  C
  C73      1.0000 0.29550  0.95580  0.75060  Biso   1.000  C
  C74      1.0000 0.70450  0.95580  0.74940  Biso   1.000  C
  C75      1.0000 0.79550  0.45580  0.75060  Biso   1.000  C
  C76      1.0000 0.20450  0.45580  0.74940  Biso   1.000  C
  C77      1.0000 0.70450  0.04420  0.24940  Biso   1.000  C
  C78      1.0000 0.29550  0.04420  0.25060  Biso   1.000  C
  C79      1.0000 0.20450  0.54420  0.24940  Biso   1.000  C
  C80      1.0000 0.79550  0.54420  0.25060  Biso   1.000  C
  H65      1.0000 0.42100  0.33400  0.09200  Biso   1.000  H
  H66      1.0000 0.57900  0.33400  0.40800  Biso   1.000  H
  H67      1.0000 0.92100  0.83400  0.09200  Biso   1.000  H
  H68      1.0000 0.07900  0.83400  0.40800  Biso   1.000  H
  H69      1.0000 0.57900  0.66600  0.90800  Biso   1.000  H
  H70      1.0000 0.42100  0.66600  0.59200  Biso   1.000  H
  H71      1.0000 0.07900  0.16600  0.90800  Biso   1.000  H
  H72      1.0000 0.92100  0.16600  0.59200  Biso   1.000  H
