data_image0
_cell_length_a       12.945
_cell_length_b       21.25
_cell_length_c       5.2105
_cell_angle_alpha    90
_cell_angle_beta     90
_cell_angle_gamma    90

_symmetry_space_group_name_H-M    "P 1"
_symmetry_int_tables_number       1

loop_
  _symmetry_equiv_pos_as_xyz
  'x, y, z'

loop_
  _atom_site_label
  _atom_site_occupancy
  _atom_site_fract_x
  _atom_site_fract_y
  _atom_site_fract_z
  _atom_site_thermal_displace_type
  _atom_site_B_iso_or_equiv
  _atom_site_type_symbol
  Cu1      1.0000 0.54886  0.25000  0.15663  Biso   1.000  Cu
  Cu2      1.0000 0.95114  0.75000  0.65663  Biso   1.000  Cu
  Cu3      1.0000 0.04886  0.25000  0.34337  Biso   1.000  Cu
  Cu4      1.0000 0.45114  0.75000  0.84337  Biso   1.000  Cu
  Mn1      1.0000 0.50000  0.00000  0.00000  Biso   1.000  Mn
  Mn2      1.0000 0.00000  0.00000  0.50000  Biso   1.000  Mn
  Mn3      1.0000 0.00000  0.50000  0.50000  Biso   1.000  Mn
  Mn4      1.0000 0.50000  0.50000  0.00000  Biso   1.000  Mn
  O1       1.0000 0.43760  0.07589  0.22990  Biso   1.000  O
  O2       1.0000 0.06240  0.92411  0.72990  Biso   1.000  O
  O3       1.0000 0.93760  0.42411  0.27010  Biso   1.000  O
  O4       1.0000 0.56240  0.57589  0.77010  Biso   1.000  O
  O5       1.0000 0.56240  0.92411  0.77010  Biso   1.000  O
  O6       1.0000 0.93760  0.07589  0.27010  Biso   1.000  O
  O7       1.0000 0.06240  0.57589  0.72990  Biso   1.000  O
  O8       1.0000 0.43760  0.42411  0.22990  Biso   1.000  O
  O9       1.0000 0.59310  0.07956  0.87970  Biso   1.000  O
  O10      1.0000 0.90690  0.92044  0.37970  Biso   1.000  O
  O11      1.0000 0.09310  0.42044  0.62030  Biso   1.000  O
  O12      1.0000 0.40690  0.57956  0.12030  Biso   1.000  O
  O13      1.0000 0.40690  0.92044  0.12030  Biso   1.000  O
  O14      1.0000 0.09310  0.07956  0.62030  Biso   1.000  O
  O15      1.0000 0.90690  0.57956  0.37970  Biso   1.000  O
  O16      1.0000 0.59310  0.42044  0.87970  Biso   1.000  O
  O17      1.0000 0.61290  0.18214  0.94700  Biso   1.000  O
  O18      1.0000 0.88710  0.81786  0.44700  Biso   1.000  O
  O19      1.0000 0.11290  0.31786  0.55300  Biso   1.000  O
  O20      1.0000 0.38710  0.68214  0.05300  Biso   1.000  O
  O21      1.0000 0.38710  0.81786  0.05300  Biso   1.000  O
  O22      1.0000 0.11290  0.18214  0.55300  Biso   1.000  O
  O23      1.0000 0.88710  0.68214  0.44700  Biso   1.000  O
  O24      1.0000 0.61290  0.31786  0.94700  Biso   1.000  O
  O25      1.0000 0.61610  0.97871  0.29490  Biso   1.000  O
  O26      1.0000 0.88390  0.02129  0.79490  Biso   1.000  O
  O27      1.0000 0.11610  0.52129  0.20510  Biso   1.000  O
  O28      1.0000 0.38390  0.47871  0.70510  Biso   1.000  O
  O29      1.0000 0.38390  0.02129  0.70510  Biso   1.000  O
  O30      1.0000 0.11610  0.97871  0.20510  Biso   1.000  O
  O31      1.0000 0.88390  0.47871  0.79490  Biso   1.000  O
  O32      1.0000 0.61610  0.52129  0.29490  Biso   1.000  O
  O33      1.0000 0.67400  0.25000  0.46490  Biso   1.000  O
  O34      1.0000 0.82600  0.75000  0.96490  Biso   1.000  O
  O35      1.0000 0.17400  0.25000  0.03510  Biso   1.000  O
  O36      1.0000 0.32600  0.75000  0.53510  Biso   1.000  O
  N1       1.0000 0.46330  0.18259  0.28630  Biso   1.000  N
  N2       1.0000 0.03670  0.81741  0.78630  Biso   1.000  N
  N3       1.0000 0.96330  0.31741  0.21370  Biso   1.000  N
  N4       1.0000 0.53670  0.68259  0.71370  Biso   1.000  N
  N5       1.0000 0.53670  0.81741  0.71370  Biso   1.000  N
  N6       1.0000 0.96330  0.18259  0.21370  Biso   1.000  N
  N7       1.0000 0.03670  0.68259  0.78630  Biso   1.000  N
  N8       1.0000 0.46330  0.31741  0.28630  Biso   1.000  N
  C1       1.0000 0.57060  0.12980  0.98920  Biso   1.000  C
  C2       1.0000 0.92940  0.87020  0.48920  Biso   1.000  C
  C3       1.0000 0.07060  0.37020  0.51080  Biso   1.000  C
  C4       1.0000 0.42940  0.62980  0.01080  Biso   1.000  C
  C5       1.0000 0.42940  0.87020  0.01080  Biso   1.000  C
  C6       1.0000 0.07060  0.12980  0.51080  Biso   1.000  C
  C7       1.0000 0.92940  0.62980  0.48920  Biso   1.000  C
  C8       1.0000 0.57060  0.37020  0.98920  Biso   1.000  C
  C9       1.0000 0.48270  0.12840  0.18770  Biso   1.000  C
  C10      1.0000 0.01730  0.87160  0.68770  Biso   1.000  C
  C11      1.0000 0.98270  0.37160  0.31230  Biso   1.000  C
  C12      1.0000 0.51730  0.62840  0.81230  Biso   1.000  C
  C13      1.0000 0.51730  0.87160  0.81230  Biso   1.000  C
  C14      1.0000 0.98270  0.12840  0.31230  Biso   1.000  C
  C15      1.0000 0.01730  0.62840  0.68770  Biso   1.000  C
  C16      1.0000 0.48270  0.37160  0.18770  Biso   1.000  C
  C17      1.0000 0.37870  0.19010  0.47210  Biso   1.000  C
  C18      1.0000 0.12130  0.80990  0.97210  Biso   1.000  C
  C19      1.0000 0.87870  0.30990  0.02790  Biso   1.000  C
  C20      1.0000 0.62130  0.69010  0.52790  Biso   1.000  C
  C21      1.0000 0.62130  0.80990  0.52790  Biso   1.000  C
  C22      1.0000 0.87870  0.19010  0.02790  Biso   1.000  C
  C23      1.0000 0.12130  0.69010  0.97210  Biso   1.000  C
  C24      1.0000 0.37870  0.30990  0.47210  Biso   1.000  C
  C25      1.0000 0.39010  0.25000  0.62340  Biso   1.000  C
  C26      1.0000 0.10990  0.75000  0.12340  Biso   1.000  C
  C27      1.0000 0.89010  0.25000  0.87660  Biso   1.000  C
  C28      1.0000 0.60990  0.75000  0.37660  Biso   1.000  C
  H1       1.0000 0.31500  0.19000  0.38300  Biso   1.000  H
  H2       1.0000 0.18500  0.81000  0.88300  Biso   1.000  H
  H3       1.0000 0.81500  0.31000  0.11700  Biso   1.000  H
  H4       1.0000 0.68500  0.69000  0.61700  Biso   1.000  H
  H5       1.0000 0.68500  0.81000  0.61700  Biso   1.000  H
  H6       1.0000 0.81500  0.19000  0.11700  Biso   1.000  H
  H7       1.0000 0.18500  0.69000  0.88300  Biso   1.000  H
  H8       1.0000 0.31500  0.31000  0.38300  Biso   1.000  H
  H9       1.0000 0.37200  0.15700  0.56600  Biso   1.000  H
  H10      1.0000 0.12800  0.84300  0.06600  Biso   1.000  H
  H11      1.0000 0.87200  0.34300  0.93400  Biso   1.000  H
  H12      1.0000 0.62800  0.65700  0.43400  Biso   1.000  H
  H13      1.0000 0.62800  0.84300  0.43400  Biso   1.000  H
  H14      1.0000 0.87200  0.15700  0.93400  Biso   1.000  H
  H15      1.0000 0.12800  0.65700  0.06600  Biso   1.000  H
  H16      1.0000 0.37200  0.34300  0.56600  Biso   1.000  H
  H17      1.0000 0.33700  0.25000  0.75900  Biso   1.000  H
  H18      1.0000 0.16300  0.75000  0.25900  Biso   1.000  H
  H19      1.0000 0.83700  0.25000  0.74100  Biso   1.000  H
  H20      1.0000 0.66300  0.75000  0.24100  Biso   1.000  H
  H21      1.0000 0.45800  0.25000  0.70900  Biso   1.000  H
  H22      1.0000 0.04200  0.75000  0.20900  Biso   1.000  H
  H23      1.0000 0.95800  0.25000  0.79100  Biso   1.000  H
  H24      1.0000 0.54200  0.75000  0.29100  Biso   1.000  H
  H25      1.0000 0.64500  0.00600  0.34600  Biso   1.000  H
  H26      1.0000 0.85500  0.99400  0.84600  Biso   1.000  H
  H27      1.0000 0.14500  0.49400  0.15400  Biso   1.000  H
  H28      1.0000 0.35500  0.50600  0.65400  Biso   1.000  H
  H29      1.0000 0.35500  0.99400  0.65400  Biso   1.000  H
  H30      1.0000 0.14500  0.00600  0.15400  Biso   1.000  H
  H31      1.0000 0.85500  0.50600  0.84600  Biso   1.000  H
  H32      1.0000 0.64500  0.49400  0.34600  Biso   1.000  H
  H33      1.0000 0.60100  0.96100  0.41900  Biso   1.000  H
  H34      1.0000 0.89900  0.03900  0.91900  Biso   1.000  H
  H35      1.0000 0.10100  0.53900  0.08100  Biso   1.000  H
  H36      1.0000 0.39900  0.46100  0.58100  Biso   1.000  H
  H37      1.0000 0.39900  0.03900  0.58100  Biso   1.000  H
  H38      1.0000 0.10100  0.96100  0.08100  Biso   1.000  H
  H39      1.0000 0.89900  0.46100  0.91900  Biso   1.000  H
  H40      1.0000 0.60100  0.53900  0.41900  Biso   1.000  H
  H41      1.0000 0.67400  0.28700  0.54200  Biso   1.000  H
  H42      1.0000 0.82600  0.71300  0.04200  Biso   1.000  H
  H43      1.0000 0.17400  0.21300  0.95800  Biso   1.000  H
  H44      1.0000 0.32600  0.78700  0.45800  Biso   1.000  H
  H45      1.0000 0.32600  0.71300  0.45800  Biso   1.000  H
  H46      1.0000 0.17400  0.28700  0.95800  Biso   1.000  H
  H47      1.0000 0.82600  0.78700  0.04200  Biso   1.000  H
  H48      1.0000 0.67400  0.21300  0.54200  Biso   1.000  H
  O37      1.0000 0.21420  0.08790  0.06350  Biso   1.000  O
  O38      1.0000 0.28580  0.91210  0.56350  Biso   1.000  O
  O39      1.0000 0.71420  0.41210  0.43650  Biso   1.000  O
  O40      1.0000 0.78580  0.58790  0.93650  Biso   1.000  O
  O41      1.0000 0.78580  0.91210  0.93650  Biso   1.000  O
  O42      1.0000 0.71420  0.08790  0.43650  Biso   1.000  O
  O43      1.0000 0.28580  0.58790  0.56350  Biso   1.000  O
  O44      1.0000 0.21420  0.41210  0.06350  Biso   1.000  O
  H49      1.0000 0.19900  0.08400  0.91800  Biso   1.000  H
  H50      1.0000 0.30100  0.91600  0.41800  Biso   1.000  H
  H51      1.0000 0.69900  0.41600  0.58200  Biso   1.000  H
  H52      1.0000 0.80100  0.58400  0.08200  Biso   1.000  H
  H53      1.0000 0.80100  0.91600  0.08200  Biso   1.000  H
  H54      1.0000 0.69900  0.08400  0.58200  Biso   1.000  H
  H55      1.0000 0.30100  0.58400  0.41800  Biso   1.000  H
  H56      1.0000 0.19900  0.41600  0.91800  Biso   1.000  H
  H57      1.0000 0.26300  0.07900  0.06300  Biso   1.000  H
  H58      1.0000 0.23700  0.92100  0.56300  Biso   1.000  H
  H59      1.0000 0.76300  0.42100  0.43700  Biso   1.000  H
  H60      1.0000 0.73700  0.57900  0.93700  Biso   1.000  H
  H61      1.0000 0.73700  0.92100  0.93700  Biso   1.000  H
  H62      1.0000 0.76300  0.07900  0.43700  Biso   1.000  H
  H63      1.0000 0.23700  0.57900  0.56300  Biso   1.000  H
  H64      1.0000 0.26300  0.42100  0.06300  Biso   1.000  H
