data_image0
_cell_length_a       12.727
_cell_length_b       21.352
_cell_length_c       5.153
_cell_angle_alpha    90
_cell_angle_beta     90
_cell_angle_gamma    90

_symmetry_space_group_name_H-M    "P 1"
_symmetry_int_tables_number       1

loop_
  _symmetry_equiv_pos_as_xyz
  'x, y, z'

loop_
  _atom_site_label
  _atom_site_occupancy
  _atom_site_fract_x
  _atom_site_fract_y
  _atom_site_fract_z
  _atom_site_thermal_displace_type
  _atom_site_B_iso_or_equiv
  _atom_site_type_symbol
  Cu1      1.0000 0.55040  0.25000  0.14880  Biso   1.000  Cu
  Cu2      1.0000 0.94960  0.75000  0.64880  Biso   1.000  Cu
  Cu3      1.0000 0.05040  0.25000  0.35120  Biso   1.000  Cu
  Cu4      1.0000 0.44960  0.75000  0.85120  Biso   1.000  Cu
  Mn1      1.0000 0.50000  0.00000  0.00000  Biso   1.000  Mn
  Mn2      1.0000 0.00000  0.00000  0.50000  Biso   1.000  Mn
  Mn3      1.0000 0.00000  0.50000  0.50000  Biso   1.000  Mn
  Mn4      1.0000 0.50000  0.50000  0.00000  Biso   1.000  Mn
  O1       1.0000 0.43650  0.07640  0.22900  Biso   1.000  O
  O2       1.0000 0.06350  0.92360  0.72900  Biso   1.000  O
  O3       1.0000 0.93650  0.42360  0.27100  Biso   1.000  O
  O4       1.0000 0.56350  0.57640  0.77100  Biso   1.000  O
  O5       1.0000 0.56350  0.92360  0.77100  Biso   1.000  O
  O6       1.0000 0.93650  0.07640  0.27100  Biso   1.000  O
  O7       1.0000 0.06350  0.57640  0.72900  Biso   1.000  O
  O8       1.0000 0.43650  0.42360  0.22900  Biso   1.000  O
  O9       1.0000 0.59600  0.07840  0.87650  Biso   1.000  O
  O10      1.0000 0.90400  0.92160  0.37650  Biso   1.000  O
  O11      1.0000 0.09600  0.42160  0.62350  Biso   1.000  O
  O12      1.0000 0.40400  0.57840  0.12350  Biso   1.000  O
  O13      1.0000 0.40400  0.92160  0.12350  Biso   1.000  O
  O14      1.0000 0.09600  0.07840  0.62350  Biso   1.000  O
  O15      1.0000 0.90400  0.57840  0.37650  Biso   1.000  O
  O16      1.0000 0.59600  0.42160  0.87650  Biso   1.000  O
  O17      1.0000 0.61560  0.18250  0.93770  Biso   1.000  O
  O18      1.0000 0.88440  0.81750  0.43770  Biso   1.000  O
  O19      1.0000 0.11560  0.31750  0.56230  Biso   1.000  O
  O20      1.0000 0.38440  0.68250  0.06230  Biso   1.000  O
  O21      1.0000 0.38440  0.81750  0.06230  Biso   1.000  O
  O22      1.0000 0.11560  0.18250  0.56230  Biso   1.000  O
  O23      1.0000 0.88440  0.68250  0.43770  Biso   1.000  O
  O24      1.0000 0.61560  0.31750  0.93770  Biso   1.000  O
  O25      1.0000 0.61770  0.97890  0.29700  Biso   1.000  O
  O26      1.0000 0.88230  0.02110  0.79700  Biso   1.000  O
  O27      1.0000 0.11770  0.52110  0.20300  Biso   1.000  O
  O28      1.0000 0.38230  0.47890  0.70300  Biso   1.000  O
  O29      1.0000 0.38230  0.02110  0.70300  Biso   1.000  O
  O30      1.0000 0.11770  0.97890  0.20300  Biso   1.000  O
  O31      1.0000 0.88230  0.47890  0.79700  Biso   1.000  O
  O32      1.0000 0.61770  0.52110  0.29700  Biso   1.000  O
  O33      1.0000 0.67390  0.25000  0.47000  Biso   1.000  O
  O34      1.0000 0.82610  0.75000  0.97000  Biso   1.000  O
  O35      1.0000 0.17390  0.25000  0.03000  Biso   1.000  O
  O36      1.0000 0.32610  0.75000  0.53000  Biso   1.000  O
  N1       1.0000 0.46310  0.18240  0.28390  Biso   1.000  N
  N2       1.0000 0.03690  0.81760  0.78390  Biso   1.000  N
  N3       1.0000 0.96310  0.31760  0.21610  Biso   1.000  N
  N4       1.0000 0.53690  0.68240  0.71610  Biso   1.000  N
  N5       1.0000 0.53690  0.81760  0.71610  Biso   1.000  N
  N6       1.0000 0.96310  0.18240  0.21610  Biso   1.000  N
  N7       1.0000 0.03690  0.68240  0.78390  Biso   1.000  N
  N8       1.0000 0.46310  0.31760  0.28390  Biso   1.000  N
  C1       1.0000 0.57280  0.12940  0.98390  Biso   1.000  C
  C2       1.0000 0.92720  0.87060  0.48390  Biso   1.000  C
  C3       1.0000 0.07280  0.37060  0.51610  Biso   1.000  C
  C4       1.0000 0.42720  0.62940  0.01610  Biso   1.000  C
  C5       1.0000 0.42720  0.87060  0.01610  Biso   1.000  C
  C6       1.0000 0.07280  0.12940  0.51610  Biso   1.000  C
  C7       1.0000 0.92720  0.62940  0.48390  Biso   1.000  C
  C8       1.0000 0.57280  0.37060  0.98390  Biso   1.000  C
  C9       1.0000 0.48360  0.12840  0.18400  Biso   1.000  C
  C10      1.0000 0.01640  0.87160  0.68400  Biso   1.000  C
  C11      1.0000 0.98360  0.37160  0.31600  Biso   1.000  C
  C12      1.0000 0.51640  0.62840  0.81600  Biso   1.000  C
  C13      1.0000 0.51640  0.87160  0.81600  Biso   1.000  C
  C14      1.0000 0.98360  0.12840  0.31600  Biso   1.000  C
  C15      1.0000 0.01640  0.62840  0.68400  Biso   1.000  C
  C16      1.0000 0.48360  0.37160  0.18400  Biso   1.000  C
  C17      1.0000 0.37820  0.18930  0.47270  Biso   1.000  C
  C18      1.0000 0.12180  0.81070  0.97270  Biso   1.000  C
  C19      1.0000 0.87820  0.31070  0.02730  Biso   1.000  C
  C20      1.0000 0.62180  0.68930  0.52730  Biso   1.000  C
  C21      1.0000 0.62180  0.81070  0.52730  Biso   1.000  C
  C22      1.0000 0.87820  0.18930  0.02730  Biso   1.000  C
  C23      1.0000 0.12180  0.68930  0.97270  Biso   1.000  C
  C24      1.0000 0.37820  0.31070  0.47270  Biso   1.000  C
  C25      1.0000 0.39070  0.25000  0.62600  Biso   1.000  C
  C26      1.0000 0.10930  0.75000  0.12600  Biso   1.000  C
  C27      1.0000 0.89070  0.25000  0.87400  Biso   1.000  C
  C28      1.0000 0.60930  0.75000  0.37400  Biso   1.000  C
  H1       1.0000 0.30330  0.18920  0.37700  Biso   1.000  H
  H2       1.0000 0.19670  0.81080  0.87700  Biso   1.000  H
  H3       1.0000 0.80330  0.31080  0.12300  Biso   1.000  H
  H4       1.0000 0.69670  0.68920  0.62300  Biso   1.000  H
  H5       1.0000 0.69670  0.81080  0.62300  Biso   1.000  H
  H6       1.0000 0.80330  0.18920  0.12300  Biso   1.000  H
  H7       1.0000 0.19670  0.68920  0.87700  Biso   1.000  H
  H8       1.0000 0.30330  0.31080  0.37700  Biso   1.000  H
  H9       1.0000 0.37570  0.14970  0.60100  Biso   1.000  H
  H10      1.0000 0.12430  0.85030  0.10100  Biso   1.000  H
  H11      1.0000 0.87570  0.35030  0.89900  Biso   1.000  H
  H12      1.0000 0.62430  0.64970  0.39900  Biso   1.000  H
  H13      1.0000 0.62430  0.85030  0.39900  Biso   1.000  H
  H14      1.0000 0.87570  0.14970  0.89900  Biso   1.000  H
  H15      1.0000 0.12430  0.64970  0.10100  Biso   1.000  H
  H16      1.0000 0.37570  0.35030  0.60100  Biso   1.000  H
  H17      1.0000 0.33280  0.25000  0.78500  Biso   1.000  H
  H18      1.0000 0.16720  0.75000  0.28500  Biso   1.000  H
  H19      1.0000 0.83280  0.25000  0.71500  Biso   1.000  H
  H20      1.0000 0.66720  0.75000  0.21500  Biso   1.000  H
  H21      1.0000 0.46730  0.25000  0.71800  Biso   1.000  H
  H22      1.0000 0.03270  0.75000  0.21800  Biso   1.000  H
  H23      1.0000 0.96730  0.25000  0.78200  Biso   1.000  H
  H24      1.0000 0.53270  0.75000  0.28200  Biso   1.000  H
  H25      1.0000 0.65750  0.01570  0.34400  Biso   1.000  H
  H26      1.0000 0.84250  0.98430  0.84400  Biso   1.000  H
  H27      1.0000 0.15750  0.48430  0.15600  Biso   1.000  H
  H28      1.0000 0.34250  0.51570  0.65600  Biso   1.000  H
  H29      1.0000 0.34250  0.98430  0.65600  Biso   1.000  H
  H30      1.0000 0.15750  0.01570  0.15600  Biso   1.000  H
  H31      1.0000 0.84250  0.51570  0.84400  Biso   1.000  H
  H32      1.0000 0.65750  0.48430  0.34400  Biso   1.000  H
  H33      1.0000 0.59890  0.95800  0.45000  Biso   1.000  H
  H34      1.0000 0.90110  0.04200  0.95000  Biso   1.000  H
  H35      1.0000 0.09890  0.54200  0.05000  Biso   1.000  H
  H36      1.0000 0.40110  0.45800  0.55000  Biso   1.000  H
  H37      1.0000 0.40110  0.04200  0.55000  Biso   1.000  H
  H38      1.0000 0.09890  0.95800  0.05000  Biso   1.000  H
  H39      1.0000 0.90110  0.45800  0.95000  Biso   1.000  H
  H40      1.0000 0.59890  0.54200  0.45000  Biso   1.000  H
  H41      1.0000 0.66620  0.28480  0.57700  Biso   1.000  H
  H42      1.0000 0.83380  0.71520  0.07700  Biso   1.000  H
  H43      1.0000 0.16620  0.21520  0.92300  Biso   1.000  H
  H44      1.0000 0.33380  0.78480  0.42300  Biso   1.000  H
  H45      1.0000 0.33380  0.71520  0.42300  Biso   1.000  H
  H46      1.0000 0.16620  0.28480  0.92300  Biso   1.000  H
  H47      1.0000 0.83380  0.78480  0.07700  Biso   1.000  H
  H48      1.0000 0.66620  0.21520  0.57700  Biso   1.000  H
  O37      1.0000 0.21460  0.08770  0.07200  Biso   1.000  O
  O38      1.0000 0.28540  0.91230  0.57200  Biso   1.000  O
  O39      1.0000 0.71460  0.41230  0.42800  Biso   1.000  O
  O40      1.0000 0.78540  0.58770  0.92800  Biso   1.000  O
  O41      1.0000 0.78540  0.91230  0.92800  Biso   1.000  O
  O42      1.0000 0.71460  0.08770  0.42800  Biso   1.000  O
  O43      1.0000 0.28540  0.58770  0.57200  Biso   1.000  O
  O44      1.0000 0.21460  0.41230  0.07200  Biso   1.000  O
  H49      1.0000 0.19580  0.08910  0.90200  Biso   1.000  H
  H50      1.0000 0.30420  0.91090  0.40200  Biso   1.000  H
  H51      1.0000 0.69580  0.41090  0.59800  Biso   1.000  H
  H52      1.0000 0.80420  0.58910  0.09800  Biso   1.000  H
  H53      1.0000 0.80420  0.91090  0.09800  Biso   1.000  H
  H54      1.0000 0.69580  0.08910  0.59800  Biso   1.000  H
  H55      1.0000 0.30420  0.58910  0.40200  Biso   1.000  H
  H56      1.0000 0.19580  0.41090  0.90200  Biso   1.000  H
  H57      1.0000 0.28680  0.08320  0.08700  Biso   1.000  H
  H58      1.0000 0.21320  0.91680  0.58700  Biso   1.000  H
  H59      1.0000 0.78680  0.41680  0.41300  Biso   1.000  H
  H60      1.0000 0.71320  0.58320  0.91300  Biso   1.000  H
  H61      1.0000 0.71320  0.91680  0.91300  Biso   1.000  H
  H62      1.0000 0.78680  0.08320  0.41300  Biso   1.000  H
  H63      1.0000 0.21320  0.58320  0.58700  Biso   1.000  H
  H64      1.0000 0.28680  0.41680  0.08700  Biso   1.000  H
