data_image0
_cell_length_a       8.4678
_cell_length_b       8.8856
_cell_length_c       9.609
_cell_angle_alpha    80.691
_cell_angle_beta     69.057
_cell_angle_gamma    74.066

_symmetry_space_group_name_H-M    "P 1"
_symmetry_int_tables_number       1

loop_
  _symmetry_equiv_pos_as_xyz
  'x, y, z'

loop_
  _atom_site_label
  _atom_site_occupancy
  _atom_site_fract_x
  _atom_site_fract_y
  _atom_site_fract_z
  _atom_site_thermal_displace_type
  _atom_site_B_iso_or_equiv
  _atom_site_type_symbol
  Cu1      1.0000 0.86100  0.15845  0.76066  Biso   1.000  Cu
  Cu2      1.0000 0.13900  0.84155  0.23934  Biso   1.000  Cu
  S1       1.0000 0.04730  0.29964  0.46877  Biso   1.000  S
  S2       1.0000 0.95270  0.70036  0.53123  Biso   1.000  S
  S3       1.0000 0.65172  0.07294  0.08136  Biso   1.000  S
  S4       1.0000 0.34828  0.92706  0.91864  Biso   1.000  S
  O1       1.0000 0.66470  0.60747  0.86769  Biso   1.000  O
  O2       1.0000 0.33530  0.39253  0.13231  Biso   1.000  O
  N1       1.0000 0.63190  0.27640  0.71830  Biso   1.000  N
  N2       1.0000 0.36810  0.72360  0.28170  Biso   1.000  N
  N3       1.0000 0.82120  0.36790  0.83470  Biso   1.000  N
  N4       1.0000 0.17880  0.63210  0.16530  Biso   1.000  N
  N5       1.0000 0.90120  0.44010  0.89910  Biso   1.000  N
  N6       1.0000 0.09880  0.55990  0.10090  Biso   1.000  N
  N7       1.0000 0.82350  0.69860  0.97260  Biso   1.000  N
  N8       1.0000 0.17650  0.30140  0.02740  Biso   1.000  N
  H1       1.0000 0.90970  0.68490  0.00440  Biso   1.000  H
  H2       1.0000 0.09030  0.31510  0.99560  Biso   1.000  H
  H3       1.0000 0.75030  0.78810  0.97800  Biso   1.000  H
  H4       1.0000 0.24970  0.21190  0.02200  Biso   1.000  H
  N9       1.0000 0.12970  0.03120  0.31950  Biso   1.000  N
  N10      1.0000 0.87030  0.96880  0.68050  Biso   1.000  N
  N11      1.0000 0.92990  0.93030  0.18570  Biso   1.000  N
  N12      1.0000 0.07010  0.06970  0.81430  Biso   1.000  N
  C1       1.0000 0.54140  0.22120  0.65920  Biso   1.000  C
  C2       1.0000 0.45860  0.77880  0.34080  Biso   1.000  C
  H5       1.0000 0.57900  0.11750  0.63400  Biso   1.000  H
  H6       1.0000 0.42100  0.88250  0.36600  Biso   1.000  H
  C3       1.0000 0.38970  0.31580  0.63380  Biso   1.000  C
  C4       1.0000 0.61030  0.68420  0.36620  Biso   1.000  C
  H7       1.0000 0.32860  0.27460  0.59190  Biso   1.000  H
  H8       1.0000 0.67140  0.72540  0.40810  Biso   1.000  H
  C5       1.0000 0.33350  0.46510  0.67000  Biso   1.000  C
  C6       1.0000 0.66650  0.53490  0.33000  Biso   1.000  C
  H9       1.0000 0.23310  0.52800  0.65400  Biso   1.000  H
  H10      1.0000 0.76690  0.47200  0.34600  Biso   1.000  H
  C7       1.0000 0.42640  0.52460  0.73140  Biso   1.000  C
  C8       1.0000 0.57360  0.47540  0.26860  Biso   1.000  C
  H11      1.0000 0.38990  0.62820  0.75680  Biso   1.000  H
  H12      1.0000 0.61010  0.37180  0.24320  Biso   1.000  H
  C9       1.0000 0.57390  0.42790  0.75430  Biso   1.000  C
  C10      1.0000 0.42610  0.57210  0.24570  Biso   1.000  C
  C11      1.0000 0.68650  0.46760  0.81740  Biso   1.000  C
  C12      1.0000 0.31350  0.53240  0.18260  Biso   1.000  C
  C13      1.0000 0.80370  0.58310  0.91600  Biso   1.000  C
  C14      1.0000 0.19630  0.41690  0.08400  Biso   1.000  C
  C15      1.0000 0.09510  0.14150  0.38160  Biso   1.000  C
  C16      1.0000 0.90490  0.85850  0.61840  Biso   1.000  C
  C17      1.0000 0.81550  0.99120  0.14310  Biso   1.000  C
  C18      1.0000 0.18450  0.00880  0.85690  Biso   1.000  C
