data_image0
_cell_length_a       8.1852
_cell_length_b       14.7701
_cell_length_c       14.1703
_cell_angle_alpha    90
_cell_angle_beta     106.469
_cell_angle_gamma    90

_symmetry_space_group_name_H-M    "P 1"
_symmetry_int_tables_number       1

loop_
  _symmetry_equiv_pos_as_xyz
  'x, y, z'

loop_
  _atom_site_label
  _atom_site_occupancy
  _atom_site_fract_x
  _atom_site_fract_y
  _atom_site_fract_z
  _atom_site_thermal_displace_type
  _atom_site_B_iso_or_equiv
  _atom_site_type_symbol
  C1       1.0000 0.02280  0.12070  0.70720  Biso   1.000  C
  C2       1.0000 0.47720  0.62070  0.79280  Biso   1.000  C
  C3       1.0000 0.97720  0.87930  0.29280  Biso   1.000  C
  C4       1.0000 0.52280  0.37930  0.20720  Biso   1.000  C
  H1       1.0000 0.00740  0.11030  0.76890  Biso   1.000  H
  H2       1.0000 0.49260  0.61030  0.73110  Biso   1.000  H
  H3       1.0000 0.99260  0.88970  0.23110  Biso   1.000  H
  H4       1.0000 0.50740  0.38970  0.26890  Biso   1.000  H
  C5       1.0000 0.17090  0.16420  0.70020  Biso   1.000  C
  C6       1.0000 0.32910  0.66420  0.79980  Biso   1.000  C
  C7       1.0000 0.82910  0.83580  0.29980  Biso   1.000  C
  C8       1.0000 0.67090  0.33580  0.20020  Biso   1.000  C
  H5       1.0000 0.25370  0.18280  0.75650  Biso   1.000  H
  H6       1.0000 0.24630  0.68280  0.74350  Biso   1.000  H
  H7       1.0000 0.74630  0.81720  0.24350  Biso   1.000  H
  H8       1.0000 0.75370  0.31720  0.25650  Biso   1.000  H
  C9       1.0000 0.19120  0.17860  0.61000  Biso   1.000  C
  C10      1.0000 0.30880  0.67860  0.89000  Biso   1.000  C
  C11      1.0000 0.80880  0.82140  0.39000  Biso   1.000  C
  C12      1.0000 0.69120  0.32140  0.11000  Biso   1.000  C
  H9       1.0000 0.28860  0.20760  0.60410  Biso   1.000  H
  H10      1.0000 0.21140  0.70760  0.89590  Biso   1.000  H
  H11      1.0000 0.71140  0.79240  0.39590  Biso   1.000  H
  H12      1.0000 0.78860  0.29240  0.10410  Biso   1.000  H
  C13      1.0000 0.07040  0.15100  0.52810  Biso   1.000  C
  C14      1.0000 0.42960  0.65100  0.97190  Biso   1.000  C
  C15      1.0000 0.92960  0.84900  0.47190  Biso   1.000  C
  C16      1.0000 0.57040  0.34900  0.02810  Biso   1.000  C
  H13      1.0000 0.08350  0.16110  0.46590  Biso   1.000  H
  H14      1.0000 0.41650  0.66110  0.03410  Biso   1.000  H
  H15      1.0000 0.91650  0.83890  0.53410  Biso   1.000  H
  H16      1.0000 0.58350  0.33890  0.96590  Biso   1.000  H
  C17      1.0000 0.92750  0.10760  0.53910  Biso   1.000  C
  C18      1.0000 0.57250  0.60760  0.96090  Biso   1.000  C
  C19      1.0000 0.07250  0.89240  0.46090  Biso   1.000  C
  C20      1.0000 0.42750  0.39240  0.03910  Biso   1.000  C
  C21      1.0000 0.78680  0.07570  0.46150  Biso   1.000  C
  C22      1.0000 0.71320  0.57570  0.03850  Biso   1.000  C
  C23      1.0000 0.21320  0.92430  0.53850  Biso   1.000  C
  C24      1.0000 0.28680  0.42430  0.96150  Biso   1.000  C
  C25      1.0000 0.62250  0.04350  0.31840  Biso   1.000  C
  C26      1.0000 0.87750  0.54350  0.18160  Biso   1.000  C
  C27      1.0000 0.37750  0.95650  0.68160  Biso   1.000  C
  C28      1.0000 0.12250  0.45650  0.81840  Biso   1.000  C
  C29      1.0000 0.67270  0.07070  0.16010  Biso   1.000  C
  C30      1.0000 0.82730  0.57070  0.33990  Biso   1.000  C
  C31      1.0000 0.32730  0.92930  0.83990  Biso   1.000  C
  C32      1.0000 0.17270  0.42930  0.66010  Biso   1.000  C
  H17      1.0000 0.61250  0.05970  0.09240  Biso   1.000  H
  H18      1.0000 0.88750  0.55970  0.40760  Biso   1.000  H
  H19      1.0000 0.38750  0.94030  0.90760  Biso   1.000  H
  H20      1.0000 0.11250  0.44030  0.59240  Biso   1.000  H
  H21      1.0000 0.78020  0.03970  0.17630  Biso   1.000  H
  H22      1.0000 0.71980  0.53970  0.32370  Biso   1.000  H
  H23      1.0000 0.21980  0.96030  0.82370  Biso   1.000  H
  H24      1.0000 0.28020  0.46030  0.67630  Biso   1.000  H
  H25      1.0000 0.69180  0.13450  0.17040  Biso   1.000  H
  H26      1.0000 0.80820  0.63450  0.32960  Biso   1.000  H
  H27      1.0000 0.30820  0.86550  0.82960  Biso   1.000  H
  H28      1.0000 0.19180  0.36550  0.67040  Biso   1.000  H
  C33      1.0000 0.86150  0.85110  0.71050  Biso   1.000  C
  C34      1.0000 0.63850  0.35110  0.78950  Biso   1.000  C
  C35      1.0000 0.13850  0.14890  0.28950  Biso   1.000  C
  C36      1.0000 0.36150  0.64890  0.21050  Biso   1.000  C
  C37      1.0000 0.88860  0.70140  0.75600  Biso   1.000  C
  C38      1.0000 0.61140  0.20140  0.74400  Biso   1.000  C
  C39      1.0000 0.11140  0.29860  0.24400  Biso   1.000  C
  C40      1.0000 0.38860  0.79860  0.25600  Biso   1.000  C
  N1       1.0000 0.90500  0.09430  0.62790  Biso   1.000  N
  N2       1.0000 0.59500  0.59430  0.87210  Biso   1.000  N
  N3       1.0000 0.09500  0.90570  0.37210  Biso   1.000  N
  N4       1.0000 0.40500  0.40570  0.12790  Biso   1.000  N
  N5       1.0000 0.65280  0.03920  0.47630  Biso   1.000  N
  N6       1.0000 0.84720  0.53920  0.02370  Biso   1.000  N
  N7       1.0000 0.34720  0.96080  0.52370  Biso   1.000  N
  N8       1.0000 0.15280  0.46080  0.97630  Biso   1.000  N
  N9       1.0000 0.54490  0.01640  0.38530  Biso   1.000  N
  N10      1.0000 0.95510  0.51640  0.11470  Biso   1.000  N
  N11      1.0000 0.45510  0.98360  0.61470  Biso   1.000  N
  N12      1.0000 0.04490  0.48360  0.88530  Biso   1.000  N
  N13      1.0000 0.57130  0.03730  0.22320  Biso   1.000  N
  N14      1.0000 0.92870  0.53730  0.27680  Biso   1.000  N
  N15      1.0000 0.42870  0.96270  0.77680  Biso   1.000  N
  N16      1.0000 0.07130  0.46270  0.72320  Biso   1.000  N
  N17      1.0000 0.80490  0.92070  0.69170  Biso   1.000  N
  N18      1.0000 0.69510  0.42070  0.80830  Biso   1.000  N
  N19      1.0000 0.19510  0.07930  0.30830  Biso   1.000  N
  N20      1.0000 0.30490  0.57930  0.19170  Biso   1.000  N
  N21      1.0000 0.85510  0.63150  0.78060  Biso   1.000  N
  N22      1.0000 0.64490  0.13150  0.71940  Biso   1.000  N
  N23      1.0000 0.14490  0.36850  0.21940  Biso   1.000  N
  N24      1.0000 0.35510  0.86850  0.28060  Biso   1.000  N
  N25      1.0000 0.94580  0.77680  0.72710  Biso   1.000  N
  N26      1.0000 0.55420  0.27680  0.77290  Biso   1.000  N
  N27      1.0000 0.05420  0.22320  0.27290  Biso   1.000  N
  N28      1.0000 0.44580  0.72320  0.22710  Biso   1.000  N
  O1       1.0000 0.77860  0.07970  0.36460  Biso   1.000  O
  O2       1.0000 0.72140  0.57970  0.13540  Biso   1.000  O
  O3       1.0000 0.22140  0.92030  0.63540  Biso   1.000  O
  O4       1.0000 0.27860  0.42030  0.86460  Biso   1.000  O
  O5       1.0000 0.40690  0.75590  0.60660  Biso   1.000  O
  O6       1.0000 0.09310  0.25590  0.89340  Biso   1.000  O
  O7       1.0000 0.59310  0.24410  0.39340  Biso   1.000  O
  O8       1.0000 0.90690  0.74410  0.10660  Biso   1.000  O
  O9       1.0000 0.30570  0.71930  0.44310  Biso   1.000  O
  O10      1.0000 0.19430  0.21930  0.05690  Biso   1.000  O
  O11      1.0000 0.69430  0.28070  0.55690  Biso   1.000  O
  O12      1.0000 0.80570  0.78070  0.94310  Biso   1.000  O
  O13      1.0000 0.44260  0.61480  0.55610  Biso   1.000  O
  O14      1.0000 0.05740  0.11480  0.94390  Biso   1.000  O
  O15      1.0000 0.55740  0.38520  0.44390  Biso   1.000  O
  O16      1.0000 0.94260  0.88520  0.05610  Biso   1.000  O
  O17      1.0000 0.57630  0.73100  0.51600  Biso   1.000  O
  O18      1.0000 0.92370  0.23100  0.98400  Biso   1.000  O
  O19      1.0000 0.42370  0.26900  0.48400  Biso   1.000  O
  O20      1.0000 0.07630  0.76900  0.01600  Biso   1.000  O
  O21      1.0000 0.27530  0.98830  0.08170  Biso   1.000  O
  O22      1.0000 0.22470  0.48830  0.41830  Biso   1.000  O
  O23      1.0000 0.72470  0.01170  0.91830  Biso   1.000  O
  O24      1.0000 0.77530  0.51170  0.58170  Biso   1.000  O
  Cl1      1.0000 0.43510  0.70627  0.52899  Biso   1.000  Cl
  Cl2      1.0000 0.06490  0.20627  0.97101  Biso   1.000  Cl
  Cl3      1.0000 0.56490  0.29373  0.47101  Biso   1.000  Cl
  Cl4      1.0000 0.93510  0.79373  0.02899  Biso   1.000  Cl
  Cu1      1.0000 0.68262  0.03569  0.63260  Biso   1.000  Cu
  Cu2      1.0000 0.81738  0.53569  0.86740  Biso   1.000  Cu
  Cu3      1.0000 0.31738  0.96431  0.36740  Biso   1.000  Cu
  Cu4      1.0000 0.18262  0.46431  0.13260  Biso   1.000  Cu
  H29      1.0000 0.47000  0.01800  0.19300  Biso   1.000  H
  H30      1.0000 0.03000  0.51800  0.30700  Biso   1.000  H
  H31      1.0000 0.53000  0.98200  0.80700  Biso   1.000  H
  H32      1.0000 0.97000  0.48200  0.69300  Biso   1.000  H
