data_image0
_cell_length_a       11.787
_cell_length_b       6.7313
_cell_length_c       5.151
_cell_angle_alpha    90
_cell_angle_beta     115.88
_cell_angle_gamma    90

_symmetry_space_group_name_H-M    "P 1"
_symmetry_int_tables_number       1

loop_
  _symmetry_equiv_pos_as_xyz
  'x, y, z'

loop_
  _atom_site_label
  _atom_site_occupancy
  _atom_site_fract_x
  _atom_site_fract_y
  _atom_site_fract_z
  _atom_site_thermal_displace_type
  _atom_site_B_iso_or_equiv
  _atom_site_type_symbol
  Cu1      1.0000 0.50000  0.50000  0.00000  Biso   1.000  Cu
  Cu2      1.0000 0.00000  0.00000  0.00000  Biso   1.000  Cu
  O1       1.0000 0.68910  0.50000  0.19900  Biso   1.000  O
  O2       1.0000 0.31090  0.50000  0.80100  Biso   1.000  O
  O3       1.0000 0.18910  0.00000  0.19900  Biso   1.000  O
  O4       1.0000 0.81090  0.00000  0.80100  Biso   1.000  O
  O5       1.0000 0.63140  0.50000  0.52500  Biso   1.000  O
  O6       1.0000 0.36860  0.50000  0.47500  Biso   1.000  O
  O7       1.0000 0.13140  0.00000  0.52500  Biso   1.000  O
  O8       1.0000 0.86860  0.00000  0.47500  Biso   1.000  O
  N1       1.0000 0.50000  0.20400  0.00000  Biso   1.000  N
  N2       1.0000 0.00000  0.70400  0.00000  Biso   1.000  N
  N3       1.0000 0.50000  0.79600  0.00000  Biso   1.000  N
  N4       1.0000 0.00000  0.29600  0.00000  Biso   1.000  N
  N5       1.0000 0.72210  0.50000  0.46800  Biso   1.000  N
  N6       1.0000 0.27790  0.50000  0.53200  Biso   1.000  N
  N7       1.0000 0.22210  0.00000  0.46800  Biso   1.000  N
  N8       1.0000 0.77790  0.00000  0.53200  Biso   1.000  N
  C1       1.0000 0.43380  0.10080  0.10800  Biso   1.000  C
  C2       1.0000 0.56620  0.10080  0.89200  Biso   1.000  C
  C3       1.0000 0.93380  0.60080  0.10800  Biso   1.000  C
  C4       1.0000 0.06620  0.60080  0.89200  Biso   1.000  C
  C5       1.0000 0.56620  0.89920  0.89200  Biso   1.000  C
  C6       1.0000 0.43380  0.89920  0.10800  Biso   1.000  C
  C7       1.0000 0.06620  0.39920  0.89200  Biso   1.000  C
  C8       1.0000 0.93380  0.39920  0.10800  Biso   1.000  C
  H1       1.0000 0.38500  0.18000  0.16000  Biso   1.000  H
  H2       1.0000 0.61500  0.18000  0.84000  Biso   1.000  H
  H3       1.0000 0.88500  0.68000  0.16000  Biso   1.000  H
  H4       1.0000 0.11500  0.68000  0.84000  Biso   1.000  H
  H5       1.0000 0.61500  0.82000  0.84000  Biso   1.000  H
  H6       1.0000 0.38500  0.82000  0.16000  Biso   1.000  H
  H7       1.0000 0.11500  0.32000  0.84000  Biso   1.000  H
  H8       1.0000 0.88500  0.32000  0.16000  Biso   1.000  H
