data_image0
_cell_length_a       12.248
_cell_length_b       12.514
_cell_length_c       14.504
_cell_angle_alpha    96.459
_cell_angle_beta     97.524
_cell_angle_gamma    98.398

_symmetry_space_group_name_H-M    "P 1"
_symmetry_int_tables_number       1

loop_
  _symmetry_equiv_pos_as_xyz
  'x, y, z'

loop_
  _atom_site_label
  _atom_site_occupancy
  _atom_site_fract_x
  _atom_site_fract_y
  _atom_site_fract_z
  _atom_site_thermal_displace_type
  _atom_site_B_iso_or_equiv
  _atom_site_type_symbol
  Cu1      1.0000 0.50000  0.50000  0.50000  Biso   1.000  Cu
  Cu2      1.0000 0.48881  0.60208  0.30734  Biso   1.000  Cu
  Cu3      1.0000 0.51119  0.39792  0.69266  Biso   1.000  Cu
  Cu4      1.0000 0.50000  0.00000  0.00000  Biso   1.000  Cu
  Cu5      1.0000 0.58520  0.09393  0.21746  Biso   1.000  Cu
  Cu6      1.0000 0.41480  0.90607  0.78254  Biso   1.000  Cu
  S1       1.0000 0.75250  0.67770  0.30560  Biso   1.000  S
  S2       1.0000 0.24750  0.32230  0.69440  Biso   1.000  S
  S3       1.0000 0.43520  0.28300  0.25393  Biso   1.000  S
  S4       1.0000 0.56480  0.71700  0.74607  Biso   1.000  S
  O1       1.0000 0.54400  0.61920  0.43670  Biso   1.000  O
  O2       1.0000 0.45600  0.38080  0.56330  Biso   1.000  O
  H1       1.0000 0.62450  0.63200  0.44370  Biso   1.000  H
  H2       1.0000 0.37550  0.36800  0.55630  Biso   1.000  H
  O3       1.0000 0.54890  0.12420  0.09390  Biso   1.000  O
  O4       1.0000 0.45110  0.87580  0.90610  Biso   1.000  O
  H3       1.0000 0.48760  0.16710  0.09350  Biso   1.000  H
  H4       1.0000 0.51240  0.83290  0.90650  Biso   1.000  H
  O5       1.0000 0.75840  0.68180  0.40610  Biso   1.000  O
  O6       1.0000 0.24160  0.31820  0.59390  Biso   1.000  O
  O7       1.0000 0.43180  0.28870  0.15550  Biso   1.000  O
  O8       1.0000 0.56820  0.71130  0.84450  Biso   1.000  O
  O9       1.0000 0.44970  0.38690  0.31360  Biso   1.000  O
  O10      1.0000 0.55030  0.61310  0.68640  Biso   1.000  O
  O11      1.0000 0.82240  0.76290  0.27030  Biso   1.000  O
  O12      1.0000 0.17760  0.23710  0.72970  Biso   1.000  O
  O13      1.0000 0.33440  0.59020  0.33450  Biso   1.000  O
  O14      1.0000 0.66560  0.40980  0.66550  Biso   1.000  O
  O15      1.0000 0.34190  0.51850  0.46960  Biso   1.000  O
  O16      1.0000 0.65810  0.48150  0.53040  Biso   1.000  O
  O17      1.0000 0.70160  0.01450  0.17840  Biso   1.000  O
  O18      1.0000 0.29840  0.98550  0.82160  Biso   1.000  O
  O19      1.0000 0.64500  0.95090  0.02590  Biso   1.000  O
  O20      1.0000 0.35500  0.04910  0.97410  Biso   1.000  O
  O21      1.0000 0.43620  0.90860  0.14710  Biso   1.000  O
  O22      1.0000 0.56380  0.09140  0.85290  Biso   1.000  O
  N1       1.0000 0.42880  0.57960  0.17120  Biso   1.000  N
  N2       1.0000 0.57120  0.42040  0.82880  Biso   1.000  N
  N3       1.0000 0.62290  0.66660  0.26170  Biso   1.000  N
  N4       1.0000 0.37710  0.33340  0.73830  Biso   1.000  N
  N5       1.0000 0.61750  0.05170  0.34420  Biso   1.000  N
  N6       1.0000 0.38250  0.94830  0.65580  Biso   1.000  N
  N7       1.0000 0.52560  0.21220  0.28780  Biso   1.000  N
  N8       1.0000 0.47440  0.78780  0.71220  Biso   1.000  N
  N9       1.0000 0.27430  0.80370  0.14820  Biso   1.000  N
  N10      1.0000 0.72570  0.19630  0.85180  Biso   1.000  N
  C1       1.0000 0.32950  0.52460  0.12930  Biso   1.000  C
  C2       1.0000 0.67050  0.47540  0.87070  Biso   1.000  C
  H5       1.0000 0.28400  0.48670  0.16540  Biso   1.000  H
  H6       1.0000 0.71600  0.51330  0.83460  Biso   1.000  H
  C3       1.0000 0.29260  0.52080  0.03650  Biso   1.000  C
  C4       1.0000 0.70740  0.47920  0.96350  Biso   1.000  C
  H7       1.0000 0.22250  0.48220  0.01070  Biso   1.000  H
  H8       1.0000 0.77750  0.51780  0.98930  Biso   1.000  H
  C5       1.0000 0.35870  0.57440  0.98040  Biso   1.000  C
  C6       1.0000 0.64130  0.42560  0.01960  Biso   1.000  C
  H9       1.0000 0.33410  0.57400  0.91690  Biso   1.000  H
  H10      1.0000 0.66590  0.42600  0.08310  Biso   1.000  H
  C7       1.0000 0.45870  0.62770  0.02100  Biso   1.000  C
  C8       1.0000 0.54130  0.37230  0.97900  Biso   1.000  C
  H11      1.0000 0.50560  0.66350  0.98470  Biso   1.000  H
  H12      1.0000 0.49440  0.33650  0.01530  Biso   1.000  H
  C9       1.0000 0.49470  0.62970  0.11600  Biso   1.000  C
  C10      1.0000 0.50530  0.37030  0.88400  Biso   1.000  C
  C11      1.0000 0.60730  0.68460  0.16360  Biso   1.000  C
  C12      1.0000 0.39270  0.31540  0.83640  Biso   1.000  C
  H13      1.0000 0.66410  0.65600  0.13210  Biso   1.000  H
  H14      1.0000 0.33590  0.34400  0.86790  Biso   1.000  H
  H15      1.0000 0.61500  0.76220  0.15990  Biso   1.000  H
  H16      1.0000 0.38500  0.23780  0.84010  Biso   1.000  H
  C13      1.0000 0.80060  0.55380  0.26820  Biso   1.000  C
  C14      1.0000 0.19940  0.44620  0.73180  Biso   1.000  C
  C15      1.0000 0.65630  0.96170  0.36590  Biso   1.000  C
  C16      1.0000 0.34370  0.03830  0.63410  Biso   1.000  C
  H17      1.0000 0.66730  0.91140  0.31700  Biso   1.000  H
  H18      1.0000 0.33270  0.08860  0.68300  Biso   1.000  H
  C17      1.0000 0.68080  0.93930  0.45640  Biso   1.000  C
  C18      1.0000 0.31920  0.06070  0.54360  Biso   1.000  C
  H19      1.0000 0.70820  0.87590  0.46830  Biso   1.000  H
  H20      1.0000 0.29180  0.12410  0.53170  Biso   1.000  H
  C19      1.0000 0.66370  0.01340  0.52880  Biso   1.000  C
  C20      1.0000 0.33630  0.98660  0.47120  Biso   1.000  C
  H21      1.0000 0.67900  0.99990  0.59060  Biso   1.000  H
  H22      1.0000 0.32100  0.00010  0.40940  Biso   1.000  H
  C21      1.0000 0.62400  0.10530  0.50980  Biso   1.000  C
  C22      1.0000 0.37600  0.89470  0.49020  Biso   1.000  C
  H23      1.0000 0.61490  0.15720  0.55810  Biso   1.000  H
  H24      1.0000 0.38510  0.84280  0.44190  Biso   1.000  H
  C23      1.0000 0.59840  0.12030  0.41730  Biso   1.000  C
  C24      1.0000 0.40160  0.87970  0.58270  Biso   1.000  C
  C25      1.0000 0.54880  0.21730  0.38990  Biso   1.000  C
  C26      1.0000 0.45120  0.78270  0.61010  Biso   1.000  C
  H25      1.0000 0.48000  0.21940  0.41590  Biso   1.000  H
  H26      1.0000 0.52000  0.78060  0.58410  Biso   1.000  H
  H27      1.0000 0.60010  0.28360  0.41580  Biso   1.000  H
  H28      1.0000 0.39990  0.71640  0.58420  Biso   1.000  H
  C27      1.0000 0.30600  0.20830  0.26730  Biso   1.000  C
  C28      1.0000 0.69400  0.79170  0.73270  Biso   1.000  C
  C29      1.0000 0.29010  0.55440  0.40030  Biso   1.000  C
  C30      1.0000 0.70990  0.44560  0.59970  Biso   1.000  C
  C31      1.0000 0.16550  0.55110  0.39620  Biso   1.000  C
  C32      1.0000 0.83450  0.44890  0.60380  Biso   1.000  C
  H29      1.0000 0.12950  0.53040  0.33170  Biso   1.000  H
  H30      1.0000 0.87050  0.46960  0.66830  Biso   1.000  H
  H31      1.0000 0.13600  0.49560  0.43210  Biso   1.000  H
  H32      1.0000 0.86400  0.50440  0.56790  Biso   1.000  H
  C33      1.0000 0.14700  0.65600  0.43000  Biso   1.000  C
  C34      1.0000 0.85300  0.34400  0.57000  Biso   1.000  C
  H33      1.0000 0.20230  0.71530  0.42270  Biso   1.000  H
  H34      1.0000 0.79770  0.28470  0.57730  Biso   1.000  H
  H35      1.0000 0.13940  0.65640  0.49510  Biso   1.000  H
  H36      1.0000 0.86060  0.34360  0.50490  Biso   1.000  H
  H37      1.0000 0.07630  0.66270  0.39510  Biso   1.000  H
  H38      1.0000 0.92370  0.33730  0.60490  Biso   1.000  H
  C35      1.0000 0.71530  0.97020  0.09990  Biso   1.000  C
  C36      1.0000 0.28470  0.02980  0.90010  Biso   1.000  C
  C37      1.0000 0.82980  0.94360  0.09320  Biso   1.000  C
  C38      1.0000 0.17020  0.05640  0.90680  Biso   1.000  C
  H39      1.0000 0.87280  0.00590  0.07320  Biso   1.000  H
  H40      1.0000 0.12720  0.99410  0.92680  Biso   1.000  H
  H41      1.0000 0.86430  0.93790  0.15620  Biso   1.000  H
  H42      1.0000 0.13570  0.06210  0.84380  Biso   1.000  H
  C39      1.0000 0.84380  0.85100  0.03460  Biso   1.000  C
  C40      1.0000 0.15620  0.14900  0.96540  Biso   1.000  C
  H43      1.0000 0.77950  0.79530  0.02860  Biso   1.000  H
  H44      1.0000 0.22050  0.20470  0.97140  Biso   1.000  H
  H45      1.0000 0.90850  0.82440  0.06210  Biso   1.000  H
  H46      1.0000 0.09150  0.17560  0.93790  Biso   1.000  H
  H47      1.0000 0.85450  0.87000  0.97380  Biso   1.000  H
  H48      1.0000 0.14550  0.13000  0.02620  Biso   1.000  H
  C41      1.0000 0.36700  0.85360  0.18000  Biso   1.000  C
  C42      1.0000 0.63300  0.14640  0.82000  Biso   1.000  C
  H49      1.0000 0.39020  0.84490  0.24220  Biso   1.000  H
  H50      1.0000 0.60980  0.15510  0.75780  Biso   1.000  H
  C43      1.0000 0.22500  0.79900  0.05620  Biso   1.000  C
  C44      1.0000 0.77500  0.20100  0.94380  Biso   1.000  C
  H51      1.0000 0.15450  0.75180  0.04680  Biso   1.000  H
  H52      1.0000 0.84550  0.24820  0.95320  Biso   1.000  H
  H53      1.0000 0.27270  0.77120  0.01530  Biso   1.000  H
  H54      1.0000 0.72730  0.22880  0.98470  Biso   1.000  H
  H55      1.0000 0.21360  0.87070  0.04250  Biso   1.000  H
  H56      1.0000 0.78640  0.12930  0.95750  Biso   1.000  H
  C45      1.0000 0.21100  0.76000  0.20200  Biso   1.000  C
  C46      1.0000 0.78900  0.24000  0.79800  Biso   1.000  C
  H57      1.0000 0.13750  0.71970  0.17580  Biso   1.000  H
  H58      1.0000 0.86250  0.28030  0.82420  Biso   1.000  H
  H59      1.0000 0.20270  0.81740  0.24890  Biso   1.000  H
  H60      1.0000 0.79730  0.18260  0.75110  Biso   1.000  H
  H61      1.0000 0.25430  0.71090  0.23070  Biso   1.000  H
  H62      1.0000 0.74570  0.28910  0.76930  Biso   1.000  H
  C47      1.0000 0.75260  0.45590  0.29950  Biso   1.000  C
  C48      1.0000 0.24740  0.54410  0.70050  Biso   1.000  C
  H63      1.0000 0.69490  0.45700  0.33530  Biso   1.000  H
  H64      1.0000 0.30510  0.54300  0.66470  Biso   1.000  H
  C49      1.0000 0.79150  0.36200  0.27590  Biso   1.000  C
  C50      1.0000 0.20850  0.63800  0.72410  Biso   1.000  C
  H65      1.0000 0.76190  0.29910  0.29850  Biso   1.000  H
  H66      1.0000 0.23810  0.70090  0.70150  Biso   1.000  H
  C51      1.0000 0.87460  0.35670  0.21980  Biso   1.000  C
  C52      1.0000 0.12540  0.64330  0.78020  Biso   1.000  C
  C53      1.0000 0.91790  0.26050  0.19830  Biso   1.000  C
  C54      1.0000 0.08210  0.73950  0.80170  Biso   1.000  C
  H67      1.0000 0.88960  0.19730  0.22120  Biso   1.000  H
  H68      1.0000 0.11040  0.80270  0.77880  Biso   1.000  H
  C55      1.0000 0.99970  0.25890  0.14480  Biso   1.000  C
  C56      1.0000 0.00030  0.74110  0.85520  Biso   1.000  C
  H69      1.0000 0.02950  0.19520  0.13370  Biso   1.000  H
  H70      1.0000 0.97050  0.80480  0.86630  Biso   1.000  H
  C57      1.0000 0.03990  0.35040  0.10620  Biso   1.000  C
  C58      1.0000 0.96010  0.64960  0.89380  Biso   1.000  C
  H71      1.0000 0.09290  0.34640  0.06610  Biso   1.000  H
  H72      1.0000 0.90710  0.65360  0.93390  Biso   1.000  H
  C59      1.0000 0.00260  0.44610  0.12630  Biso   1.000  C
  C60      1.0000 0.99740  0.55390  0.87370  Biso   1.000  C
  H73      1.0000 0.03090  0.50790  0.10140  Biso   1.000  H
  H74      1.0000 0.96910  0.49210  0.89860  Biso   1.000  H
  C61      1.0000 0.92160  0.45220  0.18390  Biso   1.000  C
  C62      1.0000 0.07840  0.54780  0.81610  Biso   1.000  C
  C63      1.0000 0.87930  0.55110  0.20980  Biso   1.000  C
  C64      1.0000 0.12070  0.44890  0.79020  Biso   1.000  C
  H75      1.0000 0.90600  0.61410  0.18600  Biso   1.000  H
  H76      1.0000 0.09400  0.38590  0.81400  Biso   1.000  H
  C65      1.0000 0.26860  0.10850  0.20840  Biso   1.000  C
  C66      1.0000 0.73140  0.89150  0.79160  Biso   1.000  C
  H77      1.0000 0.30820  0.08840  0.16060  Biso   1.000  H
  H78      1.0000 0.69180  0.91160  0.83940  Biso   1.000  H
  C67      1.0000 0.17820  0.04240  0.22090  Biso   1.000  C
  C68      1.0000 0.82180  0.95760  0.77910  Biso   1.000  C
  H79      1.0000 0.15570  0.97670  0.18160  Biso   1.000  H
  H80      1.0000 0.84430  0.02330  0.81840  Biso   1.000  H
  C69      1.0000 0.11570  0.06790  0.29070  Biso   1.000  C
  C70      1.0000 0.88430  0.93210  0.70930  Biso   1.000  C
  C71      1.0000 0.02200  0.99970  0.30940  Biso   1.000  C
  C72      1.0000 0.97800  0.00030  0.69060  Biso   1.000  C
  H81      1.0000 0.00030  0.93170  0.27350  Biso   1.000  H
  H82      1.0000 0.99970  0.06830  0.72650  Biso   1.000  H
  C73      1.0000 0.96370  0.02680  0.37420  Biso   1.000  C
  C74      1.0000 0.03630  0.97320  0.62580  Biso   1.000  C
  H83      1.0000 0.90280  0.97790  0.38410  Biso   1.000  H
  H84      1.0000 0.09720  0.02210  0.61590  Biso   1.000  H
  C75      1.0000 0.99050  0.12370  0.42860  Biso   1.000  C
  C76      1.0000 0.00950  0.87630  0.57140  Biso   1.000  C
  H85      1.0000 0.94770  0.14270  0.47440  Biso   1.000  H
  H86      1.0000 0.05230  0.85730  0.52560  Biso   1.000  H
  C77      1.0000 0.08240  0.19670  0.41530  Biso   1.000  C
  C78      1.0000 0.91760  0.80330  0.58470  Biso   1.000  C
  H87      1.0000 0.10050  0.26460  0.45190  Biso   1.000  H
  H88      1.0000 0.89950  0.73540  0.54810  Biso   1.000  H
  C79      1.0000 0.14670  0.17010  0.34870  Biso   1.000  C
  C80      1.0000 0.85330  0.82990  0.65130  Biso   1.000  C
  C81      1.0000 0.24550  0.23880  0.33320  Biso   1.000  C
  C82      1.0000 0.75450  0.76120  0.66680  Biso   1.000  C
  H89      1.0000 0.26780  0.30650  0.36960  Biso   1.000  H
  H90      1.0000 0.73220  0.69350  0.63040  Biso   1.000  H
