data_image0
_cell_length_a       11.079
_cell_length_b       14.215
_cell_length_c       11.601
_cell_angle_alpha    90
_cell_angle_beta     112.594
_cell_angle_gamma    90

_symmetry_space_group_name_H-M    "P 1"
_symmetry_int_tables_number       1

loop_
  _symmetry_equiv_pos_as_xyz
  'x, y, z'

loop_
  _atom_site_label
  _atom_site_occupancy
  _atom_site_fract_x
  _atom_site_fract_y
  _atom_site_fract_z
  _atom_site_thermal_displace_type
  _atom_site_B_iso_or_equiv
  _atom_site_type_symbol
  Cu1      1.0000 0.50000  0.50000  0.00000  Biso   1.000  Cu
  Cu2      1.0000 0.50000  0.00000  0.50000  Biso   1.000  Cu
  Cu3      1.0000 0.62605  0.69086  0.97050  Biso   1.000  Cu
  Cu4      1.0000 0.37395  0.19086  0.52950  Biso   1.000  Cu
  Cu5      1.0000 0.37395  0.30914  0.02950  Biso   1.000  Cu
  Cu6      1.0000 0.62605  0.80914  0.47050  Biso   1.000  Cu
  S1       1.0000 0.45533  0.74659  0.17225  Biso   1.000  S
  S2       1.0000 0.54467  0.24659  0.32775  Biso   1.000  S
  S3       1.0000 0.54467  0.25341  0.82775  Biso   1.000  S
  S4       1.0000 0.45533  0.75341  0.67225  Biso   1.000  S
  O1       1.0000 0.56550  0.57140  0.89620  Biso   1.000  O
  O2       1.0000 0.43450  0.07140  0.60380  Biso   1.000  O
  O3       1.0000 0.43450  0.42860  0.10380  Biso   1.000  O
  O4       1.0000 0.56550  0.92860  0.39620  Biso   1.000  O
  H1       1.0000 0.51600  0.57750  0.80230  Biso   1.000  H
  H2       1.0000 0.48400  0.07750  0.69770  Biso   1.000  H
  H3       1.0000 0.48400  0.42250  0.19770  Biso   1.000  H
  H4       1.0000 0.51600  0.92250  0.30230  Biso   1.000  H
  O5       1.0000 0.48090  0.68470  0.08180  Biso   1.000  O
  O6       1.0000 0.51910  0.18470  0.41820  Biso   1.000  O
  O7       1.0000 0.51910  0.31530  0.91820  Biso   1.000  O
  O8       1.0000 0.48090  0.81530  0.58180  Biso   1.000  O
  O9       1.0000 0.45920  0.84620  0.14870  Biso   1.000  O
  O10      1.0000 0.54080  0.34620  0.35130  Biso   1.000  O
  O11      1.0000 0.54080  0.15380  0.85130  Biso   1.000  O
  O12      1.0000 0.45920  0.65380  0.64870  Biso   1.000  O
  O13      1.0000 0.66650  0.49430  0.14320  Biso   1.000  O
  O14      1.0000 0.33350  0.99430  0.35680  Biso   1.000  O
  O15      1.0000 0.33350  0.50570  0.85680  Biso   1.000  O
  O16      1.0000 0.66650  0.00570  0.64320  Biso   1.000  O
  O17      1.0000 0.75870  0.62670  0.11790  Biso   1.000  O
  O18      1.0000 0.24130  0.12670  0.38210  Biso   1.000  O
  O19      1.0000 0.24130  0.37330  0.88210  Biso   1.000  O
  O20      1.0000 0.75870  0.87330  0.61790  Biso   1.000  O
  N1       1.0000 0.69020  0.68610  0.55750  Biso   1.000  N
  N2       1.0000 0.30980  0.18610  0.94250  Biso   1.000  N
  N3       1.0000 0.30980  0.31390  0.44250  Biso   1.000  N
  N4       1.0000 0.69020  0.81390  0.05750  Biso   1.000  N
  N5       1.0000 0.54200  0.72530  0.31830  Biso   1.000  N
  N6       1.0000 0.45800  0.22530  0.18170  Biso   1.000  N
  N7       1.0000 0.45800  0.27470  0.68170  Biso   1.000  N
  N8       1.0000 0.54200  0.77470  0.81830  Biso   1.000  N
  C1       1.0000 0.76610  0.67370  0.68380  Biso   1.000  C
  C2       1.0000 0.23390  0.17370  0.81620  Biso   1.000  C
  C3       1.0000 0.23390  0.32630  0.31620  Biso   1.000  C
  C4       1.0000 0.76610  0.82630  0.18380  Biso   1.000  C
  H5       1.0000 0.79710  0.73670  0.72610  Biso   1.000  H
  H6       1.0000 0.20290  0.23670  0.77390  Biso   1.000  H
  H7       1.0000 0.20290  0.26330  0.27390  Biso   1.000  H
  H8       1.0000 0.79710  0.76330  0.22610  Biso   1.000  H
  C5       1.0000 0.79720  0.58750  0.73920  Biso   1.000  C
  C6       1.0000 0.20280  0.08750  0.76080  Biso   1.000  C
  C7       1.0000 0.20280  0.41250  0.26080  Biso   1.000  C
  C8       1.0000 0.79720  0.91250  0.23920  Biso   1.000  C
  H9       1.0000 0.84290  0.58180  0.81280  Biso   1.000  H
  H10      1.0000 0.15710  0.08180  0.68720  Biso   1.000  H
  H11      1.0000 0.15710  0.41820  0.18720  Biso   1.000  H
  H12      1.0000 0.84290  0.91820  0.31280  Biso   1.000  H
  C9       1.0000 0.75270  0.50910  0.66380  Biso   1.000  C
  C10      1.0000 0.24730  0.00910  0.83620  Biso   1.000  C
  C11      1.0000 0.24730  0.49090  0.33620  Biso   1.000  C
  C12      1.0000 0.75270  0.99090  0.16380  Biso   1.000  C
  H13      1.0000 0.76310  0.45510  0.68190  Biso   1.000  H
  H14      1.0000 0.23690  0.95510  0.81810  Biso   1.000  H
  H15      1.0000 0.23690  0.54490  0.31810  Biso   1.000  H
  H16      1.0000 0.76310  0.04490  0.18190  Biso   1.000  H
  C13      1.0000 0.67490  0.51900  0.53800  Biso   1.000  C
  C14      1.0000 0.32510  0.01900  0.96200  Biso   1.000  C
  C15      1.0000 0.32510  0.48100  0.46200  Biso   1.000  C
  C16      1.0000 0.67490  0.98100  0.03800  Biso   1.000  C
  H17      1.0000 0.64590  0.47880  0.48430  Biso   1.000  H
  H18      1.0000 0.35410  0.97880  0.01570  Biso   1.000  H
  H19      1.0000 0.35410  0.52120  0.51570  Biso   1.000  H
  H20      1.0000 0.64590  0.02120  0.98430  Biso   1.000  H
  C17      1.0000 0.64300  0.60950  0.48600  Biso   1.000  C
  C18      1.0000 0.35700  0.10950  0.01400  Biso   1.000  C
  C19      1.0000 0.35700  0.39050  0.51400  Biso   1.000  C
  C20      1.0000 0.64300  0.89050  0.98600  Biso   1.000  C
  C21      1.0000 0.55380  0.62420  0.35020  Biso   1.000  C
  C22      1.0000 0.44620  0.12420  0.14980  Biso   1.000  C
  C23      1.0000 0.44620  0.37580  0.64980  Biso   1.000  C
  C24      1.0000 0.55380  0.87580  0.85020  Biso   1.000  C
  H21      1.0000 0.59040  0.58890  0.28790  Biso   1.000  H
  H22      1.0000 0.40960  0.08890  0.21210  Biso   1.000  H
  H23      1.0000 0.40960  0.41110  0.71210  Biso   1.000  H
  H24      1.0000 0.59040  0.91110  0.78790  Biso   1.000  H
  H25      1.0000 0.48440  0.60490  0.35790  Biso   1.000  H
  H26      1.0000 0.51560  0.10490  0.14210  Biso   1.000  H
  H27      1.0000 0.51560  0.39510  0.64210  Biso   1.000  H
  H28      1.0000 0.48440  0.89510  0.85790  Biso   1.000  H
  C25      1.0000 0.29810  0.72000  0.14950  Biso   1.000  C
  C26      1.0000 0.70190  0.22000  0.35050  Biso   1.000  C
  C27      1.0000 0.70190  0.28000  0.85050  Biso   1.000  C
  C28      1.0000 0.29810  0.78000  0.64950  Biso   1.000  C
  C29      1.0000 0.75780  0.55020  0.17290  Biso   1.000  C
  C30      1.0000 0.24220  0.05020  0.32710  Biso   1.000  C
  C31      1.0000 0.24220  0.44980  0.82710  Biso   1.000  C
  C32      1.0000 0.75780  0.94980  0.67290  Biso   1.000  C
  C33      1.0000 0.87590  0.52250  0.28580  Biso   1.000  C
  C34      1.0000 0.12410  0.02250  0.21420  Biso   1.000  C
  C35      1.0000 0.12410  0.47750  0.71420  Biso   1.000  C
  C36      1.0000 0.87590  0.97750  0.78580  Biso   1.000  C
  H29      1.0000 0.92190  0.51010  0.24160  Biso   1.000  H
  H30      1.0000 0.07810  0.01010  0.25840  Biso   1.000  H
  H31      1.0000 0.07810  0.48990  0.75840  Biso   1.000  H
  H32      1.0000 0.92190  0.98990  0.74160  Biso   1.000  H
  H33      1.0000 0.86190  0.49110  0.35460  Biso   1.000  H
  H34      1.0000 0.13810  0.99110  0.14540  Biso   1.000  H
  H35      1.0000 0.13810  0.50890  0.64540  Biso   1.000  H
  H36      1.0000 0.86190  0.00890  0.85460  Biso   1.000  H
  C37      1.0000 0.93760  0.59850  0.37870  Biso   1.000  C
  C38      1.0000 0.06240  0.09850  0.12130  Biso   1.000  C
  C39      1.0000 0.06240  0.40150  0.62130  Biso   1.000  C
  C40      1.0000 0.93760  0.90150  0.87870  Biso   1.000  C
  H37      1.0000 0.01120  0.57340  0.44680  Biso   1.000  H
  H38      1.0000 0.98880  0.07340  0.05320  Biso   1.000  H
  H39      1.0000 0.98880  0.42660  0.55320  Biso   1.000  H
  H40      1.0000 0.01120  0.92660  0.94680  Biso   1.000  H
  H41      1.0000 0.96660  0.64770  0.33870  Biso   1.000  H
  H42      1.0000 0.03340  0.14770  0.16130  Biso   1.000  H
  H43      1.0000 0.03340  0.35230  0.66130  Biso   1.000  H
  H44      1.0000 0.96660  0.85230  0.83870  Biso   1.000  H
  H45      1.0000 0.87550  0.62350  0.40970  Biso   1.000  H
  H46      1.0000 0.12450  0.12350  0.09030  Biso   1.000  H
  H47      1.0000 0.12450  0.37650  0.59030  Biso   1.000  H
  H48      1.0000 0.87550  0.87650  0.90970  Biso   1.000  H
  C41      1.0000 0.24360  0.76860  0.22130  Biso   1.000  C
  C42      1.0000 0.75640  0.26860  0.27870  Biso   1.000  C
  C43      1.0000 0.75640  0.23140  0.77870  Biso   1.000  C
  C44      1.0000 0.24360  0.73140  0.72130  Biso   1.000  C
  H49      1.0000 0.30080  0.81090  0.30800  Biso   1.000  H
  H50      1.0000 0.69920  0.31090  0.19200  Biso   1.000  H
  H51      1.0000 0.69920  0.18910  0.69200  Biso   1.000  H
  H52      1.0000 0.30080  0.68910  0.80800  Biso   1.000  H
  C45      1.0000 0.12070  0.75060  0.20150  Biso   1.000  C
  C46      1.0000 0.87930  0.25060  0.29850  Biso   1.000  C
  C47      1.0000 0.87930  0.24940  0.79850  Biso   1.000  C
  C48      1.0000 0.12070  0.74940  0.70150  Biso   1.000  C
  H53      1.0000 0.09110  0.78220  0.26720  Biso   1.000  H
  H54      1.0000 0.90890  0.28220  0.23280  Biso   1.000  H
  H55      1.0000 0.90890  0.21780  0.73280  Biso   1.000  H
  H56      1.0000 0.09110  0.71780  0.76720  Biso   1.000  H
  C49      1.0000 0.05370  0.68570  0.11040  Biso   1.000  C
  C50      1.0000 0.94630  0.18570  0.38960  Biso   1.000  C
  C51      1.0000 0.94630  0.31430  0.88960  Biso   1.000  C
  C52      1.0000 0.05370  0.81430  0.61040  Biso   1.000  C
  H57      1.0000 0.96240  0.66230  0.09620  Biso   1.000  H
  H58      1.0000 0.03760  0.16230  0.40380  Biso   1.000  H
  H59      1.0000 0.03760  0.33770  0.90380  Biso   1.000  H
  H60      1.0000 0.96240  0.83770  0.59620  Biso   1.000  H
  C53      1.0000 0.10830  0.63680  0.04200  Biso   1.000  C
  C54      1.0000 0.89170  0.13680  0.45800  Biso   1.000  C
  C55      1.0000 0.89170  0.36320  0.95800  Biso   1.000  C
  C56      1.0000 0.10830  0.86320  0.54200  Biso   1.000  C
  H61      1.0000 0.06800  0.59290  0.98210  Biso   1.000  H
  H62      1.0000 0.93200  0.09290  0.51790  Biso   1.000  H
  H63      1.0000 0.93200  0.40710  0.01790  Biso   1.000  H
  H64      1.0000 0.06800  0.90710  0.48210  Biso   1.000  H
  C57      1.0000 0.23350  0.65370  0.06200  Biso   1.000  C
  C58      1.0000 0.76650  0.15370  0.43800  Biso   1.000  C
  C59      1.0000 0.76650  0.34630  0.93800  Biso   1.000  C
  C60      1.0000 0.23350  0.84630  0.56200  Biso   1.000  C
  H65      1.0000 0.27500  0.61020  0.01210  Biso   1.000  H
  H66      1.0000 0.72500  0.11020  0.48790  Biso   1.000  H
  H67      1.0000 0.72500  0.38980  0.98790  Biso   1.000  H
  H68      1.0000 0.27500  0.88980  0.51210  Biso   1.000  H
