data_image0
_cell_length_a       11.7473
_cell_length_b       7.3575
_cell_length_c       12.7693
_cell_angle_alpha    90
_cell_angle_beta     110.051
_cell_angle_gamma    90

_symmetry_space_group_name_H-M    "P 1"
_symmetry_int_tables_number       1

loop_
  _symmetry_equiv_pos_as_xyz
  'x, y, z'

loop_
  _atom_site_label
  _atom_site_occupancy
  _atom_site_fract_x
  _atom_site_fract_y
  _atom_site_fract_z
  _atom_site_thermal_displace_type
  _atom_site_B_iso_or_equiv
  _atom_site_type_symbol
  Cu1      1.0000 0.17168  0.74658  0.58434  Biso   1.000  Cu
  Cu2      1.0000 0.82832  0.24658  0.41566  Biso   1.000  Cu
  N1       1.0000 0.13950  0.87890  0.44020  Biso   1.000  N
  N2       1.0000 0.86050  0.37890  0.55980  Biso   1.000  N
  H1       1.0000 0.08600  0.82800  0.40100  Biso   1.000  H
  H2       1.0000 0.91400  0.32800  0.59900  Biso   1.000  H
  H3       1.0000 0.11300  0.98700  0.44400  Biso   1.000  H
  H4       1.0000 0.88700  0.48700  0.55600  Biso   1.000  H
  N3       1.0000 0.20790  0.60890  0.72820  Biso   1.000  N
  N4       1.0000 0.79210  0.10890  0.27180  Biso   1.000  N
  H5       1.0000 0.17500  0.51000  0.70500  Biso   1.000  H
  H6       1.0000 0.82500  0.01000  0.29500  Biso   1.000  H
  H7       1.0000 0.16700  0.66000  0.76700  Biso   1.000  H
  H8       1.0000 0.83300  0.16000  0.23300  Biso   1.000  H
  N5       1.0000 0.16870  0.51350  0.49930  Biso   1.000  N
  N6       1.0000 0.83130  0.01350  0.50070  Biso   1.000  N
  N7       1.0000 0.23520  0.96970  0.67600  Biso   1.000  N
  N8       1.0000 0.76480  0.46970  0.32400  Biso   1.000  N
  N9       1.0000 0.09620  0.40040  0.46010  Biso   1.000  N
  N10      1.0000 0.90380  0.90040  0.53990  Biso   1.000  N
  N11      1.0000 0.02910  0.28240  0.41980  Biso   1.000  N
  N12      1.0000 0.97090  0.78240  0.58020  Biso   1.000  N
  N13      1.0000 0.16960  0.09080  0.68020  Biso   1.000  N
  N14      1.0000 0.83040  0.59080  0.31980  Biso   1.000  N
  N15      1.0000 0.11040  0.21230  0.68890  Biso   1.000  N
  N16      1.0000 0.88960  0.71230  0.31110  Biso   1.000  N
  C1       1.0000 0.33080  0.02650  0.45350  Biso   1.000  C
  C2       1.0000 0.66920  0.52650  0.54650  Biso   1.000  C
  H9       1.0000 0.35660  0.00770  0.53260  Biso   1.000  H
  H10      1.0000 0.64340  0.50770  0.46740  Biso   1.000  H
  H11      1.0000 0.29350  0.14390  0.43560  Biso   1.000  H
  H12      1.0000 0.70650  0.64390  0.56440  Biso   1.000  H
  H13      1.0000 0.39960  0.02010  0.42940  Biso   1.000  H
  H14      1.0000 0.60040  0.52010  0.57060  Biso   1.000  H
  C3       1.0000 0.23940  0.87960  0.39440  Biso   1.000  C
  C4       1.0000 0.76060  0.37960  0.60560  Biso   1.000  C
  H15      1.0000 0.27300  0.75000  0.40200  Biso   1.000  H
  H16      1.0000 0.72700  0.25000  0.59800  Biso   1.000  H
  C5       1.0000 0.19550  0.90260  0.26790  Biso   1.000  C
  C6       1.0000 0.80450  0.40260  0.73210  Biso   1.000  C
  C7       1.0000 0.09700  0.00800  0.21010  Biso   1.000  C
  C8       1.0000 0.90300  0.50800  0.78990  Biso   1.000  C
  H17      1.0000 0.06200  0.07600  0.24300  Biso   1.000  H
  H18      1.0000 0.93800  0.57600  0.75700  Biso   1.000  H
  C9       1.0000 0.06080  0.02820  0.09610  Biso   1.000  C
  C10      1.0000 0.93920  0.52820  0.90390  Biso   1.000  C
  H19      1.0000 0.99600  0.10200  0.06400  Biso   1.000  H
  H20      1.0000 0.00400  0.60200  0.93600  Biso   1.000  H
  C11      1.0000 0.12630  0.94460  0.03940  Biso   1.000  C
  C12      1.0000 0.87370  0.44460  0.96060  Biso   1.000  C
  Cl1      1.0000 0.08227  0.97360  0.89538  Biso   1.000  Cl
  Cl2      1.0000 0.91773  0.47360  0.10462  Biso   1.000  Cl
  C13      1.0000 0.22540  0.84250  0.09490  Biso   1.000  C
  C14      1.0000 0.77460  0.34250  0.90510  Biso   1.000  C
  H21      1.0000 0.25800  0.79600  0.05800  Biso   1.000  H
  H22      1.0000 0.74200  0.29600  0.94200  Biso   1.000  H
  C15      1.0000 0.25850  0.82170  0.20820  Biso   1.000  C
  C16      1.0000 0.74150  0.32170  0.79180  Biso   1.000  C
  H23      1.0000 0.32700  0.75100  0.24400  Biso   1.000  H
  H24      1.0000 0.67300  0.25100  0.75600  Biso   1.000  H
  C17      1.0000 0.39860  0.46060  0.74220  Biso   1.000  C
  C18      1.0000 0.60140  0.96060  0.25780  Biso   1.000  C
  H25      1.0000 0.47200  0.45500  0.78500  Biso   1.000  H
  H26      1.0000 0.52800  0.95500  0.21500  Biso   1.000  H
  H27      1.0000 0.40500  0.51200  0.66900  Biso   1.000  H
  H28      1.0000 0.59500  0.01200  0.33100  Biso   1.000  H
  H29      1.0000 0.37000  0.33700  0.73800  Biso   1.000  H
  H30      1.0000 0.63000  0.83700  0.26200  Biso   1.000  H
  C19      1.0000 0.33590  0.58660  0.80020  Biso   1.000  C
  C20      1.0000 0.66410  0.08660  0.19980  Biso   1.000  C
  H31      1.0000 0.37500  0.70900  0.81000  Biso   1.000  H
  H32      1.0000 0.62500  0.20900  0.19000  Biso   1.000  H
  C21      1.0000 0.35200  0.52490  0.91740  Biso   1.000  C
  C22      1.0000 0.64800  0.02490  0.08260  Biso   1.000  C
  C23      1.0000 0.26790  0.42010  0.94300  Biso   1.000  C
  C24      1.0000 0.73210  0.92010  0.05700  Biso   1.000  C
  H33      1.0000 0.19800  0.39100  0.88600  Biso   1.000  H
  H34      1.0000 0.80200  0.89100  0.11400  Biso   1.000  H
  C25      1.0000 0.28300  0.36890  0.05060  Biso   1.000  C
  C26      1.0000 0.71700  0.86890  0.94940  Biso   1.000  C
  H35      1.0000 0.21900  0.29600  0.06600  Biso   1.000  H
  H36      1.0000 0.78100  0.79600  0.93400  Biso   1.000  H
  C27      1.0000 0.38910  0.41920  0.13510  Biso   1.000  C
  C28      1.0000 0.61090  0.91920  0.86490  Biso   1.000  C
  Cl3      1.0000 0.40954  0.35570  0.27128  Biso   1.000  Cl
  Cl4      1.0000 0.59046  0.85570  0.72872  Biso   1.000  Cl
  C29      1.0000 0.47670  0.51720  0.11270  Biso   1.000  C
  C30      1.0000 0.52330  0.01720  0.88730  Biso   1.000  C
  H37      1.0000 0.53100  0.53500  0.16500  Biso   1.000  H
  H38      1.0000 0.46900  0.03500  0.83500  Biso   1.000  H
  C31      1.0000 0.45780  0.56980  0.00390  Biso   1.000  C
  C32      1.0000 0.54220  0.06980  0.99610  Biso   1.000  C
  H39      1.0000 0.52100  0.63900  0.98900  Biso   1.000  H
  H40      1.0000 0.47900  0.13900  0.01100  Biso   1.000  H
