data_image0
_cell_length_a       11.591
_cell_length_b       7.286
_cell_length_c       12.709
_cell_angle_alpha    90
_cell_angle_beta     109.591
_cell_angle_gamma    90

_symmetry_space_group_name_H-M    "P 1"
_symmetry_int_tables_number       1

loop_
  _symmetry_equiv_pos_as_xyz
  'x, y, z'

loop_
  _atom_site_label
  _atom_site_occupancy
  _atom_site_fract_x
  _atom_site_fract_y
  _atom_site_fract_z
  _atom_site_thermal_displace_type
  _atom_site_B_iso_or_equiv
  _atom_site_type_symbol
  Cu1      1.0000 0.17292  0.14699  0.08367  Biso   1.000  Cu
  Cu2      1.0000 0.82708  0.64699  0.91633  Biso   1.000  Cu
  Cl1      1.0000 0.08240  0.92456  0.39254  Biso   1.000  Cl
  Cl2      1.0000 0.91760  0.42456  0.60746  Biso   1.000  Cl
  Cl3      1.0000 0.40934  0.54054  0.77126  Biso   1.000  Cl
  Cl4      1.0000 0.59066  0.04054  0.22874  Biso   1.000  Cl
  N1       1.0000 0.13970  0.01340  0.93930  Biso   1.000  N
  N2       1.0000 0.86030  0.51340  0.06070  Biso   1.000  N
  H1       1.0000 0.12080  0.89630  0.94920  Biso   1.000  H
  H2       1.0000 0.87920  0.39630  0.05080  Biso   1.000  H
  H3       1.0000 0.07350  0.06400  0.88850  Biso   1.000  H
  H4       1.0000 0.92650  0.56400  0.11150  Biso   1.000  H
  N3       1.0000 0.20760  0.28480  0.22720  Biso   1.000  N
  N4       1.0000 0.79240  0.78480  0.77280  Biso   1.000  N
  H5       1.0000 0.17380  0.39700  0.21100  Biso   1.000  H
  H6       1.0000 0.82620  0.89700  0.78900  Biso   1.000  H
  H7       1.0000 0.16900  0.22690  0.26840  Biso   1.000  H
  H8       1.0000 0.83100  0.72690  0.73160  Biso   1.000  H
  N5       1.0000 0.23720  0.92120  0.17530  Biso   1.000  N
  N6       1.0000 0.76280  0.42120  0.82470  Biso   1.000  N
  N7       1.0000 0.10790  0.68010  0.18860  Biso   1.000  N
  N8       1.0000 0.89210  0.18010  0.81140  Biso   1.000  N
  N9       1.0000 0.17030  0.80110  0.18050  Biso   1.000  N
  N10      1.0000 0.82970  0.30110  0.81950  Biso   1.000  N
  N11      1.0000 0.97160  0.11350  0.08040  Biso   1.000  N
  N12      1.0000 0.02840  0.61350  0.91960  Biso   1.000  N
  N13      1.0000 0.90230  0.99530  0.04050  Biso   1.000  N
  N14      1.0000 0.09770  0.49530  0.95950  Biso   1.000  N
  N15      1.0000 0.82760  0.88110  0.00060  Biso   1.000  N
  N16      1.0000 0.17240  0.38110  0.99940  Biso   1.000  N
  C1       1.0000 0.26360  0.07350  0.70720  Biso   1.000  C
  C2       1.0000 0.73640  0.57350  0.29280  Biso   1.000  C
  H9       1.0000 0.33210  0.14360  0.74480  Biso   1.000  H
  H10      1.0000 0.66790  0.64360  0.25520  Biso   1.000  H
  C3       1.0000 0.22890  0.05370  0.59240  Biso   1.000  C
  C4       1.0000 0.77110  0.55370  0.40760  Biso   1.000  C
  H11      1.0000 0.27440  0.10820  0.55300  Biso   1.000  H
  H12      1.0000 0.72560  0.60820  0.44700  Biso   1.000  H
  C5       1.0000 0.12650  0.95270  0.53760  Biso   1.000  C
  C6       1.0000 0.87350  0.45270  0.46240  Biso   1.000  C
  C7       1.0000 0.05810  0.86780  0.59390  Biso   1.000  C
  C8       1.0000 0.94190  0.36780  0.40610  Biso   1.000  C
  H13      1.0000 0.98870  0.80010  0.55570  Biso   1.000  H
  H14      1.0000 0.01130  0.30010  0.44430  Biso   1.000  H
  C9       1.0000 0.09580  0.88630  0.70900  Biso   1.000  C
  C10      1.0000 0.90420  0.38630  0.29100  Biso   1.000  C
  H15      1.0000 0.05180  0.82770  0.74850  Biso   1.000  H
  H16      1.0000 0.94820  0.32770  0.25150  Biso   1.000  H
  C11      1.0000 0.19740  0.99010  0.76680  Biso   1.000  C
  C12      1.0000 0.80260  0.49010  0.23320  Biso   1.000  C
  C13      1.0000 0.24060  0.01240  0.89280  Biso   1.000  C
  C14      1.0000 0.75940  0.51240  0.10720  Biso   1.000  C
  H17      1.0000 0.28220  0.13130  0.91040  Biso   1.000  H
  H18      1.0000 0.71780  0.63130  0.08960  Biso   1.000  H
  C15      1.0000 0.33410  0.86370  0.95150  Biso   1.000  C
  C16      1.0000 0.66590  0.36370  0.04850  Biso   1.000  C
  H19      1.0000 0.35960  0.88170  0.03090  Biso   1.000  H
  H20      1.0000 0.64040  0.38170  0.96910  Biso   1.000  H
  H21      1.0000 0.40390  0.87180  0.92720  Biso   1.000  H
  H22      1.0000 0.59610  0.37180  0.07280  Biso   1.000  H
  H23      1.0000 0.29710  0.74480  0.93320  Biso   1.000  H
  H24      1.0000 0.70290  0.24480  0.06680  Biso   1.000  H
  C17      1.0000 0.26500  0.47370  0.44070  Biso   1.000  C
  C18      1.0000 0.73500  0.97370  0.55930  Biso   1.000  C
  H25      1.0000 0.19370  0.50720  0.38380  Biso   1.000  H
  H26      1.0000 0.80630  0.00720  0.61620  Biso   1.000  H
  C19      1.0000 0.28120  0.52570  0.54960  Biso   1.000  C
  C20      1.0000 0.71880  0.02570  0.45040  Biso   1.000  C
  H27      1.0000 0.22100  0.59190  0.56630  Biso   1.000  H
  H28      1.0000 0.77900  0.09190  0.43370  Biso   1.000  H
  C21      1.0000 0.38920  0.47710  0.63380  Biso   1.000  C
  C22      1.0000 0.61080  0.97710  0.36620  Biso   1.000  C
  C23      1.0000 0.47900  0.38080  0.61010  Biso   1.000  C
  C24      1.0000 0.52100  0.88080  0.38990  Biso   1.000  C
  H29      1.0000 0.55160  0.35220  0.66690  Biso   1.000  H
  H30      1.0000 0.44840  0.85220  0.33310  Biso   1.000  H
  C25      1.0000 0.46150  0.32610  0.50150  Biso   1.000  C
  C26      1.0000 0.53850  0.82610  0.49850  Biso   1.000  C
  H31      1.0000 0.52170  0.25830  0.48580  Biso   1.000  H
  H32      1.0000 0.47830  0.75830  0.51420  Biso   1.000  H
  C27      1.0000 0.35420  0.37190  0.41550  Biso   1.000  C
  C28      1.0000 0.64580  0.87190  0.58450  Biso   1.000  C
  C29      1.0000 0.33820  0.30880  0.29770  Biso   1.000  C
  C30      1.0000 0.66180  0.80880  0.70230  Biso   1.000  C
  H33      1.0000 0.37750  0.18840  0.30370  Biso   1.000  H
  H34      1.0000 0.62250  0.68840  0.69630  Biso   1.000  H
  C31      1.0000 0.40220  0.43620  0.24030  Biso   1.000  C
  C32      1.0000 0.59780  0.93620  0.75970  Biso   1.000  C
  H35      1.0000 0.39390  0.38860  0.16770  Biso   1.000  H
  H36      1.0000 0.60610  0.88860  0.83230  Biso   1.000  H
  H37      1.0000 0.48740  0.44460  0.28410  Biso   1.000  H
  H38      1.0000 0.51260  0.94460  0.71590  Biso   1.000  H
  H39      1.0000 0.36570  0.55590  0.23270  Biso   1.000  H
  H40      1.0000 0.63430  0.05590  0.76730  Biso   1.000  H
