data_image0
_cell_length_a       11.5685
_cell_length_b       7.3355
_cell_length_c       12.9121
_cell_angle_alpha    90
_cell_angle_beta     110.08
_cell_angle_gamma    90

_symmetry_space_group_name_H-M    "P 1"
_symmetry_int_tables_number       1

loop_
  _symmetry_equiv_pos_as_xyz
  'x, y, z'

loop_
  _atom_site_label
  _atom_site_occupancy
  _atom_site_fract_x
  _atom_site_fract_y
  _atom_site_fract_z
  _atom_site_thermal_displace_type
  _atom_site_B_iso_or_equiv
  _atom_site_type_symbol
  Cu1      1.0000 0.67420  0.44498  0.58220  Biso   1.000  Cu
  Cu2      1.0000 0.32580  0.94498  0.41780  Biso   1.000  Cu
  N1       1.0000 0.64000  0.57630  0.43904  Biso   1.000  N
  N2       1.0000 0.36000  0.07630  0.56096  Biso   1.000  N
  H1       1.0000 0.61600  0.67600  0.44100  Biso   1.000  H
  H2       1.0000 0.38400  0.17600  0.55900  Biso   1.000  H
  H3       1.0000 0.57200  0.52700  0.39200  Biso   1.000  H
  H4       1.0000 0.42800  0.02700  0.60800  Biso   1.000  H
  N3       1.0000 0.70900  0.30820  0.72478  Biso   1.000  N
  N4       1.0000 0.29100  0.80820  0.27522  Biso   1.000  N
  H5       1.0000 0.67600  0.20500  0.70900  Biso   1.000  H
  H6       1.0000 0.32400  0.70500  0.29100  Biso   1.000  H
  H7       1.0000 0.67100  0.36200  0.76400  Biso   1.000  H
  H8       1.0000 0.32900  0.86200  0.23600  Biso   1.000  H
  N5       1.0000 0.67300  0.21100  0.49988  Biso   1.000  N
  N6       1.0000 0.32700  0.71100  0.50012  Biso   1.000  N
  N7       1.0000 0.73930  0.66970  0.67173  Biso   1.000  N
  N8       1.0000 0.26070  0.16970  0.32827  Biso   1.000  N
  N9       1.0000 0.59795  0.09740  0.46054  Biso   1.000  N
  N10      1.0000 0.40205  0.59740  0.53946  Biso   1.000  N
  N11      1.0000 0.52870  0.98000  0.42011  Biso   1.000  N
  N12      1.0000 0.47130  0.48000  0.57989  Biso   1.000  N
  N13      1.0000 0.67264  0.79120  0.67630  Biso   1.000  N
  N14      1.0000 0.32736  0.29120  0.32370  Biso   1.000  N
  N15      1.0000 0.61080  0.91130  0.68417  Biso   1.000  N
  N16      1.0000 0.38920  0.41130  0.31583  Biso   1.000  N
  C1       1.0000 0.83520  0.72100  0.45230  Biso   1.000  C
  C2       1.0000 0.16480  0.22100  0.54770  Biso   1.000  C
  H9       1.0000 0.86200  0.69300  0.52900  Biso   1.000  H
  H10      1.0000 0.13800  0.19300  0.47100  Biso   1.000  H
  H11      1.0000 0.80600  0.84000  0.43100  Biso   1.000  H
  H12      1.0000 0.19400  0.34000  0.56900  Biso   1.000  H
  H13      1.0000 0.90900  0.73200  0.43100  Biso   1.000  H
  H14      1.0000 0.09100  0.23200  0.56900  Biso   1.000  H
  C3       1.0000 0.74030  0.57490  0.39220  Biso   1.000  C
  C4       1.0000 0.25970  0.07490  0.60780  Biso   1.000  C
  H15      1.0000 0.77300  0.45000  0.40600  Biso   1.000  H
  H16      1.0000 0.22700  0.95000  0.59400  Biso   1.000  H
  C5       1.0000 0.69610  0.60120  0.26840  Biso   1.000  C
  C6       1.0000 0.30390  0.10120  0.73160  Biso   1.000  C
  C7       1.0000 0.59380  0.70750  0.21250  Biso   1.000  C
  C8       1.0000 0.40620  0.20750  0.78750  Biso   1.000  C
  H17      1.0000 0.54600  0.75200  0.25500  Biso   1.000  H
  H18      1.0000 0.45400  0.25200  0.74500  Biso   1.000  H
  C9       1.0000 0.55670  0.72890  0.09900  Biso   1.000  C
  C10      1.0000 0.44330  0.22890  0.90100  Biso   1.000  C
  H19      1.0000 0.49100  0.78800  0.07000  Biso   1.000  H
  H20      1.0000 0.50900  0.28800  0.93000  Biso   1.000  H
  C11      1.0000 0.62340  0.64620  0.04210  Biso   1.000  C
  C12      1.0000 0.37660  0.14620  0.95790  Biso   1.000  C
  Br1      1.0000 0.57545  0.68492  0.88722  Biso   1.000  Br
  Br2      1.0000 0.42455  0.18492  0.11278  Biso   1.000  Br
  C13      1.0000 0.72630  0.54430  0.09510  Biso   1.000  C
  C14      1.0000 0.27370  0.04430  0.90490  Biso   1.000  C
  H21      1.0000 0.76600  0.48900  0.05400  Biso   1.000  H
  H22      1.0000 0.23400  0.98900  0.94600  Biso   1.000  H
  C15      1.0000 0.76080  0.52010  0.20870  Biso   1.000  C
  C16      1.0000 0.23920  0.02010  0.79130  Biso   1.000  C
  H23      1.0000 0.84000  0.46100  0.25200  Biso   1.000  H
  H24      1.0000 0.16000  0.96100  0.74800  Biso   1.000  H
  C17      1.0000 0.90370  0.15520  0.74260  Biso   1.000  C
  C18      1.0000 0.09630  0.65520  0.25740  Biso   1.000  C
  H25      1.0000 0.89900  0.18900  0.67100  Biso   1.000  H
  H26      1.0000 0.10100  0.68900  0.32900  Biso   1.000  H
  H27      1.0000 0.99000  0.15900  0.78800  Biso   1.000  H
  H28      1.0000 0.01000  0.65900  0.21200  Biso   1.000  H
  H29      1.0000 0.86600  0.04200  0.73200  Biso   1.000  H
  H30      1.0000 0.13400  0.54200  0.26800  Biso   1.000  H
  C19      1.0000 0.83900  0.28690  0.79668  Biso   1.000  C
  C20      1.0000 0.16100  0.78690  0.20332  Biso   1.000  C
  H31      1.0000 0.87800  0.41300  0.80200  Biso   1.000  H
  H32      1.0000 0.12200  0.91300  0.19800  Biso   1.000  H
  C21      1.0000 0.85290  0.22600  0.91259  Biso   1.000  C
  C22      1.0000 0.14710  0.72600  0.08741  Biso   1.000  C
  C23      1.0000 0.76200  0.12520  0.93600  Biso   1.000  C
  C24      1.0000 0.23800  0.62520  0.06400  Biso   1.000  C
  H33      1.0000 0.68700  0.08900  0.87700  Biso   1.000  H
  H34      1.0000 0.31300  0.58900  0.12300  Biso   1.000  H
  C25      1.0000 0.77630  0.07410  0.04300  Biso   1.000  C
  C26      1.0000 0.22370  0.57410  0.95700  Biso   1.000  C
  H35      1.0000 0.70900  0.01200  0.06300  Biso   1.000  H
  H36      1.0000 0.29100  0.51200  0.93700  Biso   1.000  H
  C27      1.0000 0.88360  0.12060  0.12710  Biso   1.000  C
  C28      1.0000 0.11640  0.62060  0.87290  Biso   1.000  C
  Br3      1.0000 0.90180  0.05139  0.27329  Biso   1.000  Br
  Br4      1.0000 0.09820  0.55139  0.72671  Biso   1.000  Br
  C29      1.0000 0.97660  0.21730  0.10680  Biso   1.000  C
  C30      1.0000 0.02340  0.71730  0.89320  Biso   1.000  C
  H37      1.0000 0.04500  0.24500  0.16400  Biso   1.000  H
  H38      1.0000 0.95500  0.74500  0.83600  Biso   1.000  H
  C31      1.0000 0.96000  0.27000  0.99980  Biso   1.000  C
  C32      1.0000 0.04000  0.77000  0.00020  Biso   1.000  C
  H39      1.0000 0.01900  0.34300  0.98200  Biso   1.000  H
  H40      1.0000 0.98100  0.84300  0.01800  Biso   1.000  H
