data_image0
_cell_length_a       11.7698
_cell_length_b       7.4184
_cell_length_c       12.7549
_cell_angle_alpha    90
_cell_angle_beta     110.052
_cell_angle_gamma    90

_symmetry_space_group_name_H-M    "P 1"
_symmetry_int_tables_number       1

loop_
  _symmetry_equiv_pos_as_xyz
  'x, y, z'

loop_
  _atom_site_label
  _atom_site_occupancy
  _atom_site_fract_x
  _atom_site_fract_y
  _atom_site_fract_z
  _atom_site_thermal_displace_type
  _atom_site_B_iso_or_equiv
  _atom_site_type_symbol
  Cu1      1.0000 0.17174  0.25314  0.57905  Biso   1.000  Cu
  Cu2      1.0000 0.82826  0.75314  0.42095  Biso   1.000  Cu
  N1       1.0000 0.20973  0.11550  0.72253  Biso   1.000  N
  N2       1.0000 0.79027  0.61550  0.27747  Biso   1.000  N
  H1       1.0000 0.16910  0.16300  0.75150  Biso   1.000  H
  H2       1.0000 0.83090  0.66300  0.24850  Biso   1.000  H
  H3       1.0000 0.11700  0.49200  0.44510  Biso   1.000  H
  H4       1.0000 0.88300  0.99200  0.55490  Biso   1.000  H
  N3       1.0000 0.13560  0.38650  0.43430  Biso   1.000  N
  N4       1.0000 0.86440  0.88650  0.56570  Biso   1.000  N
  H5       1.0000 0.07200  0.33700  0.39200  Biso   1.000  H
  H6       1.0000 0.92800  0.83700  0.60800  Biso   1.000  H
  H7       1.0000 0.18300  0.01200  0.70230  Biso   1.000  H
  H8       1.0000 0.81700  0.51200  0.29770  Biso   1.000  H
  N5       1.0000 0.16751  0.02310  0.49318  Biso   1.000  N
  N6       1.0000 0.83249  0.52310  0.50682  Biso   1.000  N
  N7       1.0000 0.23706  0.47320  0.67151  Biso   1.000  N
  N8       1.0000 0.76294  0.97320  0.32849  Biso   1.000  N
  N9       1.0000 0.09499  0.90960  0.45680  Biso   1.000  N
  N10      1.0000 0.90501  0.40960  0.54320  Biso   1.000  N
  N11      1.0000 0.02804  0.79160  0.41901  Biso   1.000  N
  N12      1.0000 0.97196  0.29160  0.58099  Biso   1.000  N
  N13      1.0000 0.17385  0.59600  0.67627  Biso   1.000  N
  N14      1.0000 0.82615  0.09600  0.32373  Biso   1.000  N
  N15      1.0000 0.11689  0.71830  0.68521  Biso   1.000  N
  N16      1.0000 0.88311  0.21830  0.31479  Biso   1.000  N
  C1       1.0000 0.40400  0.97580  0.74200  Biso   1.000  C
  C2       1.0000 0.59600  0.47580  0.25800  Biso   1.000  C
  H9       1.0000 0.39370  0.01910  0.66840  Biso   1.000  H
  H10      1.0000 0.60630  0.51910  0.33160  Biso   1.000  H
  H11      1.0000 0.37100  0.85650  0.73710  Biso   1.000  H
  H12      1.0000 0.62900  0.35650  0.26290  Biso   1.000  H
  H13      1.0000 0.48850  0.97300  0.78570  Biso   1.000  H
  H14      1.0000 0.51150  0.47300  0.21430  Biso   1.000  H
  C3       1.0000 0.33811  0.10130  0.79728  Biso   1.000  C
  C4       1.0000 0.66189  0.60130  0.20272  Biso   1.000  C
  H15      1.0000 0.37470  0.22120  0.80290  Biso   1.000  H
  H16      1.0000 0.62530  0.72120  0.19710  Biso   1.000  H
  C5       1.0000 0.35156  0.03980  0.91413  Biso   1.000  C
  C6       1.0000 0.64844  0.53980  0.08587  Biso   1.000  C
  C7       1.0000 0.26684  0.93630  0.93827  Biso   1.000  C
  C8       1.0000 0.73316  0.43630  0.06173  Biso   1.000  C
  H17      1.0000 0.19770  0.90010  0.88060  Biso   1.000  H
  H18      1.0000 0.80230  0.40010  0.11940  Biso   1.000  H
  C9       1.0000 0.28220  0.88480  0.04671  Biso   1.000  C
  C10      1.0000 0.71780  0.38480  0.95329  Biso   1.000  C
  H19      1.0000 0.22280  0.81600  0.06060  Biso   1.000  H
  H20      1.0000 0.77720  0.31600  0.93940  Biso   1.000  H
  C11      1.0000 0.38410  0.93390  0.13434  Biso   1.000  C
  C12      1.0000 0.61590  0.43390  0.86566  Biso   1.000  C
  C13      1.0000 0.39820  0.87710  0.25291  Biso   1.000  C
  C14      1.0000 0.60180  0.37710  0.74709  Biso   1.000  C
  H21      1.0000 0.32880  0.80850  0.25210  Biso   1.000  H
  H22      1.0000 0.67120  0.30850  0.74790  Biso   1.000  H
  H23      1.0000 0.40510  0.98240  0.29840  Biso   1.000  H
  H24      1.0000 0.59490  0.48240  0.70160  Biso   1.000  H
  H25      1.0000 0.46970  0.80470  0.28290  Biso   1.000  H
  H26      1.0000 0.53030  0.30470  0.71710  Biso   1.000  H
  C15      1.0000 0.46980  0.03400  0.11086  Biso   1.000  C
  C16      1.0000 0.53020  0.53400  0.88914  Biso   1.000  C
  H27      1.0000 0.53960  0.06740  0.16870  Biso   1.000  H
  H28      1.0000 0.46040  0.56740  0.83130  Biso   1.000  H
  C17      1.0000 0.45517  0.08700  0.00244  Biso   1.000  C
  C18      1.0000 0.54483  0.58700  0.99756  Biso   1.000  C
  H29      1.0000 0.51520  0.15470  0.98880  Biso   1.000  H
  H30      1.0000 0.48480  0.65470  0.01120  Biso   1.000  H
  C19      1.0000 0.32650  0.53260  0.44710  Biso   1.000  C
  C20      1.0000 0.67350  0.03260  0.55290  Biso   1.000  C
  H31      1.0000 0.35430  0.50930  0.52590  Biso   1.000  H
  H32      1.0000 0.64570  0.00930  0.47410  Biso   1.000  H
  H33      1.0000 0.28940  0.64950  0.43260  Biso   1.000  H
  H34      1.0000 0.71060  0.14950  0.56740  Biso   1.000  H
  H35      1.0000 0.39380  0.52900  0.42100  Biso   1.000  H
  H36      1.0000 0.60620  0.02900  0.57900  Biso   1.000  H
  C21      1.0000 0.23345  0.38830  0.38601  Biso   1.000  C
  C22      1.0000 0.76655  0.88830  0.61399  Biso   1.000  C
  H37      1.0000 0.27400  0.27090  0.40120  Biso   1.000  H
  H38      1.0000 0.72600  0.77090  0.59880  Biso   1.000  H
  C23      1.0000 0.18823  0.41700  0.26073  Biso   1.000  C
  C24      1.0000 0.81177  0.91700  0.73927  Biso   1.000  C
  C25      1.0000 0.08720  0.51450  0.20517  Biso   1.000  C
  C26      1.0000 0.91280  0.01450  0.79483  Biso   1.000  C
  H39      1.0000 0.04230  0.56530  0.24510  Biso   1.000  H
  H40      1.0000 0.95770  0.06530  0.75490  Biso   1.000  H
  C27      1.0000 0.04970  0.53960  0.09026  Biso   1.000  C
  C28      1.0000 0.95030  0.03960  0.90974  Biso   1.000  C
  H41      1.0000 0.98010  0.60600  0.05470  Biso   1.000  H
  H42      1.0000 0.01990  0.10600  0.94530  Biso   1.000  H
  C29      1.0000 0.11410  0.46750  0.02857  Biso   1.000  C
  C30      1.0000 0.88590  0.96750  0.97143  Biso   1.000  C
  C31      1.0000 0.07170  0.49870  0.90310  Biso   1.000  C
  C32      1.0000 0.92830  0.99870  0.09690  Biso   1.000  C
  H43      1.0000 0.12610  0.44000  0.87260  Biso   1.000  H
  H44      1.0000 0.87390  0.94000  0.12740  Biso   1.000  H
  H45      1.0000 0.07040  0.62570  0.88830  Biso   1.000  H
  H46      1.0000 0.92960  0.12570  0.11170  Biso   1.000  H
  H47      1.0000 0.99180  0.45010  0.86930  Biso   1.000  H
  H48      1.0000 0.00820  0.95010  0.13070  Biso   1.000  H
  C33      1.0000 0.21680  0.37230  0.08400  Biso   1.000  C
  C34      1.0000 0.78320  0.87230  0.91600  Biso   1.000  C
  H49      1.0000 0.26290  0.32480  0.04420  Biso   1.000  H
  H50      1.0000 0.73710  0.82480  0.95580  Biso   1.000  H
  C35      1.0000 0.25340  0.34530  0.19810  Biso   1.000  C
  C36      1.0000 0.74660  0.84530  0.80190  Biso   1.000  C
  H51      1.0000 0.32260  0.27800  0.23350  Biso   1.000  H
  H52      1.0000 0.67740  0.77800  0.76650  Biso   1.000  H
