data_image0
_cell_length_a       16.4961
_cell_length_b       5.99686
_cell_length_c       26.1214
_cell_angle_alpha    90
_cell_angle_beta     90
_cell_angle_gamma    90

_symmetry_space_group_name_H-M    "P 1"
_symmetry_int_tables_number       1

loop_
  _symmetry_equiv_pos_as_xyz
  'x, y, z'

loop_
  _atom_site_label
  _atom_site_occupancy
  _atom_site_fract_x
  _atom_site_fract_y
  _atom_site_fract_z
  _atom_site_thermal_displace_type
  _atom_site_B_iso_or_equiv
  _atom_site_type_symbol
  Cu1      1.0000 0.25879  0.85060  0.48449  Biso   1.000  Cu
  Cu2      1.0000 0.24121  0.14940  0.98449  Biso   1.000  Cu
  Cu3      1.0000 0.75879  0.64940  0.51551  Biso   1.000  Cu
  Cu4      1.0000 0.74121  0.35060  0.01551  Biso   1.000  Cu
  Cu5      1.0000 0.74121  0.14940  0.51551  Biso   1.000  Cu
  Cu6      1.0000 0.75879  0.85060  0.01551  Biso   1.000  Cu
  Cu7      1.0000 0.24121  0.35060  0.48449  Biso   1.000  Cu
  Cu8      1.0000 0.25879  0.64940  0.98449  Biso   1.000  Cu
  Cu9      1.0000 0.50000  0.00000  0.50000  Biso   1.000  Cu
  Cu10     1.0000 0.00000  0.00000  0.00000  Biso   1.000  Cu
  Cu11     1.0000 0.00000  0.50000  0.50000  Biso   1.000  Cu
  Cu12     1.0000 0.50000  0.50000  0.00000  Biso   1.000  Cu
  N1       1.0000 0.45250  0.07600  0.56856  Biso   1.000  N
  N2       1.0000 0.04750  0.92400  0.06856  Biso   1.000  N
  N3       1.0000 0.95250  0.42400  0.43144  Biso   1.000  N
  N4       1.0000 0.54750  0.57600  0.93144  Biso   1.000  N
  N5       1.0000 0.54750  0.92400  0.43144  Biso   1.000  N
  N6       1.0000 0.95250  0.07600  0.93144  Biso   1.000  N
  N7       1.0000 0.04750  0.57600  0.56856  Biso   1.000  N
  N8       1.0000 0.45250  0.42400  0.06856  Biso   1.000  N
  H1       1.0000 0.43000  0.21180  0.56480  Biso   1.000  H
  H2       1.0000 0.07000  0.78820  0.06480  Biso   1.000  H
  H3       1.0000 0.93000  0.28820  0.43520  Biso   1.000  H
  H4       1.0000 0.57000  0.71180  0.93520  Biso   1.000  H
  H5       1.0000 0.57000  0.78820  0.43520  Biso   1.000  H
  H6       1.0000 0.93000  0.21180  0.93520  Biso   1.000  H
  H7       1.0000 0.07000  0.71180  0.56480  Biso   1.000  H
  H8       1.0000 0.43000  0.28820  0.06480  Biso   1.000  H
  H9       1.0000 0.41110  0.98040  0.57310  Biso   1.000  H
  H10      1.0000 0.08890  0.01960  0.07310  Biso   1.000  H
  H11      1.0000 0.91110  0.51960  0.42690  Biso   1.000  H
  H12      1.0000 0.58890  0.48040  0.92690  Biso   1.000  H
  H13      1.0000 0.58890  0.01960  0.42690  Biso   1.000  H
  H14      1.0000 0.91110  0.98040  0.92690  Biso   1.000  H
  H15      1.0000 0.08890  0.48040  0.57310  Biso   1.000  H
  H16      1.0000 0.41110  0.51960  0.07310  Biso   1.000  H
  N9       1.0000 0.23939  0.60220  0.53509  Biso   1.000  N
  N10      1.0000 0.26061  0.39780  0.03509  Biso   1.000  N
  N11      1.0000 0.73939  0.89780  0.46491  Biso   1.000  N
  N12      1.0000 0.76061  0.10220  0.96491  Biso   1.000  N
  N13      1.0000 0.76061  0.39780  0.46491  Biso   1.000  N
  N14      1.0000 0.73939  0.60220  0.96491  Biso   1.000  N
  N15      1.0000 0.26061  0.10220  0.53509  Biso   1.000  N
  N16      1.0000 0.23939  0.89780  0.03509  Biso   1.000  N
  N17      1.0000 0.24430  0.60160  0.43550  Biso   1.000  N
  N18      1.0000 0.25570  0.39840  0.93550  Biso   1.000  N
  N19      1.0000 0.74430  0.89840  0.56450  Biso   1.000  N
  N20      1.0000 0.75570  0.10160  0.06450  Biso   1.000  N
  N21      1.0000 0.75570  0.39840  0.56450  Biso   1.000  N
  N22      1.0000 0.74430  0.60160  0.06450  Biso   1.000  N
  N23      1.0000 0.25570  0.10160  0.43550  Biso   1.000  N
  N24      1.0000 0.24430  0.89840  0.93550  Biso   1.000  N
  N25      1.0000 0.27550  0.59080  0.39291  Biso   1.000  N
  N26      1.0000 0.22450  0.40920  0.89291  Biso   1.000  N
  N27      1.0000 0.77550  0.90920  0.60709  Biso   1.000  N
  N28      1.0000 0.72450  0.09080  0.10709  Biso   1.000  N
  N29      1.0000 0.72450  0.40920  0.60709  Biso   1.000  N
  N30      1.0000 0.77550  0.59080  0.10709  Biso   1.000  N
  N31      1.0000 0.22450  0.09080  0.39291  Biso   1.000  N
  N32      1.0000 0.27550  0.90920  0.89291  Biso   1.000  N
  N33      1.0000 0.30210  0.58040  0.35327  Biso   1.000  N
  N34      1.0000 0.19790  0.41960  0.85327  Biso   1.000  N
  N35      1.0000 0.80210  0.91960  0.64673  Biso   1.000  N
  N36      1.0000 0.69790  0.08040  0.14673  Biso   1.000  N
  N37      1.0000 0.69790  0.41960  0.64673  Biso   1.000  N
  N38      1.0000 0.80210  0.58040  0.14673  Biso   1.000  N
  N39      1.0000 0.19790  0.08040  0.35327  Biso   1.000  N
  N40      1.0000 0.30210  0.91960  0.85327  Biso   1.000  N
  N41      1.0000 0.40458  0.79590  0.48975  Biso   1.000  N
  N42      1.0000 0.09542  0.20410  0.98975  Biso   1.000  N
  N43      1.0000 0.90458  0.70410  0.51025  Biso   1.000  N
  N44      1.0000 0.59542  0.29590  0.01025  Biso   1.000  N
  N45      1.0000 0.59542  0.20410  0.51025  Biso   1.000  N
  N46      1.0000 0.90458  0.79590  0.01025  Biso   1.000  N
  N47      1.0000 0.09542  0.29590  0.48975  Biso   1.000  N
  N48      1.0000 0.40458  0.70410  0.98975  Biso   1.000  N
  N49      1.0000 0.41316  0.59800  0.48626  Biso   1.000  N
  N50      1.0000 0.08684  0.40200  0.98626  Biso   1.000  N
  N51      1.0000 0.91316  0.90200  0.51374  Biso   1.000  N
  N52      1.0000 0.58684  0.09800  0.01374  Biso   1.000  N
  N53      1.0000 0.58684  0.40200  0.51374  Biso   1.000  N
  N54      1.0000 0.91316  0.59800  0.01374  Biso   1.000  N
  N55      1.0000 0.08684  0.09800  0.48626  Biso   1.000  N
  N56      1.0000 0.41316  0.90200  0.98626  Biso   1.000  N
  N57      1.0000 0.28370  0.59010  0.57312  Biso   1.000  N
  N58      1.0000 0.21630  0.40990  0.07312  Biso   1.000  N
  N59      1.0000 0.78370  0.90990  0.42688  Biso   1.000  N
  N60      1.0000 0.71630  0.09010  0.92688  Biso   1.000  N
  N61      1.0000 0.71630  0.40990  0.42688  Biso   1.000  N
  N62      1.0000 0.78370  0.59010  0.92688  Biso   1.000  N
  N63      1.0000 0.21630  0.09010  0.57312  Biso   1.000  N
  N64      1.0000 0.28370  0.90990  0.07312  Biso   1.000  N
  N65      1.0000 0.41520  0.40640  0.48219  Biso   1.000  N
  N66      1.0000 0.08480  0.59360  0.98219  Biso   1.000  N
  N67      1.0000 0.91520  0.09360  0.51781  Biso   1.000  N
  N68      1.0000 0.58480  0.90640  0.01781  Biso   1.000  N
  N69      1.0000 0.58480  0.59360  0.51781  Biso   1.000  N
  N70      1.0000 0.91520  0.40640  0.01781  Biso   1.000  N
  N71      1.0000 0.08480  0.90640  0.48219  Biso   1.000  N
  N72      1.0000 0.41520  0.09360  0.98219  Biso   1.000  N
  C1       1.0000 0.36490  0.35470  0.74150  Biso   1.000  C
  C2       1.0000 0.13510  0.64530  0.24150  Biso   1.000  C
  C3       1.0000 0.86490  0.14530  0.25850  Biso   1.000  C
  C4       1.0000 0.63510  0.85470  0.75850  Biso   1.000  C
  C5       1.0000 0.63510  0.64530  0.25850  Biso   1.000  C
  C6       1.0000 0.86490  0.35470  0.75850  Biso   1.000  C
  C7       1.0000 0.13510  0.85470  0.74150  Biso   1.000  C
  C8       1.0000 0.36490  0.14530  0.24150  Biso   1.000  C
  H17      1.0000 0.33660  0.41870  0.76860  Biso   1.000  H
  H18      1.0000 0.16340  0.58130  0.26860  Biso   1.000  H
  H19      1.0000 0.83660  0.08130  0.23140  Biso   1.000  H
  H20      1.0000 0.66340  0.91870  0.73140  Biso   1.000  H
  H21      1.0000 0.66340  0.58130  0.23140  Biso   1.000  H
  H22      1.0000 0.83660  0.41870  0.73140  Biso   1.000  H
  H23      1.0000 0.16340  0.91870  0.76860  Biso   1.000  H
  H24      1.0000 0.33660  0.08130  0.26860  Biso   1.000  H
  C9       1.0000 0.44680  0.17430  0.65967  Biso   1.000  C
  C10      1.0000 0.05320  0.82570  0.15967  Biso   1.000  C
  C11      1.0000 0.94680  0.32570  0.34033  Biso   1.000  C
  C12      1.0000 0.55320  0.67430  0.84033  Biso   1.000  C
  C13      1.0000 0.55320  0.82570  0.34033  Biso   1.000  C
  C14      1.0000 0.94680  0.17430  0.84033  Biso   1.000  C
  C15      1.0000 0.05320  0.67430  0.65967  Biso   1.000  C
  C16      1.0000 0.44680  0.32570  0.15967  Biso   1.000  C
  C17      1.0000 0.55680  0.93520  0.62500  Biso   1.000  C
  C18      1.0000 0.94320  0.06480  0.12500  Biso   1.000  C
  C19      1.0000 0.05680  0.56480  0.37500  Biso   1.000  C
  C20      1.0000 0.44320  0.43520  0.87500  Biso   1.000  C
  C21      1.0000 0.44320  0.06480  0.37500  Biso   1.000  C
  C22      1.0000 0.05680  0.93520  0.87500  Biso   1.000  C
  C23      1.0000 0.94320  0.43520  0.62500  Biso   1.000  C
  C24      1.0000 0.55680  0.56480  0.12500  Biso   1.000  C
  H25      1.0000 0.53530  0.79480  0.63630  Biso   1.000  H
  H26      1.0000 0.96470  0.20520  0.13630  Biso   1.000  H
  H27      1.0000 0.03530  0.70520  0.36370  Biso   1.000  H
  H28      1.0000 0.46470  0.29480  0.86370  Biso   1.000  H
  H29      1.0000 0.46470  0.20520  0.36370  Biso   1.000  H
  H30      1.0000 0.03530  0.79480  0.86370  Biso   1.000  H
  H31      1.0000 0.96470  0.29480  0.63630  Biso   1.000  H
  H32      1.0000 0.53530  0.70520  0.13630  Biso   1.000  H
  H33      1.0000 0.59060  0.99710  0.65130  Biso   1.000  H
  H34      1.0000 0.90940  0.00290  0.15130  Biso   1.000  H
  H35      1.0000 0.09060  0.50290  0.34870  Biso   1.000  H
  H36      1.0000 0.40940  0.49710  0.84870  Biso   1.000  H
  H37      1.0000 0.40940  0.00290  0.34870  Biso   1.000  H
  H38      1.0000 0.09060  0.99710  0.84870  Biso   1.000  H
  H39      1.0000 0.90940  0.49710  0.65130  Biso   1.000  H
  H40      1.0000 0.59060  0.50290  0.15130  Biso   1.000  H
  H41      1.0000 0.58830  0.91300  0.59450  Biso   1.000  H
  H42      1.0000 0.91170  0.08700  0.09450  Biso   1.000  H
  H43      1.0000 0.08830  0.58700  0.40550  Biso   1.000  H
  H44      1.0000 0.41170  0.41300  0.90550  Biso   1.000  H
  H45      1.0000 0.41170  0.08700  0.40550  Biso   1.000  H
  H46      1.0000 0.08830  0.91300  0.90550  Biso   1.000  H
  H47      1.0000 0.91170  0.41300  0.59450  Biso   1.000  H
  H48      1.0000 0.58830  0.58700  0.09450  Biso   1.000  H
  C25      1.0000 0.43250  0.45170  0.72360  Biso   1.000  C
  C26      1.0000 0.06750  0.54830  0.22360  Biso   1.000  C
  C27      1.0000 0.93250  0.04830  0.27640  Biso   1.000  C
  C28      1.0000 0.56750  0.95170  0.77640  Biso   1.000  C
  C29      1.0000 0.56750  0.54830  0.27640  Biso   1.000  C
  C30      1.0000 0.93250  0.45170  0.77640  Biso   1.000  C
  C31      1.0000 0.06750  0.95170  0.72360  Biso   1.000  C
  C32      1.0000 0.43250  0.04830  0.22360  Biso   1.000  C
  H49      1.0000 0.45240  0.57970  0.73930  Biso   1.000  H
  H50      1.0000 0.04760  0.42030  0.23930  Biso   1.000  H
  H51      1.0000 0.95240  0.92030  0.26070  Biso   1.000  H
  H52      1.0000 0.54760  0.07970  0.76070  Biso   1.000  H
  H53      1.0000 0.54760  0.42030  0.26070  Biso   1.000  H
  H54      1.0000 0.95240  0.57970  0.76070  Biso   1.000  H
  H55      1.0000 0.04760  0.07970  0.73930  Biso   1.000  H
  H56      1.0000 0.45240  0.92030  0.23930  Biso   1.000  H
  N73      1.0000 0.32420  0.58100  0.60730  Biso   1.000  N
  N74      1.0000 0.17580  0.41900  0.10730  Biso   1.000  N
  N75      1.0000 0.82420  0.91900  0.39270  Biso   1.000  N
  N76      1.0000 0.67580  0.08100  0.89270  Biso   1.000  N
  N77      1.0000 0.67580  0.41900  0.39270  Biso   1.000  N
  N78      1.0000 0.82420  0.58100  0.89270  Biso   1.000  N
  N79      1.0000 0.17580  0.08100  0.60730  Biso   1.000  N
  N80      1.0000 0.32420  0.91900  0.10730  Biso   1.000  N
  C33      1.0000 0.37990  0.06960  0.67880  Biso   1.000  C
  C34      1.0000 0.12010  0.93040  0.17880  Biso   1.000  C
  C35      1.0000 0.87990  0.43040  0.32120  Biso   1.000  C
  C36      1.0000 0.62010  0.56960  0.82120  Biso   1.000  C
  C37      1.0000 0.62010  0.93040  0.32120  Biso   1.000  C
  C38      1.0000 0.87990  0.06960  0.82120  Biso   1.000  C
  C39      1.0000 0.12010  0.56960  0.67880  Biso   1.000  C
  C40      1.0000 0.37990  0.43040  0.17880  Biso   1.000  C
  H57      1.0000 0.36190  0.93660  0.66440  Biso   1.000  H
  H58      1.0000 0.13810  0.06340  0.16440  Biso   1.000  H
  H59      1.0000 0.86190  0.56340  0.33560  Biso   1.000  H
  H60      1.0000 0.63810  0.43660  0.83560  Biso   1.000  H
  H61      1.0000 0.63810  0.06340  0.33560  Biso   1.000  H
  H62      1.0000 0.86190  0.93660  0.83560  Biso   1.000  H
  H63      1.0000 0.13810  0.43660  0.66440  Biso   1.000  H
  H64      1.0000 0.36190  0.56340  0.16440  Biso   1.000  H
  C41      1.0000 0.33850  0.16370  0.72000  Biso   1.000  C
  C42      1.0000 0.16150  0.83630  0.22000  Biso   1.000  C
  C43      1.0000 0.83850  0.33630  0.28000  Biso   1.000  C
  C44      1.0000 0.66150  0.66370  0.78000  Biso   1.000  C
  C45      1.0000 0.66150  0.83630  0.28000  Biso   1.000  C
  C46      1.0000 0.83850  0.16370  0.78000  Biso   1.000  C
  C47      1.0000 0.16150  0.66370  0.72000  Biso   1.000  C
  C48      1.0000 0.33850  0.33630  0.22000  Biso   1.000  C
  H65      1.0000 0.29240  0.09410  0.73280  Biso   1.000  H
  H66      1.0000 0.20760  0.90590  0.23280  Biso   1.000  H
  H67      1.0000 0.79240  0.40590  0.26720  Biso   1.000  H
  H68      1.0000 0.70760  0.59410  0.76720  Biso   1.000  H
  H69      1.0000 0.70760  0.90590  0.26720  Biso   1.000  H
  H70      1.0000 0.79240  0.09410  0.76720  Biso   1.000  H
  H71      1.0000 0.20760  0.59410  0.73280  Biso   1.000  H
  H72      1.0000 0.29240  0.40590  0.23280  Biso   1.000  H
  C49      1.0000 0.49270  0.08200  0.61450  Biso   1.000  C
  C50      1.0000 0.00730  0.91800  0.11450  Biso   1.000  C
  C51      1.0000 0.99270  0.41800  0.38550  Biso   1.000  C
  C52      1.0000 0.50730  0.58200  0.88550  Biso   1.000  C
  C53      1.0000 0.50730  0.91800  0.38550  Biso   1.000  C
  C54      1.0000 0.99270  0.08200  0.88550  Biso   1.000  C
  C55      1.0000 0.00730  0.58200  0.61450  Biso   1.000  C
  C56      1.0000 0.49270  0.41800  0.11450  Biso   1.000  C
  H73      1.0000 0.52570  0.21480  0.60750  Biso   1.000  H
  H74      1.0000 0.97430  0.78520  0.10750  Biso   1.000  H
  H75      1.0000 0.02570  0.28520  0.39250  Biso   1.000  H
  H76      1.0000 0.47430  0.71480  0.89250  Biso   1.000  H
  H77      1.0000 0.47430  0.78520  0.39250  Biso   1.000  H
  H78      1.0000 0.02570  0.21480  0.89250  Biso   1.000  H
  H79      1.0000 0.97430  0.71480  0.60750  Biso   1.000  H
  H80      1.0000 0.52570  0.28520  0.10750  Biso   1.000  H
  C57      1.0000 0.47240  0.36390  0.68250  Biso   1.000  C
  C58      1.0000 0.02760  0.63610  0.18250  Biso   1.000  C
  C59      1.0000 0.97240  0.13610  0.31750  Biso   1.000  C
  C60      1.0000 0.52760  0.86390  0.81750  Biso   1.000  C
  C61      1.0000 0.52760  0.63610  0.31750  Biso   1.000  C
  C62      1.0000 0.97240  0.36390  0.81750  Biso   1.000  C
  C63      1.0000 0.02760  0.86390  0.68250  Biso   1.000  C
  C64      1.0000 0.47240  0.13610  0.18250  Biso   1.000  C
  H81      1.0000 0.51810  0.43610  0.67000  Biso   1.000  H
  H82      1.0000 0.98190  0.56390  0.17000  Biso   1.000  H
  H83      1.0000 0.01810  0.06390  0.33000  Biso   1.000  H
  H84      1.0000 0.48190  0.93610  0.83000  Biso   1.000  H
  H85      1.0000 0.48190  0.56390  0.33000  Biso   1.000  H
  H86      1.0000 0.01810  0.43610  0.83000  Biso   1.000  H
  H87      1.0000 0.98190  0.93610  0.67000  Biso   1.000  H
  H88      1.0000 0.51810  0.06390  0.17000  Biso   1.000  H
