data_image0
_cell_length_a       13.7575
_cell_length_b       15.2378
_cell_length_c       15.4772
_cell_angle_alpha    90
_cell_angle_beta     107.356
_cell_angle_gamma    90

_symmetry_space_group_name_H-M    "P 1"
_symmetry_int_tables_number       1

loop_
  _symmetry_equiv_pos_as_xyz
  'x, y, z'

loop_
  _atom_site_label
  _atom_site_occupancy
  _atom_site_fract_x
  _atom_site_fract_y
  _atom_site_fract_z
  _atom_site_thermal_displace_type
  _atom_site_B_iso_or_equiv
  _atom_site_type_symbol
  Cu1      1.0000 0.58891  0.31940  0.19430  Biso   1.000  Cu
  Cu2      1.0000 0.91109  0.81940  0.30570  Biso   1.000  Cu
  Cu3      1.0000 0.41109  0.68060  0.80570  Biso   1.000  Cu
  Cu4      1.0000 0.08891  0.18060  0.69430  Biso   1.000  Cu
  O1       1.0000 0.50320  0.40610  0.11060  Biso   1.000  O
  O2       1.0000 0.99680  0.90610  0.38940  Biso   1.000  O
  O3       1.0000 0.49680  0.59390  0.88940  Biso   1.000  O
  O4       1.0000 0.00320  0.09390  0.61060  Biso   1.000  O
  O5       1.0000 0.83670  0.33010  0.64920  Biso   1.000  O
  O6       1.0000 0.66330  0.83010  0.85080  Biso   1.000  O
  O7       1.0000 0.16330  0.66990  0.35080  Biso   1.000  O
  O8       1.0000 0.33670  0.16990  0.14920  Biso   1.000  O
  O9       1.0000 0.57450  0.42840  0.29211  Biso   1.000  O
  O10      1.0000 0.92550  0.92840  0.20789  Biso   1.000  O
  O11      1.0000 0.42550  0.57160  0.70789  Biso   1.000  O
  O12      1.0000 0.07450  0.07160  0.79211  Biso   1.000  O
  N1       1.0000 0.90870  0.37110  0.51520  Biso   1.000  N
  N2       1.0000 0.59130  0.87110  0.98480  Biso   1.000  N
  N3       1.0000 0.09130  0.62890  0.48480  Biso   1.000  N
  N4       1.0000 0.40870  0.12890  0.01520  Biso   1.000  N
  H1       1.0000 0.85130  0.38450  0.52310  Biso   1.000  H
  H2       1.0000 0.64870  0.88450  0.97690  Biso   1.000  H
  H3       1.0000 0.14870  0.61550  0.47690  Biso   1.000  H
  H4       1.0000 0.35130  0.11550  0.02310  Biso   1.000  H
  O13      1.0000 0.04620  0.28080  0.57370  Biso   1.000  O
  O14      1.0000 0.45380  0.78080  0.92630  Biso   1.000  O
  O15      1.0000 0.95380  0.71920  0.42630  Biso   1.000  O
  O16      1.0000 0.54620  0.21920  0.07370  Biso   1.000  O
  O17      1.0000 0.41990  0.53370  0.09880  Biso   1.000  O
  O18      1.0000 0.08010  0.03370  0.40120  Biso   1.000  O
  O19      1.0000 0.58010  0.46630  0.90120  Biso   1.000  O
  O20      1.0000 0.91990  0.96630  0.59880  Biso   1.000  O
  O21      1.0000 0.96690  0.24030  0.71190  Biso   1.000  O
  O22      1.0000 0.53310  0.74030  0.78810  Biso   1.000  O
  O23      1.0000 0.03310  0.75970  0.28810  Biso   1.000  O
  O24      1.0000 0.46690  0.25970  0.21190  Biso   1.000  O
  N5       1.0000 0.69010  0.24650  0.28690  Biso   1.000  N
  N6       1.0000 0.80990  0.74650  0.21310  Biso   1.000  N
  N7       1.0000 0.30990  0.75350  0.71310  Biso   1.000  N
  N8       1.0000 0.19010  0.25350  0.78690  Biso   1.000  N
  N9       1.0000 0.71560  0.34920  0.16150  Biso   1.000  N
  N10      1.0000 0.78440  0.84920  0.33850  Biso   1.000  N
  N11      1.0000 0.28440  0.65080  0.83850  Biso   1.000  N
  N12      1.0000 0.21560  0.15080  0.66150  Biso   1.000  N
  N13      1.0000 0.49590  0.56180  0.27880  Biso   1.000  N
  N14      1.0000 0.00410  0.06180  0.22120  Biso   1.000  N
  N15      1.0000 0.50410  0.43820  0.72120  Biso   1.000  N
  N16      1.0000 0.99590  0.93820  0.77880  Biso   1.000  N
  H5       1.0000 0.46070  0.59870  0.23990  Biso   1.000  H
  H6       1.0000 0.03930  0.09870  0.26010  Biso   1.000  H
  H7       1.0000 0.53930  0.40130  0.76010  Biso   1.000  H
  H8       1.0000 0.96070  0.90130  0.73990  Biso   1.000  H
  C1       1.0000 0.79940  0.30310  0.20680  Biso   1.000  C
  C2       1.0000 0.70060  0.80310  0.29320  Biso   1.000  C
  C3       1.0000 0.20060  0.69690  0.79320  Biso   1.000  C
  C4       1.0000 0.29940  0.19690  0.70680  Biso   1.000  C
  C5       1.0000 0.86500  0.20420  0.34420  Biso   1.000  C
  C6       1.0000 0.63500  0.70420  0.15580  Biso   1.000  C
  C7       1.0000 0.13500  0.79580  0.65580  Biso   1.000  C
  C8       1.0000 0.36500  0.29580  0.84420  Biso   1.000  C
  H9       1.0000 0.93120  0.20740  0.34060  Biso   1.000  H
  H10      1.0000 0.56880  0.70740  0.15940  Biso   1.000  H
  H11      1.0000 0.06880  0.79260  0.65940  Biso   1.000  H
  H12      1.0000 0.43120  0.29260  0.84060  Biso   1.000  H
  C9       1.0000 0.92950  0.41270  0.44080  Biso   1.000  C
  C10      1.0000 0.57050  0.91270  0.05920  Biso   1.000  C
  C11      1.0000 0.07050  0.58730  0.55920  Biso   1.000  C
  C12      1.0000 0.42950  0.08730  0.94080  Biso   1.000  C
  C13      1.0000 0.88760  0.30540  0.18050  Biso   1.000  C
  C14      1.0000 0.61240  0.80540  0.31950  Biso   1.000  C
  C15      1.0000 0.11240  0.69460  0.81950  Biso   1.000  C
  C16      1.0000 0.38760  0.19460  0.68050  Biso   1.000  C
  H13      1.0000 0.94520  0.27450  0.21310  Biso   1.000  H
  H14      1.0000 0.55480  0.77450  0.28690  Biso   1.000  H
  H15      1.0000 0.05480  0.72550  0.78690  Biso   1.000  H
  H16      1.0000 0.44520  0.22550  0.71310  Biso   1.000  H
  C17      1.0000 0.71120  0.58600  0.38770  Biso   1.000  C
  C18      1.0000 0.78880  0.08600  0.11230  Biso   1.000  C
  C19      1.0000 0.28880  0.41400  0.61230  Biso   1.000  C
  C20      1.0000 0.21120  0.91400  0.88770  Biso   1.000  C
  H17      1.0000 0.75600  0.63660  0.40090  Biso   1.000  H
  H18      1.0000 0.74400  0.13660  0.09910  Biso   1.000  H
  H19      1.0000 0.24400  0.36340  0.59910  Biso   1.000  H
  H20      1.0000 0.25600  0.86340  0.90090  Biso   1.000  H
  H21      1.0000 0.68650  0.57910  0.32250  Biso   1.000  H
  H22      1.0000 0.81350  0.07910  0.17750  Biso   1.000  H
  H23      1.0000 0.31350  0.42090  0.67750  Biso   1.000  H
  H24      1.0000 0.18650  0.92090  0.82250  Biso   1.000  H
  C21      1.0000 0.77150  0.50360  0.43000  Biso   1.000  C
  C22      1.0000 0.72850  0.00360  0.07000  Biso   1.000  C
  C23      1.0000 0.22850  0.49640  0.57000  Biso   1.000  C
  C24      1.0000 0.27150  0.99640  0.93000  Biso   1.000  C
  H25      1.0000 0.72500  0.45410  0.41850  Biso   1.000  H
  H26      1.0000 0.77500  0.95410  0.08150  Biso   1.000  H
  H27      1.0000 0.27500  0.54590  0.58150  Biso   1.000  H
  H28      1.0000 0.22500  0.04590  0.91850  Biso   1.000  H
  H29      1.0000 0.79640  0.51180  0.49500  Biso   1.000  H
  H30      1.0000 0.70360  0.01180  0.00500  Biso   1.000  H
  H31      1.0000 0.20360  0.48820  0.50500  Biso   1.000  H
  H32      1.0000 0.29640  0.98820  0.99500  Biso   1.000  H
  C25      1.0000 0.52180  0.58660  0.37280  Biso   1.000  C
  C26      1.0000 0.97820  0.08660  0.12720  Biso   1.000  C
  C27      1.0000 0.47820  0.41340  0.62720  Biso   1.000  C
  C28      1.0000 0.02180  0.91340  0.87280  Biso   1.000  C
  C29      1.0000 0.86140  0.48030  0.39620  Biso   1.000  C
  C30      1.0000 0.63860  0.98030  0.10380  Biso   1.000  C
  C31      1.0000 0.13860  0.51970  0.60380  Biso   1.000  C
  C32      1.0000 0.36140  0.01970  0.89620  Biso   1.000  C
  C33      1.0000 0.56060  0.64770  0.54810  Biso   1.000  C
  C34      1.0000 0.93940  0.14770  0.95190  Biso   1.000  C
  C35      1.0000 0.43940  0.35230  0.45190  Biso   1.000  C
  C36      1.0000 0.06060  0.85230  0.04810  Biso   1.000  C
  H33      1.0000 0.57400  0.66860  0.60690  Biso   1.000  H
  H34      1.0000 0.92600  0.16860  0.89310  Biso   1.000  H
  H35      1.0000 0.42600  0.33140  0.39310  Biso   1.000  H
  H36      1.0000 0.07400  0.83140  0.10690  Biso   1.000  H
  C37      1.0000 0.78600  0.24980  0.28270  Biso   1.000  C
  C38      1.0000 0.71400  0.74980  0.21730  Biso   1.000  C
  C39      1.0000 0.21400  0.75020  0.71730  Biso   1.000  C
  C40      1.0000 0.28600  0.25020  0.78270  Biso   1.000  C
  C41      1.0000 0.91780  0.29360  0.65160  Biso   1.000  C
  C42      1.0000 0.58220  0.79360  0.84840  Biso   1.000  C
  C43      1.0000 0.08220  0.70640  0.34840  Biso   1.000  C
  C44      1.0000 0.41780  0.20640  0.15160  Biso   1.000  C
  C45      1.0000 0.47700  0.47620  0.14170  Biso   1.000  C
  C46      1.0000 0.02300  0.97620  0.35830  Biso   1.000  C
  C47      1.0000 0.52300  0.52380  0.85830  Biso   1.000  C
  C48      1.0000 0.97700  0.02380  0.64170  Biso   1.000  C
  C49      1.0000 0.80400  0.40080  0.06090  Biso   1.000  C
  C50      1.0000 0.69600  0.90080  0.43910  Biso   1.000  C
  C51      1.0000 0.19600  0.59920  0.93910  Biso   1.000  C
  C52      1.0000 0.30400  0.09920  0.56090  Biso   1.000  C
  H37      1.0000 0.80440  0.43510  0.01130  Biso   1.000  H
  H38      1.0000 0.69560  0.93510  0.48870  Biso   1.000  H
  H39      1.0000 0.19560  0.56490  0.98870  Biso   1.000  H
  H40      1.0000 0.30440  0.06490  0.51130  Biso   1.000  H
  C53      1.0000 0.88850  0.35370  0.10610  Biso   1.000  C
  C54      1.0000 0.61150  0.85370  0.39390  Biso   1.000  C
  C55      1.0000 0.11150  0.64630  0.89390  Biso   1.000  C
  C56      1.0000 0.38850  0.14630  0.60610  Biso   1.000  C
  H41      1.0000 0.94610  0.35440  0.08640  Biso   1.000  H
  H42      1.0000 0.55390  0.85440  0.41360  Biso   1.000  H
  H43      1.0000 0.05390  0.64560  0.91360  Biso   1.000  H
  H44      1.0000 0.44610  0.14560  0.58640  Biso   1.000  H
  C57      1.0000 0.84330  0.15450  0.41030  Biso   1.000  C
  C58      1.0000 0.65670  0.65450  0.08970  Biso   1.000  C
  C59      1.0000 0.15670  0.84550  0.58970  Biso   1.000  C
  C60      1.0000 0.34330  0.34550  0.91030  Biso   1.000  C
  H45      1.0000 0.89470  0.12370  0.45200  Biso   1.000  H
  H46      1.0000 0.60530  0.62370  0.04800  Biso   1.000  H
  H47      1.0000 0.10530  0.87630  0.54800  Biso   1.000  H
  H48      1.0000 0.39470  0.37630  0.95200  Biso   1.000  H
  C61      1.0000 0.62260  0.60150  0.42370  Biso   1.000  C
  C62      1.0000 0.87740  0.10150  0.07630  Biso   1.000  C
  C63      1.0000 0.37740  0.39850  0.57630  Biso   1.000  C
  C64      1.0000 0.12260  0.89850  0.92370  Biso   1.000  C
  C65      1.0000 0.44250  0.60190  0.40910  Biso   1.000  C
  C66      1.0000 0.05750  0.10190  0.09090  Biso   1.000  C
  C67      1.0000 0.55750  0.39810  0.59090  Biso   1.000  C
  C68      1.0000 0.94250  0.89810  0.90910  Biso   1.000  C
  H49      1.0000 0.37580  0.59190  0.37390  Biso   1.000  H
  H50      1.0000 0.12420  0.09190  0.12610  Biso   1.000  H
  H51      1.0000 0.62420  0.40810  0.62610  Biso   1.000  H
  H52      1.0000 0.87580  0.90810  0.87390  Biso   1.000  H
  C69      1.0000 0.96330  0.49980  0.29460  Biso   1.000  C
  C70      1.0000 0.53670  0.99980  0.20540  Biso   1.000  C
  C71      1.0000 0.03670  0.50020  0.70540  Biso   1.000  C
  C72      1.0000 0.46330  0.00020  0.79460  Biso   1.000  C
  H53      1.0000 0.97420  0.52850  0.24530  Biso   1.000  H
  H54      1.0000 0.52580  0.02850  0.25470  Biso   1.000  H
  H55      1.0000 0.02580  0.47150  0.75470  Biso   1.000  H
  H56      1.0000 0.47420  0.97150  0.74530  Biso   1.000  H
  C73      1.0000 0.71810  0.39720  0.08960  Biso   1.000  C
  C74      1.0000 0.78190  0.89720  0.41040  Biso   1.000  C
  C75      1.0000 0.28190  0.60280  0.91040  Biso   1.000  C
  C76      1.0000 0.21810  0.10280  0.58960  Biso   1.000  C
  H57      1.0000 0.66060  0.42890  0.05820  Biso   1.000  H
  H58      1.0000 0.83940  0.92890  0.44180  Biso   1.000  H
  H59      1.0000 0.33940  0.57110  0.94180  Biso   1.000  H
  H60      1.0000 0.16060  0.07110  0.55820  Biso   1.000  H
  C77      1.0000 0.52120  0.48730  0.24650  Biso   1.000  C
  C78      1.0000 0.97880  0.98730  0.25350  Biso   1.000  C
  C79      1.0000 0.47880  0.51270  0.75350  Biso   1.000  C
  C80      1.0000 0.02120  0.01270  0.74650  Biso   1.000  C
  C81      1.0000 0.63890  0.63260  0.51200  Biso   1.000  C
  C82      1.0000 0.86110  0.13260  0.98800  Biso   1.000  C
  C83      1.0000 0.36110  0.36740  0.48800  Biso   1.000  C
  C84      1.0000 0.13890  0.86740  0.01200  Biso   1.000  C
  H61      1.0000 0.70530  0.64350  0.54760  Biso   1.000  H
  H62      1.0000 0.79470  0.14350  0.95240  Biso   1.000  H
  H63      1.0000 0.29470  0.35650  0.45240  Biso   1.000  H
  H64      1.0000 0.20530  0.85650  0.04760  Biso   1.000  H
  C85      1.0000 0.96510  0.31390  0.57490  Biso   1.000  C
  C86      1.0000 0.53490  0.81390  0.92510  Biso   1.000  C
  C87      1.0000 0.03490  0.68610  0.42510  Biso   1.000  C
  C88      1.0000 0.46510  0.18610  0.07490  Biso   1.000  C
  C89      1.0000 0.74480  0.15080  0.41380  Biso   1.000  C
  C90      1.0000 0.75520  0.65080  0.08620  Biso   1.000  C
  C91      1.0000 0.25520  0.84920  0.58620  Biso   1.000  C
  C92      1.0000 0.24480  0.34920  0.91380  Biso   1.000  C
  H65      1.0000 0.72870  0.11660  0.45750  Biso   1.000  H
  H66      1.0000 0.77130  0.61660  0.04250  Biso   1.000  H
  H67      1.0000 0.27130  0.88340  0.54250  Biso   1.000  H
  H68      1.0000 0.22870  0.38340  0.95750  Biso   1.000  H
  C93      1.0000 0.66900  0.19850  0.35150  Biso   1.000  C
  C94      1.0000 0.83100  0.69850  0.14850  Biso   1.000  C
  C95      1.0000 0.33100  0.80150  0.64850  Biso   1.000  C
  C96      1.0000 0.16900  0.30150  0.85150  Biso   1.000  C
  H69      1.0000 0.60260  0.19690  0.35490  Biso   1.000  H
  H70      1.0000 0.89740  0.69690  0.14510  Biso   1.000  H
  H71      1.0000 0.39740  0.80310  0.64510  Biso   1.000  H
  H72      1.0000 0.10260  0.30310  0.85490  Biso   1.000  H
  C97      1.0000 0.01270  0.39110  0.41230  Biso   1.000  C
  C98      1.0000 0.48730  0.89110  0.08770  Biso   1.000  C
  C99      1.0000 0.98730  0.60890  0.58770  Biso   1.000  C
  C100     1.0000 0.51270  0.10890  0.91230  Biso   1.000  C
  H73      1.0000 0.05680  0.34690  0.44170  Biso   1.000  H
  H74      1.0000 0.44320  0.84690  0.05830  Biso   1.000  H
  H75      1.0000 0.94320  0.65310  0.55830  Biso   1.000  H
  H76      1.0000 0.55680  0.15310  0.94170  Biso   1.000  H
  C101     1.0000 0.88100  0.52150  0.32260  Biso   1.000  C
  C102     1.0000 0.61900  0.02150  0.17740  Biso   1.000  C
  C103     1.0000 0.11900  0.47850  0.67740  Biso   1.000  C
  C104     1.0000 0.38100  0.97850  0.82260  Biso   1.000  C
  H77      1.0000 0.83680  0.56500  0.29170  Biso   1.000  H
  H78      1.0000 0.66320  0.06500  0.20830  Biso   1.000  H
  H79      1.0000 0.16320  0.43500  0.70830  Biso   1.000  H
  H80      1.0000 0.33680  0.93500  0.79170  Biso   1.000  H
  C105     1.0000 0.03050  0.43500  0.33980  Biso   1.000  C
  C106     1.0000 0.46950  0.93500  0.16020  Biso   1.000  C
  C107     1.0000 0.96950  0.56500  0.66020  Biso   1.000  C
  C108     1.0000 0.53050  0.06500  0.83980  Biso   1.000  C
  H81      1.0000 0.08730  0.42120  0.32150  Biso   1.000  H
  H82      1.0000 0.41270  0.92120  0.17850  Biso   1.000  H
  H83      1.0000 0.91270  0.57880  0.67850  Biso   1.000  H
  H84      1.0000 0.58730  0.07880  0.82150  Biso   1.000  H
  C109     1.0000 0.46150  0.63140  0.49620  Biso   1.000  C
  C110     1.0000 0.03850  0.13140  0.00380  Biso   1.000  C
  C111     1.0000 0.53850  0.36860  0.50380  Biso   1.000  C
  C112     1.0000 0.96150  0.86860  0.99620  Biso   1.000  C
  H85      1.0000 0.40800  0.64040  0.52020  Biso   1.000  H
  H86      1.0000 0.09200  0.14040  0.97980  Biso   1.000  H
  H87      1.0000 0.59200  0.35960  0.47980  Biso   1.000  H
  H88      1.0000 0.90800  0.85960  0.02020  Biso   1.000  H
  O25      1.0000 0.37340  0.70160  0.15850  Biso   1.000  O
  O26      1.0000 0.12660  0.20160  0.34150  Biso   1.000  O
  O27      1.0000 0.62660  0.29840  0.84150  Biso   1.000  O
  O28      1.0000 0.87340  0.79840  0.65850  Biso   1.000  O
  H89      1.0000 0.37700  0.66700  0.11300  Biso   1.000  H
  H90      1.0000 0.12300  0.16700  0.38700  Biso   1.000  H
  H91      1.0000 0.62300  0.33300  0.88700  Biso   1.000  H
  H92      1.0000 0.87700  0.83300  0.61300  Biso   1.000  H
  H93      1.0000 0.31200  0.69200  0.16400  Biso   1.000  H
  H94      1.0000 0.18800  0.19200  0.33600  Biso   1.000  H
  H95      1.0000 0.68800  0.30800  0.83600  Biso   1.000  H
  H96      1.0000 0.81200  0.80800  0.66400  Biso   1.000  H
  O29      1.0000 0.18630  0.67110  0.17950  Biso   1.000  O
  O30      1.0000 0.31370  0.17110  0.32050  Biso   1.000  O
  O31      1.0000 0.81370  0.32890  0.82050  Biso   1.000  O
  O32      1.0000 0.68630  0.82890  0.67950  Biso   1.000  O
  H97      1.0000 0.13700  0.63600  0.14600  Biso   1.000  H
  H98      1.0000 0.36300  0.13600  0.35400  Biso   1.000  H
  H99      1.0000 0.86300  0.36400  0.85400  Biso   1.000  H
  H100     1.0000 0.63700  0.86400  0.64600  Biso   1.000  H
  H101     1.0000 0.16300  0.68200  0.22700  Biso   1.000  H
  H102     1.0000 0.33700  0.18200  0.27300  Biso   1.000  H
  H103     1.0000 0.83700  0.31800  0.77300  Biso   1.000  H
  H104     1.0000 0.66300  0.81800  0.72700  Biso   1.000  H
  S1       1.0000 0.22360  0.40072  0.14170  Biso   1.000  S
  S2       1.0000 0.27640  0.90072  0.35830  Biso   1.000  S
  S3       1.0000 0.77640  0.59928  0.85830  Biso   1.000  S
  S4       1.0000 0.72360  0.09928  0.64170  Biso   1.000  S
  O33      1.0000 0.12730  0.43560  0.07360  Biso   1.000  O
  O34      1.0000 0.37270  0.93560  0.42640  Biso   1.000  O
  O35      1.0000 0.87270  0.56440  0.92640  Biso   1.000  O
  O36      1.0000 0.62730  0.06440  0.57360  Biso   1.000  O
  C113     1.0000 0.25530  0.47710  0.22990  Biso   1.000  C
  C114     1.0000 0.24470  0.97710  0.27010  Biso   1.000  C
  C115     1.0000 0.74470  0.52290  0.77010  Biso   1.000  C
  C116     1.0000 0.75530  0.02290  0.72990  Biso   1.000  C
  H105     1.0000 0.28490  0.52810  0.21130  Biso   1.000  H
  H106     1.0000 0.21510  0.02810  0.28870  Biso   1.000  H
  H107     1.0000 0.71510  0.47190  0.78870  Biso   1.000  H
  H108     1.0000 0.78490  0.97190  0.71130  Biso   1.000  H
  H109     1.0000 0.30340  0.45150  0.28200  Biso   1.000  H
  H110     1.0000 0.19660  0.95150  0.21800  Biso   1.000  H
  H111     1.0000 0.69660  0.54850  0.71800  Biso   1.000  H
  H112     1.0000 0.80340  0.04850  0.78200  Biso   1.000  H
  H113     1.0000 0.19500  0.49380  0.24490  Biso   1.000  H
  H114     1.0000 0.30500  0.99380  0.25510  Biso   1.000  H
  H115     1.0000 0.80500  0.50620  0.75510  Biso   1.000  H
  H116     1.0000 0.69500  0.00620  0.74490  Biso   1.000  H
  C117     1.0000 0.18340  0.31180  0.19620  Biso   1.000  C
  C118     1.0000 0.31660  0.81180  0.30380  Biso   1.000  C
  C119     1.0000 0.81660  0.68820  0.80380  Biso   1.000  C
  C120     1.0000 0.68340  0.18820  0.69620  Biso   1.000  C
  H117     1.0000 0.12440  0.32880  0.21300  Biso   1.000  H
  H118     1.0000 0.37560  0.82880  0.28700  Biso   1.000  H
  H119     1.0000 0.87560  0.67120  0.78700  Biso   1.000  H
  H120     1.0000 0.62440  0.17120  0.71300  Biso   1.000  H
  H121     1.0000 0.23720  0.29590  0.24950  Biso   1.000  H
  H122     1.0000 0.26280  0.79590  0.25050  Biso   1.000  H
  H123     1.0000 0.76280  0.70410  0.75050  Biso   1.000  H
  H124     1.0000 0.73720  0.20410  0.74950  Biso   1.000  H
  H125     1.0000 0.16700  0.26260  0.15580  Biso   1.000  H
  H126     1.0000 0.33300  0.76260  0.34420  Biso   1.000  H
  H127     1.0000 0.83300  0.73740  0.84420  Biso   1.000  H
  H128     1.0000 0.66700  0.23740  0.65580  Biso   1.000  H
  S5       1.0000 0.19190  0.41230  0.13290  Biso   1.000  S
  S6       1.0000 0.30810  0.91230  0.36710  Biso   1.000  S
  S7       1.0000 0.80810  0.58770  0.86710  Biso   1.000  S
  S8       1.0000 0.69190  0.08770  0.63290  Biso   1.000  S
  O37      1.0000 0.12110  0.47050  0.14700  Biso   1.000  O
  O38      1.0000 0.37890  0.97050  0.35300  Biso   1.000  O
  O39      1.0000 0.87890  0.52950  0.85300  Biso   1.000  O
  O40      1.0000 0.62110  0.02950  0.64700  Biso   1.000  O
  C121     1.0000 0.14890  0.30150  0.12480  Biso   1.000  C
  C122     1.0000 0.35110  0.80150  0.37520  Biso   1.000  C
  C123     1.0000 0.85110  0.69850  0.87520  Biso   1.000  C
  C124     1.0000 0.64890  0.19850  0.62480  Biso   1.000  C
  H129     1.0000 0.11920  0.28970  0.17250  Biso   1.000  H
  H130     1.0000 0.38080  0.78970  0.32750  Biso   1.000  H
  H131     1.0000 0.88080  0.71030  0.82750  Biso   1.000  H
  H132     1.0000 0.61920  0.21030  0.67250  Biso   1.000  H
  H133     1.0000 0.20540  0.26270  0.13040  Biso   1.000  H
  H134     1.0000 0.29460  0.76270  0.36960  Biso   1.000  H
  H135     1.0000 0.79460  0.73730  0.86960  Biso   1.000  H
  H136     1.0000 0.70540  0.23730  0.63040  Biso   1.000  H
  H137     1.0000 0.09870  0.29240  0.06730  Biso   1.000  H
  H138     1.0000 0.40130  0.79240  0.43270  Biso   1.000  H
  H139     1.0000 0.90130  0.70760  0.93270  Biso   1.000  H
  H140     1.0000 0.59870  0.20760  0.56730  Biso   1.000  H
  C125     1.0000 0.29060  0.39950  0.24290  Biso   1.000  C
  C126     1.0000 0.20940  0.89950  0.25710  Biso   1.000  C
  C127     1.0000 0.70940  0.60050  0.75710  Biso   1.000  C
  C128     1.0000 0.79060  0.10050  0.74290  Biso   1.000  C
  H141     1.0000 0.32290  0.45510  0.26170  Biso   1.000  H
  H142     1.0000 0.17710  0.95510  0.23830  Biso   1.000  H
  H143     1.0000 0.67710  0.54490  0.73830  Biso   1.000  H
  H144     1.0000 0.82290  0.04490  0.76170  Biso   1.000  H
  H145     1.0000 0.34060  0.35780  0.23700  Biso   1.000  H
  H146     1.0000 0.15940  0.85780  0.26300  Biso   1.000  H
  H147     1.0000 0.65940  0.64220  0.76300  Biso   1.000  H
  H148     1.0000 0.84060  0.14220  0.73700  Biso   1.000  H
  H149     1.0000 0.25980  0.37900  0.28720  Biso   1.000  H
  H150     1.0000 0.24020  0.87900  0.21280  Biso   1.000  H
  H151     1.0000 0.74020  0.62100  0.71280  Biso   1.000  H
  H152     1.0000 0.75980  0.12100  0.78720  Biso   1.000  H
  O41      1.0000 0.98590  0.41160  0.91840  Biso   1.000  O
  O42      1.0000 0.51410  0.91160  0.58160  Biso   1.000  O
  O43      1.0000 0.01410  0.58840  0.08160  Biso   1.000  O
  O44      1.0000 0.48590  0.08840  0.41840  Biso   1.000  O
  H153     1.0000 0.03300  0.42000  0.97400  Biso   1.000  H
  H154     1.0000 0.46700  0.92000  0.52600  Biso   1.000  H
  H155     1.0000 0.96700  0.58000  0.02600  Biso   1.000  H
  H156     1.0000 0.53300  0.08000  0.47400  Biso   1.000  H
  H157     1.0000 0.95100  0.46500  0.91900  Biso   1.000  H
  H158     1.0000 0.54900  0.96500  0.58100  Biso   1.000  H
  H159     1.0000 0.04900  0.53500  0.08100  Biso   1.000  H
  H160     1.0000 0.45100  0.03500  0.41900  Biso   1.000  H
