data_image0
_cell_length_a       23.529
_cell_length_b       19.2568
_cell_length_c       16.5702
_cell_angle_alpha    90
_cell_angle_beta     134.7
_cell_angle_gamma    90

_symmetry_space_group_name_H-M    "P 1"
_symmetry_int_tables_number       1

loop_
  _symmetry_equiv_pos_as_xyz
  'x, y, z'

loop_
  _atom_site_label
  _atom_site_occupancy
  _atom_site_fract_x
  _atom_site_fract_y
  _atom_site_fract_z
  _atom_site_thermal_displace_type
  _atom_site_B_iso_or_equiv
  _atom_site_type_symbol
  Cu1      1.0000 0.70761  0.01594  0.59534  Biso   1.000  Cu
  Cu2      1.0000 0.29239  0.01594  0.90466  Biso   1.000  Cu
  Cu3      1.0000 0.20761  0.51594  0.59534  Biso   1.000  Cu
  Cu4      1.0000 0.79239  0.51594  0.90466  Biso   1.000  Cu
  Cu5      1.0000 0.29239  0.98406  0.40466  Biso   1.000  Cu
  Cu6      1.0000 0.70761  0.98406  0.09534  Biso   1.000  Cu
  Cu7      1.0000 0.79239  0.48406  0.40466  Biso   1.000  Cu
  Cu8      1.0000 0.20761  0.48406  0.09534  Biso   1.000  Cu
  O1       1.0000 0.63924  0.98225  0.92810  Biso   1.000  O
  O2       1.0000 0.36076  0.98225  0.57190  Biso   1.000  O
  O3       1.0000 0.13924  0.48225  0.92810  Biso   1.000  O
  O4       1.0000 0.86076  0.48225  0.57190  Biso   1.000  O
  O5       1.0000 0.36076  0.01775  0.07190  Biso   1.000  O
  O6       1.0000 0.63924  0.01775  0.42810  Biso   1.000  O
  O7       1.0000 0.86076  0.51775  0.07190  Biso   1.000  O
  O8       1.0000 0.13924  0.51775  0.42810  Biso   1.000  O
  O9       1.0000 0.79923  0.17661  0.56870  Biso   1.000  O
  O10      1.0000 0.20077  0.17661  0.93130  Biso   1.000  O
  O11      1.0000 0.29923  0.67661  0.56870  Biso   1.000  O
  O12      1.0000 0.70077  0.67661  0.93130  Biso   1.000  O
  O13      1.0000 0.20077  0.82339  0.43130  Biso   1.000  O
  O14      1.0000 0.79923  0.82339  0.06870  Biso   1.000  O
  O15      1.0000 0.70077  0.32339  0.43130  Biso   1.000  O
  O16      1.0000 0.29923  0.32339  0.06870  Biso   1.000  O
  O17      1.0000 0.66333  0.12574  0.58290  Biso   1.000  O
  O18      1.0000 0.33667  0.12574  0.91710  Biso   1.000  O
  O19      1.0000 0.16333  0.62574  0.58290  Biso   1.000  O
  O20      1.0000 0.83667  0.62574  0.91710  Biso   1.000  O
  O21      1.0000 0.33667  0.87426  0.41710  Biso   1.000  O
  O22      1.0000 0.66333  0.87426  0.08290  Biso   1.000  O
  O23      1.0000 0.83667  0.37426  0.41710  Biso   1.000  O
  O24      1.0000 0.16333  0.37426  0.08290  Biso   1.000  O
  O25      1.0000 0.78861  0.07589  0.62250  Biso   1.000  O
  O26      1.0000 0.21139  0.07589  0.87750  Biso   1.000  O
  O27      1.0000 0.28861  0.57589  0.62250  Biso   1.000  O
  O28      1.0000 0.71139  0.57589  0.87750  Biso   1.000  O
  O29      1.0000 0.21139  0.92411  0.37750  Biso   1.000  O
  O30      1.0000 0.78861  0.92411  0.12250  Biso   1.000  O
  O31      1.0000 0.71139  0.42411  0.37750  Biso   1.000  O
  O32      1.0000 0.28861  0.42411  0.12250  Biso   1.000  O
  O33      1.0000 0.76133  0.07372  0.07380  Biso   1.000  O
  O34      1.0000 0.23867  0.07372  0.42620  Biso   1.000  O
  O35      1.0000 0.26133  0.57372  0.07380  Biso   1.000  O
  O36      1.0000 0.73867  0.57372  0.42620  Biso   1.000  O
  O37      1.0000 0.23867  0.92628  0.92620  Biso   1.000  O
  O38      1.0000 0.76133  0.92628  0.57380  Biso   1.000  O
  O39      1.0000 0.73867  0.42628  0.92620  Biso   1.000  O
  O40      1.0000 0.26133  0.42628  0.57380  Biso   1.000  O
  N1       1.0000 0.62830  0.96065  0.57850  Biso   1.000  N
  N2       1.0000 0.37170  0.96065  0.92150  Biso   1.000  N
  N3       1.0000 0.12830  0.46065  0.57850  Biso   1.000  N
  N4       1.0000 0.87170  0.46065  0.92150  Biso   1.000  N
  N5       1.0000 0.37170  0.03935  0.42150  Biso   1.000  N
  N6       1.0000 0.62830  0.03935  0.07850  Biso   1.000  N
  N7       1.0000 0.87170  0.53935  0.42150  Biso   1.000  N
  N8       1.0000 0.12830  0.53935  0.07850  Biso   1.000  N
  N9       1.0000 0.67720  0.23093  0.53580  Biso   1.000  N
  N10      1.0000 0.32280  0.23093  0.96420  Biso   1.000  N
  N11      1.0000 0.17720  0.73093  0.53580  Biso   1.000  N
  N12      1.0000 0.82280  0.73093  0.96420  Biso   1.000  N
  N13      1.0000 0.32280  0.76907  0.46420  Biso   1.000  N
  N14      1.0000 0.67720  0.76907  0.03580  Biso   1.000  N
  N15      1.0000 0.82280  0.26907  0.46420  Biso   1.000  N
  N16      1.0000 0.17720  0.26907  0.03580  Biso   1.000  N
  H1       1.0000 0.70510  0.25530  0.53040  Biso   1.000  H
  H2       1.0000 0.29490  0.25530  0.96960  Biso   1.000  H
  H3       1.0000 0.20510  0.75530  0.53040  Biso   1.000  H
  H4       1.0000 0.79490  0.75530  0.96960  Biso   1.000  H
  H5       1.0000 0.29490  0.74470  0.46960  Biso   1.000  H
  H6       1.0000 0.70510  0.74470  0.03040  Biso   1.000  H
  H7       1.0000 0.79490  0.24470  0.46960  Biso   1.000  H
  H8       1.0000 0.20510  0.24470  0.03040  Biso   1.000  H
  N17      1.0000 0.77340  0.99736  0.75960  Biso   1.000  N
  N18      1.0000 0.22660  0.99736  0.74040  Biso   1.000  N
  N19      1.0000 0.27340  0.49736  0.75960  Biso   1.000  N
  N20      1.0000 0.72660  0.49736  0.74040  Biso   1.000  N
  N21      1.0000 0.22660  0.00264  0.24040  Biso   1.000  N
  N22      1.0000 0.77340  0.00264  0.25960  Biso   1.000  N
  N23      1.0000 0.72660  0.50264  0.24040  Biso   1.000  N
  N24      1.0000 0.27340  0.50264  0.25960  Biso   1.000  N
  O41      1.0000 0.60820  0.03976  0.78420  Biso   1.000  O
  O42      1.0000 0.39180  0.03976  0.71580  Biso   1.000  O
  O43      1.0000 0.10820  0.53976  0.78420  Biso   1.000  O
  O44      1.0000 0.89180  0.53976  0.71580  Biso   1.000  O
  O45      1.0000 0.39180  0.96024  0.21580  Biso   1.000  O
  O46      1.0000 0.60820  0.96024  0.28420  Biso   1.000  O
  O47      1.0000 0.89180  0.46024  0.21580  Biso   1.000  O
  O48      1.0000 0.10820  0.46024  0.28420  Biso   1.000  O
  C1       1.0000 0.65360  0.93809  0.67640  Biso   1.000  C
  C2       1.0000 0.34640  0.93809  0.82360  Biso   1.000  C
  C3       1.0000 0.15360  0.43809  0.67640  Biso   1.000  C
  C4       1.0000 0.84640  0.43809  0.82360  Biso   1.000  C
  C5       1.0000 0.34640  0.06191  0.32360  Biso   1.000  C
  C6       1.0000 0.65360  0.06191  0.17640  Biso   1.000  C
  C7       1.0000 0.84640  0.56191  0.32360  Biso   1.000  C
  C8       1.0000 0.15360  0.56191  0.17640  Biso   1.000  C
  C9       1.0000 0.73680  0.95709  0.77900  Biso   1.000  C
  C10      1.0000 0.26320  0.95709  0.72100  Biso   1.000  C
  C11      1.0000 0.23680  0.45709  0.77900  Biso   1.000  C
  C12      1.0000 0.76320  0.45709  0.72100  Biso   1.000  C
  C13      1.0000 0.26320  0.04291  0.22100  Biso   1.000  C
  C14      1.0000 0.73680  0.04291  0.27900  Biso   1.000  C
  C15      1.0000 0.76320  0.54291  0.22100  Biso   1.000  C
  C16      1.0000 0.23680  0.54291  0.27900  Biso   1.000  C
  C17      1.0000 0.69710  0.16447  0.56770  Biso   1.000  C
  C18      1.0000 0.30290  0.16447  0.93230  Biso   1.000  C
  C19      1.0000 0.19710  0.66447  0.56770  Biso   1.000  C
  C20      1.0000 0.80290  0.66447  0.93230  Biso   1.000  C
  C21      1.0000 0.30290  0.83553  0.43230  Biso   1.000  C
  C22      1.0000 0.69710  0.83553  0.06770  Biso   1.000  C
  C23      1.0000 0.80290  0.33553  0.43230  Biso   1.000  C
  C24      1.0000 0.19710  0.33553  0.06770  Biso   1.000  C
  C25      1.0000 0.55380  0.94672  0.48090  Biso   1.000  C
  C26      1.0000 0.44620  0.94672  0.01910  Biso   1.000  C
  C27      1.0000 0.05380  0.44672  0.48090  Biso   1.000  C
  C28      1.0000 0.94620  0.44672  0.01910  Biso   1.000  C
  C29      1.0000 0.44620  0.05328  0.51910  Biso   1.000  C
  C30      1.0000 0.55380  0.05328  0.98090  Biso   1.000  C
  C31      1.0000 0.94620  0.55328  0.51910  Biso   1.000  C
  C32      1.0000 0.05380  0.55328  0.98090  Biso   1.000  C
  H9       1.0000 0.53640  0.96300  0.41380  Biso   1.000  H
  H10      1.0000 0.46360  0.96300  0.08620  Biso   1.000  H
  H11      1.0000 0.03640  0.46300  0.41380  Biso   1.000  H
  H12      1.0000 0.96360  0.46300  0.08620  Biso   1.000  H
  H13      1.0000 0.46360  0.03700  0.58620  Biso   1.000  H
  H14      1.0000 0.53640  0.03700  0.91380  Biso   1.000  H
  H15      1.0000 0.96360  0.53700  0.58620  Biso   1.000  H
  H16      1.0000 0.03640  0.53700  0.91380  Biso   1.000  H
  N25      1.0000 0.73300  0.12319  0.92350  Biso   1.000  N
  N26      1.0000 0.26700  0.12319  0.57650  Biso   1.000  N
  N27      1.0000 0.23300  0.62319  0.92350  Biso   1.000  N
  N28      1.0000 0.76700  0.62319  0.57650  Biso   1.000  N
  N29      1.0000 0.26700  0.87681  0.07650  Biso   1.000  N
  N30      1.0000 0.73300  0.87681  0.42350  Biso   1.000  N
  N31      1.0000 0.76700  0.37681  0.07650  Biso   1.000  N
  N32      1.0000 0.23300  0.37681  0.42350  Biso   1.000  N
  H17      1.0000 0.70140  0.11930  0.85120  Biso   1.000  H
  H18      1.0000 0.29860  0.11930  0.64880  Biso   1.000  H
  H19      1.0000 0.20140  0.61930  0.85120  Biso   1.000  H
  H20      1.0000 0.79860  0.61930  0.64880  Biso   1.000  H
  H21      1.0000 0.29860  0.88070  0.14880  Biso   1.000  H
  H22      1.0000 0.70140  0.88070  0.35120  Biso   1.000  H
  H23      1.0000 0.79860  0.38070  0.14880  Biso   1.000  H
  H24      1.0000 0.20140  0.38070  0.35120  Biso   1.000  H
  C33      1.0000 0.61080  0.26318  0.51010  Biso   1.000  C
  C34      1.0000 0.38920  0.26318  0.98990  Biso   1.000  C
  C35      1.0000 0.11080  0.76318  0.51010  Biso   1.000  C
  C36      1.0000 0.88920  0.76318  0.98990  Biso   1.000  C
  C37      1.0000 0.38920  0.73682  0.48990  Biso   1.000  C
  C38      1.0000 0.61080  0.73682  0.01010  Biso   1.000  C
  C39      1.0000 0.88920  0.23682  0.48990  Biso   1.000  C
  C40      1.0000 0.11080  0.23682  0.01010  Biso   1.000  C
  C41      1.0000 0.60390  0.90010  0.67690  Biso   1.000  C
  C42      1.0000 0.39610  0.90010  0.82310  Biso   1.000  C
  C43      1.0000 0.10390  0.40010  0.67690  Biso   1.000  C
  C44      1.0000 0.89610  0.40010  0.82310  Biso   1.000  C
  C45      1.0000 0.39610  0.09990  0.32310  Biso   1.000  C
  C46      1.0000 0.60390  0.09990  0.17690  Biso   1.000  C
  C47      1.0000 0.89610  0.59990  0.32310  Biso   1.000  C
  C48      1.0000 0.10390  0.59990  0.17690  Biso   1.000  C
  H25      1.0000 0.62220  0.88450  0.74490  Biso   1.000  H
  H26      1.0000 0.37780  0.88450  0.75510  Biso   1.000  H
  H27      1.0000 0.12220  0.38450  0.74490  Biso   1.000  H
  H28      1.0000 0.87780  0.38450  0.75510  Biso   1.000  H
  H29      1.0000 0.37780  0.11550  0.25510  Biso   1.000  H
  H30      1.0000 0.62220  0.11550  0.24490  Biso   1.000  H
  H31      1.0000 0.87780  0.61550  0.25510  Biso   1.000  H
  H32      1.0000 0.12220  0.61550  0.24490  Biso   1.000  H
  C49      1.0000 0.76750  0.13760  0.58680  Biso   1.000  C
  C50      1.0000 0.23250  0.13760  0.91320  Biso   1.000  C
  C51      1.0000 0.26750  0.63760  0.58680  Biso   1.000  C
  C52      1.0000 0.73250  0.63760  0.91320  Biso   1.000  C
  C53      1.0000 0.23250  0.86240  0.41320  Biso   1.000  C
  C54      1.0000 0.76750  0.86240  0.08680  Biso   1.000  C
  C55      1.0000 0.73250  0.36240  0.41320  Biso   1.000  C
  C56      1.0000 0.26750  0.36240  0.08680  Biso   1.000  C
  C57      1.0000 0.77660  0.93620  0.88810  Biso   1.000  C
  C58      1.0000 0.22340  0.93620  0.61190  Biso   1.000  C
  C59      1.0000 0.27660  0.43620  0.88810  Biso   1.000  C
  C60      1.0000 0.72340  0.43620  0.61190  Biso   1.000  C
  C61      1.0000 0.22340  0.06380  0.11190  Biso   1.000  C
  C62      1.0000 0.77660  0.06380  0.38810  Biso   1.000  C
  C63      1.0000 0.72340  0.56380  0.11190  Biso   1.000  C
  C64      1.0000 0.27660  0.56380  0.38810  Biso   1.000  C
  H33      1.0000 0.75080  0.90890  0.90060  Biso   1.000  H
  H34      1.0000 0.24920  0.90890  0.59940  Biso   1.000  H
  H35      1.0000 0.25080  0.40890  0.90060  Biso   1.000  H
  H36      1.0000 0.74920  0.40890  0.59940  Biso   1.000  H
  H37      1.0000 0.24920  0.09110  0.09940  Biso   1.000  H
  H38      1.0000 0.75080  0.09110  0.40060  Biso   1.000  H
  H39      1.0000 0.74920  0.59110  0.09940  Biso   1.000  H
  H40      1.0000 0.25080  0.59110  0.40060  Biso   1.000  H
  C65      1.0000 0.84880  0.01680  0.84740  Biso   1.000  C
  C66      1.0000 0.15120  0.01680  0.65260  Biso   1.000  C
  C67      1.0000 0.34880  0.51680  0.84740  Biso   1.000  C
  C68      1.0000 0.65120  0.51680  0.65260  Biso   1.000  C
  C69      1.0000 0.15120  0.98320  0.15260  Biso   1.000  C
  C70      1.0000 0.84880  0.98320  0.34740  Biso   1.000  C
  C71      1.0000 0.65120  0.48320  0.15260  Biso   1.000  C
  C72      1.0000 0.34880  0.48320  0.34740  Biso   1.000  C
  H41      1.0000 0.87370  0.04460  0.83380  Biso   1.000  H
  H42      1.0000 0.12630  0.04460  0.66620  Biso   1.000  H
  H43      1.0000 0.37370  0.54460  0.83380  Biso   1.000  H
  H44      1.0000 0.62630  0.54460  0.66620  Biso   1.000  H
  H45      1.0000 0.12630  0.95540  0.16620  Biso   1.000  H
  H46      1.0000 0.87370  0.95540  0.33380  Biso   1.000  H
  H47      1.0000 0.62630  0.45540  0.16620  Biso   1.000  H
  H48      1.0000 0.37370  0.45540  0.33380  Biso   1.000  H
  C73      1.0000 0.72150  0.07780  0.97250  Biso   1.000  C
  C74      1.0000 0.27850  0.07780  0.52750  Biso   1.000  C
  C75      1.0000 0.22150  0.57780  0.97250  Biso   1.000  C
  C76      1.0000 0.77850  0.57780  0.52750  Biso   1.000  C
  C77      1.0000 0.27850  0.92220  0.02750  Biso   1.000  C
  C78      1.0000 0.72150  0.92220  0.47250  Biso   1.000  C
  C79      1.0000 0.77850  0.42220  0.02750  Biso   1.000  C
  C80      1.0000 0.22150  0.42220  0.47250  Biso   1.000  C
  C81      1.0000 0.61910  0.28770  0.59550  Biso   1.000  C
  C82      1.0000 0.38090  0.28770  0.90450  Biso   1.000  C
  C83      1.0000 0.11910  0.78770  0.59550  Biso   1.000  C
  C84      1.0000 0.88090  0.78770  0.90450  Biso   1.000  C
  C85      1.0000 0.38090  0.71230  0.40450  Biso   1.000  C
  C86      1.0000 0.61910  0.71230  0.09550  Biso   1.000  C
  C87      1.0000 0.88090  0.21230  0.40450  Biso   1.000  C
  C88      1.0000 0.11910  0.21230  0.09550  Biso   1.000  C
  C89      1.0000 0.50110  0.90902  0.47550  Biso   1.000  C
  C90      1.0000 0.49890  0.90902  0.02450  Biso   1.000  C
  C91      1.0000 0.00110  0.40902  0.47550  Biso   1.000  C
  C92      1.0000 0.99890  0.40902  0.02450  Biso   1.000  C
  C93      1.0000 0.49890  0.09098  0.52450  Biso   1.000  C
  C94      1.0000 0.50110  0.09098  0.97550  Biso   1.000  C
  C95      1.0000 0.99890  0.59098  0.52450  Biso   1.000  C
  C96      1.0000 0.00110  0.59098  0.97550  Biso   1.000  C
  H49      1.0000 0.44960  0.89960  0.40610  Biso   1.000  H
  H50      1.0000 0.55040  0.89960  0.09390  Biso   1.000  H
  H51      1.0000 0.94960  0.39960  0.40610  Biso   1.000  H
  H52      1.0000 0.05040  0.39960  0.09390  Biso   1.000  H
  H53      1.0000 0.55040  0.10040  0.59390  Biso   1.000  H
  H54      1.0000 0.44960  0.10040  0.90610  Biso   1.000  H
  H55      1.0000 0.05040  0.60040  0.59390  Biso   1.000  H
  H56      1.0000 0.94960  0.60040  0.90610  Biso   1.000  H
  C97      1.0000 0.64950  0.02940  0.88580  Biso   1.000  C
  C98      1.0000 0.35050  0.02940  0.61420  Biso   1.000  C
  C99      1.0000 0.14950  0.52940  0.88580  Biso   1.000  C
  C100     1.0000 0.85050  0.52940  0.61420  Biso   1.000  C
  C101     1.0000 0.35050  0.97060  0.11420  Biso   1.000  C
  C102     1.0000 0.64950  0.97060  0.38580  Biso   1.000  C
  C103     1.0000 0.85050  0.47060  0.11420  Biso   1.000  C
  C104     1.0000 0.14950  0.47060  0.38580  Biso   1.000  C
  C105     1.0000 0.79060  0.17630  0.97650  Biso   1.000  C
  C106     1.0000 0.20940  0.17630  0.52350  Biso   1.000  C
  C107     1.0000 0.29060  0.67630  0.97650  Biso   1.000  C
  C108     1.0000 0.70940  0.67630  0.52350  Biso   1.000  C
  C109     1.0000 0.20940  0.82370  0.02350  Biso   1.000  C
  C110     1.0000 0.79060  0.82370  0.47650  Biso   1.000  C
  C111     1.0000 0.70940  0.32370  0.02350  Biso   1.000  C
  C112     1.0000 0.29060  0.32370  0.47650  Biso   1.000  C
  C113     1.0000 0.52680  0.88590  0.57500  Biso   1.000  C
  C114     1.0000 0.47320  0.88590  0.92500  Biso   1.000  C
  C115     1.0000 0.02680  0.38590  0.57500  Biso   1.000  C
  C116     1.0000 0.97320  0.38590  0.92500  Biso   1.000  C
  C117     1.0000 0.47320  0.11410  0.42500  Biso   1.000  C
  C118     1.0000 0.52680  0.11410  0.07500  Biso   1.000  C
  C119     1.0000 0.97320  0.61410  0.42500  Biso   1.000  C
  C120     1.0000 0.02680  0.61410  0.07500  Biso   1.000  C
  H57      1.0000 0.49250  0.86070  0.57390  Biso   1.000  H
  H58      1.0000 0.50750  0.86070  0.92610  Biso   1.000  H
  H59      1.0000 0.99250  0.36070  0.57390  Biso   1.000  H
  H60      1.0000 0.00750  0.36070  0.92610  Biso   1.000  H
  H61      1.0000 0.50750  0.13930  0.42610  Biso   1.000  H
  H62      1.0000 0.49250  0.13930  0.07390  Biso   1.000  H
  H63      1.0000 0.00750  0.63930  0.42610  Biso   1.000  H
  H64      1.0000 0.99250  0.63930  0.07390  Biso   1.000  H
  C121     1.0000 0.89170  0.99750  0.95810  Biso   1.000  C
  C122     1.0000 0.10830  0.99750  0.54190  Biso   1.000  C
  C123     1.0000 0.39170  0.49750  0.95810  Biso   1.000  C
  C124     1.0000 0.60830  0.49750  0.54190  Biso   1.000  C
  C125     1.0000 0.10830  0.00250  0.04190  Biso   1.000  C
  C126     1.0000 0.89170  0.00250  0.45810  Biso   1.000  C
  C127     1.0000 0.60830  0.50250  0.04190  Biso   1.000  C
  C128     1.0000 0.39170  0.50250  0.45810  Biso   1.000  C
  H65      1.0000 0.94430  0.01190  0.01800  Biso   1.000  H
  H66      1.0000 0.05570  0.01190  0.48200  Biso   1.000  H
  H67      1.0000 0.44430  0.51190  0.01800  Biso   1.000  H
  H68      1.0000 0.55570  0.51190  0.48200  Biso   1.000  H
  H69      1.0000 0.05570  0.98810  0.98200  Biso   1.000  H
  H70      1.0000 0.94430  0.98810  0.51800  Biso   1.000  H
  H71      1.0000 0.55570  0.48810  0.98200  Biso   1.000  H
  H72      1.0000 0.44430  0.48810  0.51800  Biso   1.000  H
  C129     1.0000 0.54130  0.27020  0.39900  Biso   1.000  C
  C130     1.0000 0.45870  0.27020  0.10100  Biso   1.000  C
  C131     1.0000 0.04130  0.77020  0.39900  Biso   1.000  C
  C132     1.0000 0.95870  0.77020  0.10100  Biso   1.000  C
  C133     1.0000 0.45870  0.72980  0.60100  Biso   1.000  C
  C134     1.0000 0.54130  0.72980  0.89900  Biso   1.000  C
  C135     1.0000 0.95870  0.22980  0.60100  Biso   1.000  C
  C136     1.0000 0.04130  0.22980  0.89900  Biso   1.000  C
  H73      1.0000 0.53830  0.25540  0.34280  Biso   1.000  H
  H74      1.0000 0.46170  0.25540  0.15720  Biso   1.000  H
  H75      1.0000 0.03830  0.75540  0.34280  Biso   1.000  H
  H76      1.0000 0.96170  0.75540  0.15720  Biso   1.000  H
  H77      1.0000 0.46170  0.74460  0.65720  Biso   1.000  H
  H78      1.0000 0.53830  0.74460  0.84280  Biso   1.000  H
  H79      1.0000 0.96170  0.24460  0.65720  Biso   1.000  H
  H80      1.0000 0.03830  0.24460  0.84280  Biso   1.000  H
  C137     1.0000 0.85410  0.95630  0.97690  Biso   1.000  C
  C138     1.0000 0.14590  0.95630  0.52310  Biso   1.000  C
  C139     1.0000 0.35410  0.45630  0.97690  Biso   1.000  C
  C140     1.0000 0.64590  0.45630  0.52310  Biso   1.000  C
  C141     1.0000 0.14590  0.04370  0.02310  Biso   1.000  C
  C142     1.0000 0.85410  0.04370  0.47690  Biso   1.000  C
  C143     1.0000 0.64590  0.54370  0.02310  Biso   1.000  C
  C144     1.0000 0.35410  0.54370  0.47690  Biso   1.000  C
  H81      1.0000 0.88160  0.94220  0.05030  Biso   1.000  H
  H82      1.0000 0.11840  0.94220  0.44970  Biso   1.000  H
  H83      1.0000 0.38160  0.44220  0.05030  Biso   1.000  H
  H84      1.0000 0.61840  0.44220  0.44970  Biso   1.000  H
  H85      1.0000 0.11840  0.05780  0.94970  Biso   1.000  H
  H86      1.0000 0.88160  0.05780  0.55030  Biso   1.000  H
  H87      1.0000 0.61840  0.55780  0.94970  Biso   1.000  H
  H88      1.0000 0.38160  0.55780  0.55030  Biso   1.000  H
  C145     1.0000 0.78060  0.22960  0.91220  Biso   1.000  C
  C146     1.0000 0.21940  0.22960  0.58780  Biso   1.000  C
  C147     1.0000 0.28060  0.72960  0.91220  Biso   1.000  C
  C148     1.0000 0.71940  0.72960  0.58780  Biso   1.000  C
  C149     1.0000 0.21940  0.77040  0.08780  Biso   1.000  C
  C150     1.0000 0.78060  0.77040  0.41220  Biso   1.000  C
  C151     1.0000 0.71940  0.27040  0.08780  Biso   1.000  C
  C152     1.0000 0.28060  0.27040  0.41220  Biso   1.000  C
  C153     1.0000 0.83860  0.28110  0.96630  Biso   1.000  C
  C154     1.0000 0.16140  0.28110  0.53370  Biso   1.000  C
  C155     1.0000 0.33860  0.78110  0.96630  Biso   1.000  C
  C156     1.0000 0.66140  0.78110  0.53370  Biso   1.000  C
  C157     1.0000 0.16140  0.71890  0.03370  Biso   1.000  C
  C158     1.0000 0.83860  0.71890  0.46630  Biso   1.000  C
  C159     1.0000 0.66140  0.21890  0.03370  Biso   1.000  C
  C160     1.0000 0.33860  0.21890  0.46630  Biso   1.000  C
  C161     1.0000 0.47580  0.29890  0.36960  Biso   1.000  C
  C162     1.0000 0.52420  0.29890  0.13040  Biso   1.000  C
  C163     1.0000 0.97580  0.79890  0.36960  Biso   1.000  C
  C164     1.0000 0.02420  0.79890  0.13040  Biso   1.000  C
  C165     1.0000 0.52420  0.70110  0.63040  Biso   1.000  C
  C166     1.0000 0.47580  0.70110  0.86960  Biso   1.000  C
  C167     1.0000 0.02420  0.20110  0.63040  Biso   1.000  C
  C168     1.0000 0.97580  0.20110  0.86960  Biso   1.000  C
  H89      1.0000 0.42830  0.30370  0.29350  Biso   1.000  H
  H90      1.0000 0.57170  0.30370  0.20650  Biso   1.000  H
  H91      1.0000 0.92830  0.80370  0.29350  Biso   1.000  H
  H92      1.0000 0.07170  0.80370  0.20650  Biso   1.000  H
  H93      1.0000 0.57170  0.69630  0.70650  Biso   1.000  H
  H94      1.0000 0.42830  0.69630  0.79350  Biso   1.000  H
  H95      1.0000 0.07170  0.19630  0.70650  Biso   1.000  H
  H96      1.0000 0.92830  0.19630  0.79350  Biso   1.000  H
  C169     1.0000 0.48060  0.32080  0.45380  Biso   1.000  C
  C170     1.0000 0.51940  0.32080  0.04620  Biso   1.000  C
  C171     1.0000 0.98060  0.82080  0.45380  Biso   1.000  C
  C172     1.0000 0.01940  0.82080  0.04620  Biso   1.000  C
  C173     1.0000 0.51940  0.67920  0.54620  Biso   1.000  C
  C174     1.0000 0.48060  0.67920  0.95380  Biso   1.000  C
  C175     1.0000 0.01940  0.17920  0.54620  Biso   1.000  C
  C176     1.0000 0.98060  0.17920  0.95380  Biso   1.000  C
  H97      1.0000 0.43570  0.33850  0.43500  Biso   1.000  H
  H98      1.0000 0.56430  0.33850  0.06500  Biso   1.000  H
  H99      1.0000 0.93570  0.83850  0.43500  Biso   1.000  H
  H100     1.0000 0.06430  0.83850  0.06500  Biso   1.000  H
  H101     1.0000 0.56430  0.66150  0.56500  Biso   1.000  H
  H102     1.0000 0.43570  0.66150  0.93500  Biso   1.000  H
  H103     1.0000 0.06430  0.16150  0.56500  Biso   1.000  H
  H104     1.0000 0.93570  0.16150  0.93500  Biso   1.000  H
  C177     1.0000 0.55160  0.31610  0.56430  Biso   1.000  C
  C178     1.0000 0.44840  0.31610  0.93570  Biso   1.000  C
  C179     1.0000 0.05160  0.81610  0.56430  Biso   1.000  C
  C180     1.0000 0.94840  0.81610  0.93570  Biso   1.000  C
  C181     1.0000 0.44840  0.68390  0.43570  Biso   1.000  C
  C182     1.0000 0.55160  0.68390  0.06430  Biso   1.000  C
  C183     1.0000 0.94840  0.18390  0.43570  Biso   1.000  C
  C184     1.0000 0.05160  0.18390  0.06430  Biso   1.000  C
  H105     1.0000 0.55510  0.33230  0.62050  Biso   1.000  H
  H106     1.0000 0.44490  0.33230  0.87950  Biso   1.000  H
  H107     1.0000 0.05510  0.83230  0.62050  Biso   1.000  H
  H108     1.0000 0.94490  0.83230  0.87950  Biso   1.000  H
  H109     1.0000 0.44490  0.66770  0.37950  Biso   1.000  H
  H110     1.0000 0.55510  0.66770  0.12050  Biso   1.000  H
  H111     1.0000 0.94490  0.16770  0.37950  Biso   1.000  H
  H112     1.0000 0.05510  0.16770  0.12050  Biso   1.000  H
  C185     1.0000 0.69790  0.28930  0.71820  Biso   1.000  C
  C186     1.0000 0.30210  0.28930  0.78180  Biso   1.000  C
  C187     1.0000 0.19790  0.78930  0.71820  Biso   1.000  C
  C188     1.0000 0.80210  0.78930  0.78180  Biso   1.000  C
  C189     1.0000 0.30210  0.71070  0.28180  Biso   1.000  C
  C190     1.0000 0.69790  0.71070  0.21820  Biso   1.000  C
  C191     1.0000 0.80210  0.21070  0.28180  Biso   1.000  C
  C192     1.0000 0.19790  0.21070  0.21820  Biso   1.000  C
  H113     1.0000 0.74110  0.28830  0.72230  Biso   1.000  H
  H114     1.0000 0.25890  0.28830  0.77770  Biso   1.000  H
  H115     1.0000 0.24110  0.78830  0.72230  Biso   1.000  H
  H116     1.0000 0.75890  0.78830  0.77770  Biso   1.000  H
  H117     1.0000 0.25890  0.71170  0.27770  Biso   1.000  H
  H118     1.0000 0.74110  0.71170  0.22230  Biso   1.000  H
  H119     1.0000 0.75890  0.21170  0.27770  Biso   1.000  H
  H120     1.0000 0.24110  0.21170  0.22230  Biso   1.000  H
  H121     1.0000 0.70200  0.33220  0.75260  Biso   1.000  H
  H122     1.0000 0.29800  0.33220  0.74740  Biso   1.000  H
  H123     1.0000 0.20200  0.83220  0.75260  Biso   1.000  H
  H124     1.0000 0.79800  0.83220  0.74740  Biso   1.000  H
  H125     1.0000 0.29800  0.66780  0.24740  Biso   1.000  H
  H126     1.0000 0.70200  0.66780  0.25260  Biso   1.000  H
  H127     1.0000 0.79800  0.16780  0.24740  Biso   1.000  H
  H128     1.0000 0.20200  0.16780  0.25260  Biso   1.000  H
  C193     1.0000 0.70650  0.22940  0.78290  Biso   1.000  C
  C194     1.0000 0.29350  0.22940  0.71710  Biso   1.000  C
  C195     1.0000 0.20650  0.72940  0.78290  Biso   1.000  C
  C196     1.0000 0.79350  0.72940  0.71710  Biso   1.000  C
  C197     1.0000 0.29350  0.77060  0.21710  Biso   1.000  C
  C198     1.0000 0.70650  0.77060  0.28290  Biso   1.000  C
  C199     1.0000 0.79350  0.27060  0.21710  Biso   1.000  C
  C200     1.0000 0.20650  0.27060  0.28290  Biso   1.000  C
  H129     1.0000 0.70750  0.18710  0.75210  Biso   1.000  H
  H130     1.0000 0.29250  0.18710  0.74790  Biso   1.000  H
  H131     1.0000 0.20750  0.68710  0.75210  Biso   1.000  H
  H132     1.0000 0.79250  0.68710  0.74790  Biso   1.000  H
  H133     1.0000 0.29250  0.81290  0.24790  Biso   1.000  H
  H134     1.0000 0.70750  0.81290  0.25210  Biso   1.000  H
  H135     1.0000 0.79250  0.31290  0.24790  Biso   1.000  H
  H136     1.0000 0.20750  0.31290  0.25210  Biso   1.000  H
  H137     1.0000 0.65930  0.22750  0.76960  Biso   1.000  H
  H138     1.0000 0.34070  0.22750  0.73040  Biso   1.000  H
  H139     1.0000 0.15930  0.72750  0.76960  Biso   1.000  H
  H140     1.0000 0.84070  0.72750  0.73040  Biso   1.000  H
  H141     1.0000 0.34070  0.77250  0.23040  Biso   1.000  H
  H142     1.0000 0.65930  0.77250  0.26960  Biso   1.000  H
  H143     1.0000 0.84070  0.27250  0.23040  Biso   1.000  H
  H144     1.0000 0.15930  0.27250  0.26960  Biso   1.000  H
  C201     1.0000 0.90310  0.24610  0.15250  Biso   1.000  C
  C202     1.0000 0.09690  0.24610  0.34750  Biso   1.000  C
  C203     1.0000 0.40310  0.74610  0.15250  Biso   1.000  C
  C204     1.0000 0.59690  0.74610  0.34750  Biso   1.000  C
  C205     1.0000 0.09690  0.75390  0.84750  Biso   1.000  C
  C206     1.0000 0.90310  0.75390  0.65250  Biso   1.000  C
  C207     1.0000 0.59690  0.25390  0.84750  Biso   1.000  C
  C208     1.0000 0.40310  0.25390  0.65250  Biso   1.000  C
  H145     1.0000 0.93830  0.25420  0.23010  Biso   1.000  H
  H146     1.0000 0.06170  0.25420  0.26990  Biso   1.000  H
  H147     1.0000 0.43830  0.75420  0.23010  Biso   1.000  H
  H148     1.0000 0.56170  0.75420  0.26990  Biso   1.000  H
  H149     1.0000 0.06170  0.74580  0.76990  Biso   1.000  H
  H150     1.0000 0.93830  0.74580  0.73010  Biso   1.000  H
  H151     1.0000 0.56170  0.24580  0.76990  Biso   1.000  H
  H152     1.0000 0.43830  0.24580  0.73010  Biso   1.000  H
  C209     1.0000 0.85000  0.18970  0.10150  Biso   1.000  C
  C210     1.0000 0.15000  0.18970  0.39850  Biso   1.000  C
  C211     1.0000 0.35000  0.68970  0.10150  Biso   1.000  C
  C212     1.0000 0.65000  0.68970  0.39850  Biso   1.000  C
  C213     1.0000 0.15000  0.81030  0.89850  Biso   1.000  C
  C214     1.0000 0.85000  0.81030  0.60150  Biso   1.000  C
  C215     1.0000 0.65000  0.31030  0.89850  Biso   1.000  C
  C216     1.0000 0.35000  0.31030  0.60150  Biso   1.000  C
  H153     1.0000 0.85180  0.15950  0.14710  Biso   1.000  H
  H154     1.0000 0.14820  0.15950  0.35290  Biso   1.000  H
  H155     1.0000 0.35180  0.65950  0.14710  Biso   1.000  H
  H156     1.0000 0.64820  0.65950  0.35290  Biso   1.000  H
  H157     1.0000 0.14820  0.84050  0.85290  Biso   1.000  H
  H158     1.0000 0.85180  0.84050  0.64710  Biso   1.000  H
  H159     1.0000 0.64820  0.34050  0.85290  Biso   1.000  H
  H160     1.0000 0.35180  0.34050  0.64710  Biso   1.000  H
  C217     1.0000 0.90190  0.29220  0.08000  Biso   1.000  C
  C218     1.0000 0.09810  0.29220  0.42000  Biso   1.000  C
  C219     1.0000 0.40190  0.79220  0.08000  Biso   1.000  C
  C220     1.0000 0.59810  0.79220  0.42000  Biso   1.000  C
  C221     1.0000 0.09810  0.70780  0.92000  Biso   1.000  C
  C222     1.0000 0.90190  0.70780  0.58000  Biso   1.000  C
  C223     1.0000 0.59810  0.20780  0.92000  Biso   1.000  C
  C224     1.0000 0.40190  0.20780  0.58000  Biso   1.000  C
  H161     1.0000 0.94070  0.32590  0.10950  Biso   1.000  H
  H162     1.0000 0.05930  0.32590  0.39050  Biso   1.000  H
  H163     1.0000 0.44070  0.82590  0.10950  Biso   1.000  H
  H164     1.0000 0.55930  0.82590  0.39050  Biso   1.000  H
  H165     1.0000 0.05930  0.67410  0.89050  Biso   1.000  H
  H166     1.0000 0.94070  0.67410  0.60950  Biso   1.000  H
  H167     1.0000 0.55930  0.17410  0.89050  Biso   1.000  H
  H168     1.0000 0.44070  0.17410  0.60950  Biso   1.000  H
  H169     1.0000 0.82800  0.31350  0.92100  Biso   1.000  H
  H170     1.0000 0.17200  0.31350  0.57900  Biso   1.000  H
  H171     1.0000 0.32800  0.81350  0.92100  Biso   1.000  H
  H172     1.0000 0.67200  0.81350  0.57900  Biso   1.000  H
  H173     1.0000 0.17200  0.68650  0.07900  Biso   1.000  H
  H174     1.0000 0.82800  0.68650  0.42100  Biso   1.000  H
  H175     1.0000 0.67200  0.18650  0.07900  Biso   1.000  H
  H176     1.0000 0.32800  0.18650  0.42100  Biso   1.000  H
  O49      1.0000 0.50000  0.89180  0.75000  Biso   1.000  O
  O50      1.0000 0.00000  0.39180  0.75000  Biso   1.000  O
  O51      1.0000 0.50000  0.10820  0.25000  Biso   1.000  O
  O52      1.0000 0.00000  0.60820  0.25000  Biso   1.000  O
  O53      1.0000 0.94160  0.99140  0.75810  Biso   1.000  O
  O54      1.0000 0.05840  0.99140  0.74190  Biso   1.000  O
  O55      1.0000 0.44160  0.49140  0.75810  Biso   1.000  O
  O56      1.0000 0.55840  0.49140  0.74190  Biso   1.000  O
  O57      1.0000 0.05840  0.00860  0.24190  Biso   1.000  O
  O58      1.0000 0.94160  0.00860  0.25810  Biso   1.000  O
  O59      1.0000 0.55840  0.50860  0.24190  Biso   1.000  O
  O60      1.0000 0.44160  0.50860  0.25810  Biso   1.000  O
  C225     1.0000 0.92470  0.18360  0.10140  Biso   1.000  C
  C226     1.0000 0.07530  0.18360  0.39860  Biso   1.000  C
  C227     1.0000 0.42470  0.68360  0.10140  Biso   1.000  C
  C228     1.0000 0.57530  0.68360  0.39860  Biso   1.000  C
  C229     1.0000 0.07530  0.81640  0.89860  Biso   1.000  C
  C230     1.0000 0.92470  0.81640  0.60140  Biso   1.000  C
  C231     1.0000 0.57530  0.31640  0.89860  Biso   1.000  C
  C232     1.0000 0.42470  0.31640  0.60140  Biso   1.000  C
  H177     1.0000 0.97600  0.16760  0.16400  Biso   1.000  H
  H178     1.0000 0.02400  0.16760  0.33600  Biso   1.000  H
  H179     1.0000 0.47600  0.66760  0.16400  Biso   1.000  H
  H180     1.0000 0.52400  0.66760  0.33600  Biso   1.000  H
  H181     1.0000 0.02400  0.83240  0.83600  Biso   1.000  H
  H182     1.0000 0.97600  0.83240  0.66400  Biso   1.000  H
  H183     1.0000 0.52400  0.33240  0.83600  Biso   1.000  H
  H184     1.0000 0.47600  0.33240  0.66400  Biso   1.000  H
  C233     1.0000 0.86170  0.13970  0.04900  Biso   1.000  C
  C234     1.0000 0.13830  0.13970  0.45100  Biso   1.000  C
  C235     1.0000 0.36170  0.63970  0.04900  Biso   1.000  C
  C236     1.0000 0.63830  0.63970  0.45100  Biso   1.000  C
  C237     1.0000 0.13830  0.86030  0.95100  Biso   1.000  C
  C238     1.0000 0.86170  0.86030  0.54900  Biso   1.000  C
  C239     1.0000 0.63830  0.36030  0.95100  Biso   1.000  C
  C240     1.0000 0.36170  0.36030  0.54900  Biso   1.000  C
  H185     1.0000 0.86590  0.09200  0.06090  Biso   1.000  H
  H186     1.0000 0.13410  0.09200  0.43910  Biso   1.000  H
  H187     1.0000 0.36590  0.59200  0.06090  Biso   1.000  H
  H188     1.0000 0.63410  0.59200  0.43910  Biso   1.000  H
  H189     1.0000 0.13410  0.90800  0.93910  Biso   1.000  H
  H190     1.0000 0.86590  0.90800  0.56090  Biso   1.000  H
  H191     1.0000 0.63410  0.40800  0.93910  Biso   1.000  H
  H192     1.0000 0.36590  0.40800  0.56090  Biso   1.000  H
  C241     1.0000 0.91550  0.25150  0.06500  Biso   1.000  C
  C242     1.0000 0.08450  0.25150  0.43500  Biso   1.000  C
  C243     1.0000 0.41550  0.75150  0.06500  Biso   1.000  C
  C244     1.0000 0.58450  0.75150  0.43500  Biso   1.000  C
  C245     1.0000 0.08450  0.74850  0.93500  Biso   1.000  C
  C246     1.0000 0.91550  0.74850  0.56500  Biso   1.000  C
  C247     1.0000 0.58450  0.24850  0.93500  Biso   1.000  C
  C248     1.0000 0.41550  0.24850  0.56500  Biso   1.000  C
  H193     1.0000 0.96070  0.27920  0.10520  Biso   1.000  H
  H194     1.0000 0.03930  0.27920  0.39480  Biso   1.000  H
  H195     1.0000 0.46070  0.77920  0.10520  Biso   1.000  H
  H196     1.0000 0.53930  0.77920  0.39480  Biso   1.000  H
  H197     1.0000 0.03930  0.72080  0.89480  Biso   1.000  H
  H198     1.0000 0.96070  0.72080  0.60520  Biso   1.000  H
  H199     1.0000 0.53930  0.22080  0.89480  Biso   1.000  H
  H200     1.0000 0.46070  0.22080  0.60520  Biso   1.000  H
  O61      1.0000 0.95550  0.05310  0.75780  Biso   1.000  O
  O62      1.0000 0.04450  0.05310  0.74220  Biso   1.000  O
  O63      1.0000 0.45550  0.55310  0.75780  Biso   1.000  O
  O64      1.0000 0.54450  0.55310  0.74220  Biso   1.000  O
  O65      1.0000 0.04450  0.94690  0.24220  Biso   1.000  O
  O66      1.0000 0.95550  0.94690  0.25780  Biso   1.000  O
  O67      1.0000 0.54450  0.44690  0.24220  Biso   1.000  O
  O68      1.0000 0.45550  0.44690  0.25780  Biso   1.000  O
  C249     1.0000 0.85730  0.16720  0.08100  Biso   1.000  C
  C250     1.0000 0.14270  0.16720  0.41900  Biso   1.000  C
  C251     1.0000 0.35730  0.66720  0.08100  Biso   1.000  C
  C252     1.0000 0.64270  0.66720  0.41900  Biso   1.000  C
  C253     1.0000 0.14270  0.83280  0.91900  Biso   1.000  C
  C254     1.0000 0.85730  0.83280  0.58100  Biso   1.000  C
  C255     1.0000 0.64270  0.33280  0.91900  Biso   1.000  C
  C256     1.0000 0.35730  0.33280  0.58100  Biso   1.000  C
  H201     1.0000 0.86820  0.12710  0.12140  Biso   1.000  H
  H202     1.0000 0.13180  0.12710  0.37860  Biso   1.000  H
  H203     1.0000 0.36820  0.62710  0.12140  Biso   1.000  H
  H204     1.0000 0.63180  0.62710  0.37860  Biso   1.000  H
  H205     1.0000 0.13180  0.87290  0.87860  Biso   1.000  H
  H206     1.0000 0.86820  0.87290  0.62140  Biso   1.000  H
  H207     1.0000 0.63180  0.37290  0.87860  Biso   1.000  H
  H208     1.0000 0.36820  0.37290  0.62140  Biso   1.000  H
  C257     1.0000 0.90770  0.21770  0.12600  Biso   1.000  C
  C258     1.0000 0.09230  0.21770  0.37400  Biso   1.000  C
  C259     1.0000 0.40770  0.71770  0.12600  Biso   1.000  C
  C260     1.0000 0.59230  0.71770  0.37400  Biso   1.000  C
  C261     1.0000 0.09230  0.78230  0.87400  Biso   1.000  C
  C262     1.0000 0.90770  0.78230  0.62600  Biso   1.000  C
  C263     1.0000 0.59230  0.28230  0.87400  Biso   1.000  C
  C264     1.0000 0.40770  0.28230  0.62600  Biso   1.000  C
  H209     1.0000 0.95800  0.21050  0.19880  Biso   1.000  H
  H210     1.0000 0.04200  0.21050  0.30120  Biso   1.000  H
  H211     1.0000 0.45800  0.71050  0.19880  Biso   1.000  H
  H212     1.0000 0.54200  0.71050  0.30120  Biso   1.000  H
  H213     1.0000 0.04200  0.78950  0.80120  Biso   1.000  H
  H214     1.0000 0.95800  0.78950  0.69880  Biso   1.000  H
  H215     1.0000 0.54200  0.28950  0.80120  Biso   1.000  H
  H216     1.0000 0.45800  0.28950  0.69880  Biso   1.000  H
  C265     1.0000 0.89500  0.27400  0.08300  Biso   1.000  C
  C266     1.0000 0.10500  0.27400  0.41700  Biso   1.000  C
  C267     1.0000 0.39500  0.77400  0.08300  Biso   1.000  C
  C268     1.0000 0.60500  0.77400  0.41700  Biso   1.000  C
  C269     1.0000 0.10500  0.72600  0.91700  Biso   1.000  C
  C270     1.0000 0.89500  0.72600  0.58300  Biso   1.000  C
  C271     1.0000 0.60500  0.22600  0.91700  Biso   1.000  C
  C272     1.0000 0.39500  0.22600  0.58300  Biso   1.000  C
  H217     1.0000 0.92490  0.31260  0.12820  Biso   1.000  H
  H218     1.0000 0.07510  0.31260  0.37180  Biso   1.000  H
  H219     1.0000 0.42490  0.81260  0.12820  Biso   1.000  H
  H220     1.0000 0.57510  0.81260  0.37180  Biso   1.000  H
  H221     1.0000 0.07510  0.68740  0.87180  Biso   1.000  H
  H222     1.0000 0.92490  0.68740  0.62820  Biso   1.000  H
  H223     1.0000 0.57510  0.18740  0.87180  Biso   1.000  H
  H224     1.0000 0.42490  0.18740  0.62820  Biso   1.000  H
