data_image0
_cell_length_a       9.0555
_cell_length_b       8.3909
_cell_length_c       6.6969
_cell_angle_alpha    90
_cell_angle_beta     109.428
_cell_angle_gamma    90

_symmetry_space_group_name_H-M    "P 1"
_symmetry_int_tables_number       1

loop_
  _symmetry_equiv_pos_as_xyz
  'x, y, z'

loop_
  _atom_site_label
  _atom_site_occupancy
  _atom_site_fract_x
  _atom_site_fract_y
  _atom_site_fract_z
  _atom_site_thermal_displace_type
  _atom_site_B_iso_or_equiv
  _atom_site_type_symbol
  Cu1      1.0000 0.50000  0.00000  0.50000  Biso   1.000  Cu
  Cu2      1.0000 0.00000  0.50000  0.50000  Biso   1.000  Cu
  Br1      1.0000 0.50000  0.71645  0.50000  Biso   1.000  Br
  Br2      1.0000 0.00000  0.21645  0.50000  Biso   1.000  Br
  Br3      1.0000 0.50000  0.28355  0.50000  Biso   1.000  Br
  Br4      1.0000 0.00000  0.78355  0.50000  Biso   1.000  Br
  N1       1.0000 0.49600  0.00000  0.20240  Biso   1.000  N
  N2       1.0000 0.50400  0.00000  0.79760  Biso   1.000  N
  N3       1.0000 0.99600  0.50000  0.20240  Biso   1.000  N
  N4       1.0000 0.00400  0.50000  0.79760  Biso   1.000  N
  C1       1.0000 0.63070  0.00000  0.16480  Biso   1.000  C
  C2       1.0000 0.36930  0.00000  0.83520  Biso   1.000  C
  C3       1.0000 0.13070  0.50000  0.16480  Biso   1.000  C
  C4       1.0000 0.86930  0.50000  0.83520  Biso   1.000  C
  H1       1.0000 0.72350  0.00000  0.27920  Biso   1.000  H
  H2       1.0000 0.27650  0.00000  0.72080  Biso   1.000  H
  H3       1.0000 0.22350  0.50000  0.27920  Biso   1.000  H
  H4       1.0000 0.77650  0.50000  0.72080  Biso   1.000  H
  C5       1.0000 0.36120  0.00000  0.03930  Biso   1.000  C
  C6       1.0000 0.63880  0.00000  0.96070  Biso   1.000  C
  C7       1.0000 0.86120  0.50000  0.03930  Biso   1.000  C
  C8       1.0000 0.13880  0.50000  0.96070  Biso   1.000  C
  C9       1.0000 0.20930  0.00000  0.07950  Biso   1.000  C
  C10      1.0000 0.79070  0.00000  0.92050  Biso   1.000  C
  C11      1.0000 0.70930  0.50000  0.07950  Biso   1.000  C
  C12      1.0000 0.29070  0.50000  0.92050  Biso   1.000  C
  H5       1.0000 0.12480  0.00000  0.94700  Biso   1.000  H
  H6       1.0000 0.87520  0.00000  0.05300  Biso   1.000  H
  H7       1.0000 0.62480  0.50000  0.94700  Biso   1.000  H
  H8       1.0000 0.37520  0.50000  0.05300  Biso   1.000  H
  H9       1.0000 0.20250  0.09340  0.15880  Biso   1.000  H
  H10      1.0000 0.79750  0.09340  0.84120  Biso   1.000  H
  H11      1.0000 0.70250  0.59340  0.15880  Biso   1.000  H
  H12      1.0000 0.29750  0.59340  0.84120  Biso   1.000  H
  H13      1.0000 0.79750  0.90660  0.84120  Biso   1.000  H
  H14      1.0000 0.20250  0.90660  0.15880  Biso   1.000  H
  H15      1.0000 0.29750  0.40660  0.84120  Biso   1.000  H
  H16      1.0000 0.70250  0.40660  0.15880  Biso   1.000  H
