data_image0
_cell_length_a       21.291
_cell_length_b       10.161
_cell_length_c       15.215
_cell_angle_alpha    90
_cell_angle_beta     120.542
_cell_angle_gamma    90

_symmetry_space_group_name_H-M    "P 1"
_symmetry_int_tables_number       1

loop_
  _symmetry_equiv_pos_as_xyz
  'x, y, z'

loop_
  _atom_site_label
  _atom_site_occupancy
  _atom_site_fract_x
  _atom_site_fract_y
  _atom_site_fract_z
  _atom_site_thermal_displace_type
  _atom_site_B_iso_or_equiv
  _atom_site_type_symbol
  Cu1      1.0000 0.68344  0.56409  0.02155  Biso   1.000  Cu
  Cu2      1.0000 0.31656  0.56409  0.47845  Biso   1.000  Cu
  Cu3      1.0000 0.18344  0.06409  0.02155  Biso   1.000  Cu
  Cu4      1.0000 0.81656  0.06409  0.47845  Biso   1.000  Cu
  Cu5      1.0000 0.31656  0.43591  0.97845  Biso   1.000  Cu
  Cu6      1.0000 0.68344  0.43591  0.52155  Biso   1.000  Cu
  Cu7      1.0000 0.81656  0.93591  0.97845  Biso   1.000  Cu
  Cu8      1.0000 0.18344  0.93591  0.52155  Biso   1.000  Cu
  C1       1.0000 0.65490  0.37520  0.15860  Biso   1.000  C
  C2       1.0000 0.34510  0.37520  0.34140  Biso   1.000  C
  C3       1.0000 0.15490  0.87520  0.15860  Biso   1.000  C
  C4       1.0000 0.84510  0.87520  0.34140  Biso   1.000  C
  C5       1.0000 0.34510  0.62480  0.84140  Biso   1.000  C
  C6       1.0000 0.65490  0.62480  0.65860  Biso   1.000  C
  C7       1.0000 0.84510  0.12480  0.84140  Biso   1.000  C
  C8       1.0000 0.15490  0.12480  0.65860  Biso   1.000  C
  C9       1.0000 0.66450  0.41280  0.32270  Biso   1.000  C
  C10      1.0000 0.33550  0.41280  0.17730  Biso   1.000  C
  C11      1.0000 0.16450  0.91280  0.32270  Biso   1.000  C
  C12      1.0000 0.83550  0.91280  0.17730  Biso   1.000  C
  C13      1.0000 0.33550  0.58720  0.67730  Biso   1.000  C
  C14      1.0000 0.66450  0.58720  0.82270  Biso   1.000  C
  C15      1.0000 0.83550  0.08720  0.67730  Biso   1.000  C
  C16      1.0000 0.16450  0.08720  0.82270  Biso   1.000  C
  C17      1.0000 0.71370  0.31290  0.36280  Biso   1.000  C
  C18      1.0000 0.28630  0.31290  0.13720  Biso   1.000  C
  C19      1.0000 0.21370  0.81290  0.36280  Biso   1.000  C
  C20      1.0000 0.78630  0.81290  0.13720  Biso   1.000  C
  C21      1.0000 0.28630  0.68710  0.63720  Biso   1.000  C
  C22      1.0000 0.71370  0.68710  0.86280  Biso   1.000  C
  C23      1.0000 0.78630  0.18710  0.63720  Biso   1.000  C
  C24      1.0000 0.21370  0.18710  0.86280  Biso   1.000  C
  C25      1.0000 0.73010  0.23360  0.30210  Biso   1.000  C
  C26      1.0000 0.26990  0.23360  0.19790  Biso   1.000  C
  C27      1.0000 0.23010  0.73360  0.30210  Biso   1.000  C
  C28      1.0000 0.76990  0.73360  0.19790  Biso   1.000  C
  C29      1.0000 0.26990  0.76640  0.69790  Biso   1.000  C
  C30      1.0000 0.73010  0.76640  0.80210  Biso   1.000  C
  C31      1.0000 0.76990  0.26640  0.69790  Biso   1.000  C
  C32      1.0000 0.23010  0.26640  0.80210  Biso   1.000  C
  C33      1.0000 0.71950  0.18840  0.13760  Biso   1.000  C
  C34      1.0000 0.28050  0.18840  0.36240  Biso   1.000  C
  C35      1.0000 0.21950  0.68840  0.13760  Biso   1.000  C
  C36      1.0000 0.78050  0.68840  0.36240  Biso   1.000  C
  C37      1.0000 0.28050  0.81160  0.86240  Biso   1.000  C
  C38      1.0000 0.71950  0.81160  0.63760  Biso   1.000  C
  C39      1.0000 0.78050  0.31160  0.86240  Biso   1.000  C
  C40      1.0000 0.21950  0.31160  0.63760  Biso   1.000  C
  H1       1.0000 0.75200  0.11900  0.17800  Biso   1.000  H
  H2       1.0000 0.24800  0.11900  0.32200  Biso   1.000  H
  H3       1.0000 0.25200  0.61900  0.17800  Biso   1.000  H
  H4       1.0000 0.74800  0.61900  0.32200  Biso   1.000  H
  H5       1.0000 0.24800  0.88100  0.82200  Biso   1.000  H
  H6       1.0000 0.75200  0.88100  0.67800  Biso   1.000  H
  H7       1.0000 0.74800  0.38100  0.82200  Biso   1.000  H
  H8       1.0000 0.25200  0.38100  0.67800  Biso   1.000  H
  H9       1.0000 0.74270  0.24230  0.11050  Biso   1.000  H
  H10      1.0000 0.25730  0.24230  0.38950  Biso   1.000  H
  H11      1.0000 0.24270  0.74230  0.11050  Biso   1.000  H
  H12      1.0000 0.75730  0.74230  0.38950  Biso   1.000  H
  H13      1.0000 0.25730  0.75770  0.88950  Biso   1.000  H
  H14      1.0000 0.74270  0.75770  0.61050  Biso   1.000  H
  H15      1.0000 0.75730  0.25770  0.88950  Biso   1.000  H
  H16      1.0000 0.24270  0.25770  0.61050  Biso   1.000  H
  H17      1.0000 0.67570  0.15100  0.08240  Biso   1.000  H
  H18      1.0000 0.32430  0.15100  0.41760  Biso   1.000  H
  H19      1.0000 0.17570  0.65100  0.08240  Biso   1.000  H
  H20      1.0000 0.82430  0.65100  0.41760  Biso   1.000  H
  H21      1.0000 0.32430  0.84900  0.91760  Biso   1.000  H
  H22      1.0000 0.67570  0.84900  0.58240  Biso   1.000  H
  H23      1.0000 0.82430  0.34900  0.91760  Biso   1.000  H
  H24      1.0000 0.17570  0.34900  0.58240  Biso   1.000  H
  C41      1.0000 0.57900  0.54580  0.16960  Biso   1.000  C
  C42      1.0000 0.42100  0.54580  0.33040  Biso   1.000  C
  C43      1.0000 0.07900  0.04580  0.16960  Biso   1.000  C
  C44      1.0000 0.92100  0.04580  0.33040  Biso   1.000  C
  C45      1.0000 0.42100  0.45420  0.83040  Biso   1.000  C
  C46      1.0000 0.57900  0.45420  0.66960  Biso   1.000  C
  C47      1.0000 0.92100  0.95420  0.83040  Biso   1.000  C
  C48      1.0000 0.07900  0.95420  0.66960  Biso   1.000  C
  H25      1.0000 0.56530  0.55200  0.09910  Biso   1.000  H
  H26      1.0000 0.43470  0.55200  0.40090  Biso   1.000  H
  H27      1.0000 0.06530  0.05200  0.09910  Biso   1.000  H
  H28      1.0000 0.93470  0.05200  0.40090  Biso   1.000  H
  H29      1.0000 0.43470  0.44800  0.90090  Biso   1.000  H
  H30      1.0000 0.56530  0.44800  0.59910  Biso   1.000  H
  H31      1.0000 0.93470  0.94800  0.90090  Biso   1.000  H
  H32      1.0000 0.06530  0.94800  0.59910  Biso   1.000  H
  H33      1.0000 0.59830  0.62880  0.20260  Biso   1.000  H
  H34      1.0000 0.40170  0.62880  0.29740  Biso   1.000  H
  H35      1.0000 0.09830  0.12880  0.20260  Biso   1.000  H
  H36      1.0000 0.90170  0.12880  0.29740  Biso   1.000  H
  H37      1.0000 0.40170  0.37120  0.79740  Biso   1.000  H
  H38      1.0000 0.59830  0.37120  0.70260  Biso   1.000  H
  H39      1.0000 0.90170  0.87120  0.79740  Biso   1.000  H
  H40      1.0000 0.09830  0.87120  0.70260  Biso   1.000  H
  H41      1.0000 0.53690  0.52400  0.17420  Biso   1.000  H
  H42      1.0000 0.46310  0.52400  0.32580  Biso   1.000  H
  H43      1.0000 0.03690  0.02400  0.17420  Biso   1.000  H
  H44      1.0000 0.96310  0.02400  0.32580  Biso   1.000  H
  H45      1.0000 0.46310  0.47600  0.82580  Biso   1.000  H
  H46      1.0000 0.53690  0.47600  0.67420  Biso   1.000  H
  H47      1.0000 0.96310  0.97600  0.82580  Biso   1.000  H
  H48      1.0000 0.03690  0.97600  0.67420  Biso   1.000  H
  C49      1.0000 0.75890  0.28920  0.47770  Biso   1.000  C
  C50      1.0000 0.24110  0.28920  0.02230  Biso   1.000  C
  C51      1.0000 0.25890  0.78920  0.47770  Biso   1.000  C
  C52      1.0000 0.74110  0.78920  0.02230  Biso   1.000  C
  C53      1.0000 0.24110  0.71080  0.52230  Biso   1.000  C
  C54      1.0000 0.75890  0.71080  0.97770  Biso   1.000  C
  C55      1.0000 0.74110  0.21080  0.52230  Biso   1.000  C
  C56      1.0000 0.25890  0.21080  0.97770  Biso   1.000  C
  C57      1.0000 0.83270  0.36370  0.53810  Biso   1.000  C
  C58      1.0000 0.16730  0.36370  0.96190  Biso   1.000  C
  C59      1.0000 0.33270  0.86370  0.53810  Biso   1.000  C
  C60      1.0000 0.66730  0.86370  0.96190  Biso   1.000  C
  C61      1.0000 0.16730  0.63630  0.46190  Biso   1.000  C
  C62      1.0000 0.83270  0.63630  0.03810  Biso   1.000  C
  C63      1.0000 0.66730  0.13630  0.46190  Biso   1.000  C
  C64      1.0000 0.33270  0.13630  0.03810  Biso   1.000  C
  C65      1.0000 0.82940  0.49240  0.56780  Biso   1.000  C
  C66      1.0000 0.17060  0.49240  0.93220  Biso   1.000  C
  C67      1.0000 0.32940  0.99240  0.56780  Biso   1.000  C
  C68      1.0000 0.67060  0.99240  0.93220  Biso   1.000  C
  C69      1.0000 0.17060  0.50760  0.43220  Biso   1.000  C
  C70      1.0000 0.82940  0.50760  0.06780  Biso   1.000  C
  C71      1.0000 0.67060  0.00760  0.43220  Biso   1.000  C
  C72      1.0000 0.32940  0.00760  0.06780  Biso   1.000  C
  C73      1.0000 0.95690  0.51700  0.61330  Biso   1.000  C
  C74      1.0000 0.04310  0.51700  0.88670  Biso   1.000  C
  C75      1.0000 0.45690  0.01700  0.61330  Biso   1.000  C
  C76      1.0000 0.54310  0.01700  0.88670  Biso   1.000  C
  C77      1.0000 0.04310  0.48300  0.38670  Biso   1.000  C
  C78      1.0000 0.95690  0.48300  0.11330  Biso   1.000  C
  C79      1.0000 0.54310  0.98300  0.38670  Biso   1.000  C
  C80      1.0000 0.45690  0.98300  0.11330  Biso   1.000  C
  C81      1.0000 0.89500  0.30840  0.54830  Biso   1.000  C
  C82      1.0000 0.10500  0.30840  0.95170  Biso   1.000  C
  C83      1.0000 0.39500  0.80840  0.54830  Biso   1.000  C
  C84      1.0000 0.60500  0.80840  0.95170  Biso   1.000  C
  C85      1.0000 0.10500  0.69160  0.45170  Biso   1.000  C
  C86      1.0000 0.89500  0.69160  0.04830  Biso   1.000  C
  C87      1.0000 0.60500  0.19160  0.45170  Biso   1.000  C
  C88      1.0000 0.39500  0.19160  0.04830  Biso   1.000  C
  C89      1.0000 0.02290  0.33200  0.60260  Biso   1.000  C
  C90      1.0000 0.97710  0.33200  0.89740  Biso   1.000  C
  C91      1.0000 0.52290  0.83200  0.60260  Biso   1.000  C
  C92      1.0000 0.47710  0.83200  0.89740  Biso   1.000  C
  C93      1.0000 0.97710  0.66800  0.39740  Biso   1.000  C
  C94      1.0000 0.02290  0.66800  0.10260  Biso   1.000  C
  C95      1.0000 0.47710  0.16800  0.39740  Biso   1.000  C
  C96      1.0000 0.52290  0.16800  0.10260  Biso   1.000  C
  H49      1.0000 0.01540  0.24180  0.58090  Biso   1.000  H
  H50      1.0000 0.98460  0.24180  0.91910  Biso   1.000  H
  H51      1.0000 0.51540  0.74180  0.58090  Biso   1.000  H
  H52      1.0000 0.48460  0.74180  0.91910  Biso   1.000  H
  H53      1.0000 0.98460  0.75820  0.41910  Biso   1.000  H
  H54      1.0000 0.01540  0.75820  0.08090  Biso   1.000  H
  H55      1.0000 0.48460  0.25820  0.41910  Biso   1.000  H
  H56      1.0000 0.51540  0.25820  0.08090  Biso   1.000  H
  H57      1.0000 0.05900  0.33650  0.67390  Biso   1.000  H
  H58      1.0000 0.94100  0.33650  0.82610  Biso   1.000  H
  H59      1.0000 0.55900  0.83650  0.67390  Biso   1.000  H
  H60      1.0000 0.44100  0.83650  0.82610  Biso   1.000  H
  H61      1.0000 0.94100  0.66350  0.32610  Biso   1.000  H
  H62      1.0000 0.05900  0.66350  0.17390  Biso   1.000  H
  H63      1.0000 0.44100  0.16350  0.32610  Biso   1.000  H
  H64      1.0000 0.55900  0.16350  0.17390  Biso   1.000  H
  H65      1.0000 0.03940  0.38090  0.56420  Biso   1.000  H
  H66      1.0000 0.96060  0.38090  0.93580  Biso   1.000  H
  H67      1.0000 0.53940  0.88090  0.56420  Biso   1.000  H
  H68      1.0000 0.46060  0.88090  0.93580  Biso   1.000  H
  H69      1.0000 0.96060  0.61910  0.43580  Biso   1.000  H
  H70      1.0000 0.03940  0.61910  0.06420  Biso   1.000  H
  H71      1.0000 0.46060  0.11910  0.43580  Biso   1.000  H
  H72      1.0000 0.53940  0.11910  0.06420  Biso   1.000  H
  C97      1.0000 0.89300  0.70400  0.63300  Biso   1.000  C
  C98      1.0000 0.10700  0.70400  0.86700  Biso   1.000  C
  C99      1.0000 0.39300  0.20400  0.63300  Biso   1.000  C
  C100     1.0000 0.60700  0.20400  0.86700  Biso   1.000  C
  C101     1.0000 0.10700  0.29600  0.36700  Biso   1.000  C
  C102     1.0000 0.89300  0.29600  0.13300  Biso   1.000  C
  C103     1.0000 0.60700  0.79600  0.36700  Biso   1.000  C
  C104     1.0000 0.39300  0.79600  0.13300  Biso   1.000  C
  H73      1.0000 0.84600  0.72700  0.62280  Biso   1.000  H
  H74      1.0000 0.15400  0.72700  0.87720  Biso   1.000  H
  H75      1.0000 0.34600  0.22700  0.62280  Biso   1.000  H
  H76      1.0000 0.65400  0.22700  0.87720  Biso   1.000  H
  H77      1.0000 0.15400  0.27300  0.37720  Biso   1.000  H
  H78      1.0000 0.84600  0.27300  0.12280  Biso   1.000  H
  H79      1.0000 0.65400  0.77300  0.37720  Biso   1.000  H
  H80      1.0000 0.34600  0.77300  0.12280  Biso   1.000  H
  H81      1.0000 0.90400  0.75960  0.59160  Biso   1.000  H
  H82      1.0000 0.09600  0.75960  0.90840  Biso   1.000  H
  H83      1.0000 0.40400  0.25960  0.59160  Biso   1.000  H
  H84      1.0000 0.59600  0.25960  0.90840  Biso   1.000  H
  H85      1.0000 0.09600  0.24040  0.40840  Biso   1.000  H
  H86      1.0000 0.90400  0.24040  0.09160  Biso   1.000  H
  H87      1.0000 0.59600  0.74040  0.40840  Biso   1.000  H
  H88      1.0000 0.40400  0.74040  0.09160  Biso   1.000  H
  H89      1.0000 0.92930  0.71580  0.70360  Biso   1.000  H
  H90      1.0000 0.07070  0.71580  0.79640  Biso   1.000  H
  H91      1.0000 0.42930  0.21580  0.70360  Biso   1.000  H
  H92      1.0000 0.57070  0.21580  0.79640  Biso   1.000  H
  H93      1.0000 0.07070  0.28420  0.29640  Biso   1.000  H
  H94      1.0000 0.92930  0.28420  0.20360  Biso   1.000  H
  H95      1.0000 0.57070  0.78420  0.29640  Biso   1.000  H
  H96      1.0000 0.42930  0.78420  0.20360  Biso   1.000  H
  N1       1.0000 0.63500  0.44230  0.22020  Biso   1.000  N
  N2       1.0000 0.36500  0.44230  0.27980  Biso   1.000  N
  N3       1.0000 0.13500  0.94230  0.22020  Biso   1.000  N
  N4       1.0000 0.86500  0.94230  0.27980  Biso   1.000  N
  N5       1.0000 0.36500  0.55770  0.77980  Biso   1.000  N
  N6       1.0000 0.63500  0.55770  0.72020  Biso   1.000  N
  N7       1.0000 0.86500  0.05770  0.77980  Biso   1.000  N
  N8       1.0000 0.13500  0.05770  0.72020  Biso   1.000  N
  N9       1.0000 0.70120  0.26880  0.20120  Biso   1.000  N
  N10      1.0000 0.29880  0.26880  0.29880  Biso   1.000  N
  N11      1.0000 0.20120  0.76880  0.20120  Biso   1.000  N
  N12      1.0000 0.79880  0.76880  0.29880  Biso   1.000  N
  N13      1.0000 0.29880  0.73120  0.79880  Biso   1.000  N
  N14      1.0000 0.70120  0.73120  0.70120  Biso   1.000  N
  N15      1.0000 0.79880  0.23120  0.79880  Biso   1.000  N
  N16      1.0000 0.20120  0.23120  0.70120  Biso   1.000  N
  N17      1.0000 0.95470  0.38780  0.58590  Biso   1.000  N
  N18      1.0000 0.04530  0.38780  0.91410  Biso   1.000  N
  N19      1.0000 0.45470  0.88780  0.58590  Biso   1.000  N
  N20      1.0000 0.54530  0.88780  0.91410  Biso   1.000  N
  N21      1.0000 0.04530  0.61220  0.41410  Biso   1.000  N
  N22      1.0000 0.95470  0.61220  0.08590  Biso   1.000  N
  N23      1.0000 0.54530  0.11220  0.41410  Biso   1.000  N
  N24      1.0000 0.45470  0.11220  0.08590  Biso   1.000  N
  N25      1.0000 0.89230  0.56620  0.60420  Biso   1.000  N
  N26      1.0000 0.10770  0.56620  0.89580  Biso   1.000  N
  N27      1.0000 0.39230  0.06620  0.60420  Biso   1.000  N
  N28      1.0000 0.60770  0.06620  0.89580  Biso   1.000  N
  N29      1.0000 0.10770  0.43380  0.39580  Biso   1.000  N
  N30      1.0000 0.89230  0.43380  0.10420  Biso   1.000  N
  N31      1.0000 0.60770  0.93380  0.39580  Biso   1.000  N
  N32      1.0000 0.39230  0.93380  0.10420  Biso   1.000  N
  O1       1.0000 0.63110  0.40900  0.06850  Biso   1.000  O
  O2       1.0000 0.36890  0.40900  0.43150  Biso   1.000  O
  O3       1.0000 0.13110  0.90900  0.06850  Biso   1.000  O
  O4       1.0000 0.86890  0.90900  0.43150  Biso   1.000  O
  O5       1.0000 0.36890  0.59100  0.93150  Biso   1.000  O
  O6       1.0000 0.63110  0.59100  0.56850  Biso   1.000  O
  O7       1.0000 0.86890  0.09100  0.93150  Biso   1.000  O
  O8       1.0000 0.13110  0.09100  0.56850  Biso   1.000  O
  O9       1.0000 0.77180  0.13140  0.33320  Biso   1.000  O
  O10      1.0000 0.22820  0.13140  0.16680  Biso   1.000  O
  O11      1.0000 0.27180  0.63140  0.33320  Biso   1.000  O
  O12      1.0000 0.72820  0.63140  0.16680  Biso   1.000  O
  O13      1.0000 0.22820  0.86860  0.66680  Biso   1.000  O
  O14      1.0000 0.77180  0.86860  0.83320  Biso   1.000  O
  O15      1.0000 0.72820  0.36860  0.66680  Biso   1.000  O
  O16      1.0000 0.27180  0.36860  0.83320  Biso   1.000  O
  O17      1.0000 0.64540  0.48380  0.37500  Biso   1.000  O
  O18      1.0000 0.35460  0.48380  0.12500  Biso   1.000  O
  O19      1.0000 0.14540  0.98380  0.37500  Biso   1.000  O
  O20      1.0000 0.85460  0.98380  0.12500  Biso   1.000  O
  O21      1.0000 0.35460  0.51620  0.62500  Biso   1.000  O
  O22      1.0000 0.64540  0.51620  0.87500  Biso   1.000  O
  O23      1.0000 0.85460  0.01620  0.62500  Biso   1.000  O
  O24      1.0000 0.14540  0.01620  0.87500  Biso   1.000  O
  O25      1.0000 0.89980  0.18840  0.52540  Biso   1.000  O
  O26      1.0000 0.10020  0.18840  0.97460  Biso   1.000  O
  O27      1.0000 0.39980  0.68840  0.52540  Biso   1.000  O
  O28      1.0000 0.60020  0.68840  0.97460  Biso   1.000  O
  O29      1.0000 0.10020  0.81160  0.47460  Biso   1.000  O
  O30      1.0000 0.89980  0.81160  0.02540  Biso   1.000  O
  O31      1.0000 0.60020  0.31160  0.47460  Biso   1.000  O
  O32      1.0000 0.39980  0.31160  0.02540  Biso   1.000  O
  O33      1.0000 0.00980  0.58760  0.64310  Biso   1.000  O
  O34      1.0000 0.99020  0.58760  0.85690  Biso   1.000  O
  O35      1.0000 0.50980  0.08760  0.64310  Biso   1.000  O
  O36      1.0000 0.49020  0.08760  0.85690  Biso   1.000  O
  O37      1.0000 0.99020  0.41240  0.35690  Biso   1.000  O
  O38      1.0000 0.00980  0.41240  0.14310  Biso   1.000  O
  O39      1.0000 0.49020  0.91240  0.35690  Biso   1.000  O
  O40      1.0000 0.50980  0.91240  0.14310  Biso   1.000  O
  O41      1.0000 0.77430  0.54620  0.56350  Biso   1.000  O
  O42      1.0000 0.22570  0.54620  0.93650  Biso   1.000  O
  O43      1.0000 0.27430  0.04620  0.56350  Biso   1.000  O
  O44      1.0000 0.72570  0.04620  0.93650  Biso   1.000  O
  O45      1.0000 0.22570  0.45380  0.43650  Biso   1.000  O
  O46      1.0000 0.77430  0.45380  0.06350  Biso   1.000  O
  O47      1.0000 0.72570  0.95380  0.43650  Biso   1.000  O
  O48      1.0000 0.27430  0.95380  0.06350  Biso   1.000  O
  O49      1.0000 0.15490  0.57500  0.68470  Biso   1.000  O
  O50      1.0000 0.84510  0.57500  0.81530  Biso   1.000  O
  O51      1.0000 0.65490  0.07500  0.68470  Biso   1.000  O
  O52      1.0000 0.34510  0.07500  0.81530  Biso   1.000  O
  O53      1.0000 0.84510  0.42500  0.31530  Biso   1.000  O
  O54      1.0000 0.15490  0.42500  0.18470  Biso   1.000  O
  O55      1.0000 0.34510  0.92500  0.31530  Biso   1.000  O
  O56      1.0000 0.65490  0.92500  0.18470  Biso   1.000  O
