data_image0
_cell_length_a       9.646
_cell_length_b       14.264
_cell_length_c       14.724
_cell_angle_alpha    90
_cell_angle_beta     90
_cell_angle_gamma    90

_symmetry_space_group_name_H-M    "P 1"
_symmetry_int_tables_number       1

loop_
  _symmetry_equiv_pos_as_xyz
  'x, y, z'

loop_
  _atom_site_label
  _atom_site_occupancy
  _atom_site_fract_x
  _atom_site_fract_y
  _atom_site_fract_z
  _atom_site_thermal_displace_type
  _atom_site_B_iso_or_equiv
  _atom_site_type_symbol
  Cu1      1.0000 0.55442  0.75572  0.58131  Biso   1.000  Cu
  Cu2      1.0000 0.05442  0.74428  0.41869  Biso   1.000  Cu
  Cu3      1.0000 0.44558  0.25572  0.91869  Biso   1.000  Cu
  Cu4      1.0000 0.94558  0.24428  0.08131  Biso   1.000  Cu
  Cu5      1.0000 0.47493  0.47701  0.36185  Biso   1.000  Cu
  Cu6      1.0000 0.97493  0.02299  0.63815  Biso   1.000  Cu
  Cu7      1.0000 0.52507  0.97701  0.13815  Biso   1.000  Cu
  Cu8      1.0000 0.02507  0.52299  0.86185  Biso   1.000  Cu
  S1       1.0000 0.52240  0.57236  0.52743  Biso   1.000  S
  S2       1.0000 0.02240  0.92764  0.47257  Biso   1.000  S
  S3       1.0000 0.47760  0.07236  0.97257  Biso   1.000  S
  S4       1.0000 0.97760  0.42764  0.02743  Biso   1.000  S
  O1       1.0000 0.73210  0.74740  0.51250  Biso   1.000  O
  O2       1.0000 0.23210  0.75260  0.48750  Biso   1.000  O
  O3       1.0000 0.26790  0.24740  0.98750  Biso   1.000  O
  O4       1.0000 0.76790  0.25260  0.01250  Biso   1.000  O
  O5       1.0000 0.95590  0.70850  0.53020  Biso   1.000  O
  O6       1.0000 0.45590  0.79150  0.46980  Biso   1.000  O
  O7       1.0000 0.04410  0.20850  0.96980  Biso   1.000  O
  O8       1.0000 0.54410  0.29150  0.03020  Biso   1.000  O
  O9       1.0000 0.41410  0.76900  0.67410  Biso   1.000  O
  O10      1.0000 0.91410  0.73100  0.32590  Biso   1.000  O
  O11      1.0000 0.58590  0.26900  0.82590  Biso   1.000  O
  O12      1.0000 0.08590  0.23100  0.17410  Biso   1.000  O
  O13      1.0000 0.40060  0.80080  0.82230  Biso   1.000  O
  O14      1.0000 0.90060  0.69920  0.17770  Biso   1.000  O
  O15      1.0000 0.59940  0.30080  0.67770  Biso   1.000  O
  O16      1.0000 0.09940  0.19920  0.32230  Biso   1.000  O
  O17      1.0000 0.32170  0.56580  0.35900  Biso   1.000  O
  O18      1.0000 0.82170  0.93420  0.64100  Biso   1.000  O
  O19      1.0000 0.67830  0.06580  0.14100  Biso   1.000  O
  O20      1.0000 0.17830  0.43420  0.85900  Biso   1.000  O
  O21      1.0000 0.09490  0.57150  0.37950  Biso   1.000  O
  O22      1.0000 0.59490  0.92850  0.62050  Biso   1.000  O
  O23      1.0000 0.90510  0.07150  0.12050  Biso   1.000  O
  O24      1.0000 0.40510  0.42850  0.87950  Biso   1.000  O
  O25      1.0000 0.60400  0.37360  0.37560  Biso   1.000  O
  O26      1.0000 0.10400  0.12640  0.62440  Biso   1.000  O
  O27      1.0000 0.39600  0.87360  0.12440  Biso   1.000  O
  O28      1.0000 0.89600  0.62640  0.87560  Biso   1.000  O
  O29      1.0000 0.60080  0.21880  0.39490  Biso   1.000  O
  O30      1.0000 0.10080  0.28120  0.60510  Biso   1.000  O
  O31      1.0000 0.39920  0.71880  0.10510  Biso   1.000  O
  O32      1.0000 0.89920  0.78120  0.89490  Biso   1.000  O
  O33      1.0000 0.60520  0.55000  0.28650  Biso   1.000  O
  O34      1.0000 0.10520  0.95000  0.71350  Biso   1.000  O
  O35      1.0000 0.39480  0.05000  0.21350  Biso   1.000  O
  O36      1.0000 0.89480  0.45000  0.78650  Biso   1.000  O
  O37      1.0000 0.37480  0.41830  0.22250  Biso   1.000  O
  O38      1.0000 0.87480  0.08170  0.77750  Biso   1.000  O
  O39      1.0000 0.62520  0.91830  0.27750  Biso   1.000  O
  O40      1.0000 0.12520  0.58170  0.72250  Biso   1.000  O
  O41      1.0000 0.64130  0.72860  0.32690  Biso   1.000  O
  O42      1.0000 0.14130  0.77140  0.67310  Biso   1.000  O
  O43      1.0000 0.35870  0.22860  0.17310  Biso   1.000  O
  O44      1.0000 0.85870  0.27140  0.82690  Biso   1.000  O
  O45      1.0000 0.86200  0.47410  0.44690  Biso   1.000  O
  O46      1.0000 0.36200  0.02590  0.55310  Biso   1.000  O
  O47      1.0000 0.13800  0.97410  0.05310  Biso   1.000  O
  O48      1.0000 0.63800  0.52590  0.94690  Biso   1.000  O
  O49      1.0000 0.48740  0.04880  0.38700  Biso   1.000  O
  O50      1.0000 0.98740  0.45120  0.61300  Biso   1.000  O
  O51      1.0000 0.51260  0.54880  0.11300  Biso   1.000  O
  O52      1.0000 0.01260  0.95120  0.88700  Biso   1.000  O
  N1       1.0000 0.66590  0.70050  0.68390  Biso   1.000  N
  N2       1.0000 0.16590  0.79950  0.31610  Biso   1.000  N
  N3       1.0000 0.33410  0.20050  0.81610  Biso   1.000  N
  N4       1.0000 0.83410  0.29950  0.18390  Biso   1.000  N
  N5       1.0000 0.34800  0.39790  0.43690  Biso   1.000  N
  N6       1.0000 0.84800  0.10210  0.56310  Biso   1.000  N
  N7       1.0000 0.65200  0.89790  0.06310  Biso   1.000  N
  N8       1.0000 0.15200  0.60210  0.93690  Biso   1.000  N
  C1       1.0000 0.81510  0.71270  0.66140  Biso   1.000  C
  C2       1.0000 0.31510  0.78730  0.33860  Biso   1.000  C
  C3       1.0000 0.18490  0.21270  0.83860  Biso   1.000  C
  C4       1.0000 0.68490  0.28730  0.16140  Biso   1.000  C
  C5       1.0000 0.83460  0.72220  0.55890  Biso   1.000  C
  C6       1.0000 0.33460  0.77780  0.44110  Biso   1.000  C
  C7       1.0000 0.16540  0.22220  0.94110  Biso   1.000  C
  C8       1.0000 0.66540  0.27780  0.05890  Biso   1.000  C
  C9       1.0000 0.62020  0.75660  0.76390  Biso   1.000  C
  C10      1.0000 0.12020  0.74340  0.23610  Biso   1.000  C
  C11      1.0000 0.37980  0.25660  0.73610  Biso   1.000  C
  C12      1.0000 0.87980  0.24340  0.26390  Biso   1.000  C
  C13      1.0000 0.46610  0.77810  0.75570  Biso   1.000  C
  C14      1.0000 0.96610  0.72190  0.24430  Biso   1.000  C
  C15      1.0000 0.53390  0.27810  0.74430  Biso   1.000  C
  C16      1.0000 0.03390  0.22190  0.25570  Biso   1.000  C
  C17      1.0000 0.63230  0.60050  0.69990  Biso   1.000  C
  C18      1.0000 0.13230  0.89950  0.30010  Biso   1.000  C
  C19      1.0000 0.36770  0.10050  0.80010  Biso   1.000  C
  C20      1.0000 0.86770  0.39950  0.19990  Biso   1.000  C
  C21      1.0000 0.64510  0.54040  0.61520  Biso   1.000  C
  C22      1.0000 0.14510  0.95960  0.38480  Biso   1.000  C
  C23      1.0000 0.35490  0.04040  0.88480  Biso   1.000  C
  C24      1.0000 0.85490  0.45960  0.11520  Biso   1.000  C
  C25      1.0000 0.36680  0.41130  0.53670  Biso   1.000  C
  C26      1.0000 0.86680  0.08870  0.46330  Biso   1.000  C
  C27      1.0000 0.63320  0.91130  0.96330  Biso   1.000  C
  C28      1.0000 0.13320  0.58870  0.03670  Biso   1.000  C
  C29      1.0000 0.36880  0.51110  0.56750  Biso   1.000  C
  C30      1.0000 0.86880  0.98890  0.43250  Biso   1.000  C
  C31      1.0000 0.63120  0.01110  0.93250  Biso   1.000  C
  C32      1.0000 0.13120  0.48890  0.06750  Biso   1.000  C
  C33      1.0000 0.20700  0.42550  0.40780  Biso   1.000  C
  C34      1.0000 0.70700  0.07450  0.59220  Biso   1.000  C
  C35      1.0000 0.79300  0.92550  0.09220  Biso   1.000  C
  C36      1.0000 0.29300  0.57450  0.90780  Biso   1.000  C
  C37      1.0000 0.20580  0.52950  0.38050  Biso   1.000  C
  C38      1.0000 0.70580  0.97050  0.61950  Biso   1.000  C
  C39      1.0000 0.79420  0.02950  0.11950  Biso   1.000  C
  C40      1.0000 0.29420  0.47050  0.88050  Biso   1.000  C
  C41      1.0000 0.38730  0.30030  0.41250  Biso   1.000  C
  C42      1.0000 0.88730  0.19970  0.58750  Biso   1.000  C
  C43      1.0000 0.61270  0.80030  0.08750  Biso   1.000  C
  C44      1.0000 0.11270  0.69970  0.91250  Biso   1.000  C
  C45      1.0000 0.54470  0.29500  0.39360  Biso   1.000  C
  C46      1.0000 0.04470  0.20500  0.60640  Biso   1.000  C
  C47      1.0000 0.45530  0.79500  0.10640  Biso   1.000  C
  C48      1.0000 0.95530  0.70500  0.89360  Biso   1.000  C
  H1       1.0000 0.86700  0.65840  0.68330  Biso   1.000  H
  H2       1.0000 0.36700  0.84160  0.31670  Biso   1.000  H
  H3       1.0000 0.13300  0.15840  0.81670  Biso   1.000  H
  H4       1.0000 0.63300  0.34160  0.18330  Biso   1.000  H
  H5       1.0000 0.84940  0.76960  0.69140  Biso   1.000  H
  H6       1.0000 0.34940  0.73040  0.30860  Biso   1.000  H
  H7       1.0000 0.15060  0.26960  0.80860  Biso   1.000  H
  H8       1.0000 0.65060  0.23040  0.19140  Biso   1.000  H
  H9       1.0000 0.67390  0.81510  0.76570  Biso   1.000  H
  H10      1.0000 0.17390  0.68490  0.23430  Biso   1.000  H
  H11      1.0000 0.32610  0.31510  0.73430  Biso   1.000  H
  H12      1.0000 0.82610  0.18490  0.26570  Biso   1.000  H
  H13      1.0000 0.63800  0.72070  0.81950  Biso   1.000  H
  H14      1.0000 0.13800  0.77930  0.18050  Biso   1.000  H
  H15      1.0000 0.36200  0.22070  0.68050  Biso   1.000  H
  H16      1.0000 0.86200  0.27930  0.31950  Biso   1.000  H
  H17      1.0000 0.53580  0.59620  0.72180  Biso   1.000  H
  H18      1.0000 0.03580  0.90380  0.27820  Biso   1.000  H
  H19      1.0000 0.46420  0.09620  0.77820  Biso   1.000  H
  H20      1.0000 0.96420  0.40380  0.22180  Biso   1.000  H
  H21      1.0000 0.69450  0.57500  0.74580  Biso   1.000  H
  H22      1.0000 0.19450  0.92500  0.25420  Biso   1.000  H
  H23      1.0000 0.30550  0.07500  0.75420  Biso   1.000  H
  H24      1.0000 0.80550  0.42500  0.24580  Biso   1.000  H
  H25      1.0000 0.73800  0.54740  0.59100  Biso   1.000  H
  H26      1.0000 0.23800  0.95260  0.40900  Biso   1.000  H
  H27      1.0000 0.26200  0.04740  0.90900  Biso   1.000  H
  H28      1.0000 0.76200  0.45260  0.09100  Biso   1.000  H
  H29      1.0000 0.62760  0.47500  0.63190  Biso   1.000  H
  H30      1.0000 0.12760  0.02500  0.36810  Biso   1.000  H
  H31      1.0000 0.37240  0.97500  0.86810  Biso   1.000  H
  H32      1.0000 0.87240  0.52500  0.13190  Biso   1.000  H
  H33      1.0000 0.45510  0.38290  0.55460  Biso   1.000  H
  H34      1.0000 0.95510  0.11710  0.44540  Biso   1.000  H
  H35      1.0000 0.54490  0.88290  0.94540  Biso   1.000  H
  H36      1.0000 0.04490  0.61710  0.05460  Biso   1.000  H
  H37      1.0000 0.29060  0.38000  0.56840  Biso   1.000  H
  H38      1.0000 0.79060  0.12000  0.43160  Biso   1.000  H
  H39      1.0000 0.70940  0.88000  0.93160  Biso   1.000  H
  H40      1.0000 0.20940  0.62000  0.06840  Biso   1.000  H
  H41      1.0000 0.28650  0.54280  0.54370  Biso   1.000  H
  H42      1.0000 0.78650  0.95720  0.45630  Biso   1.000  H
  H43      1.0000 0.71350  0.04280  0.95630  Biso   1.000  H
  H44      1.0000 0.21350  0.45720  0.04370  Biso   1.000  H
  H45      1.0000 0.36760  0.51270  0.63390  Biso   1.000  H
  H46      1.0000 0.86760  0.98730  0.36610  Biso   1.000  H
  H47      1.0000 0.63240  0.01270  0.86610  Biso   1.000  H
  H48      1.0000 0.13240  0.48730  0.13390  Biso   1.000  H
  H49      1.0000 0.14280  0.41620  0.45860  Biso   1.000  H
  H50      1.0000 0.64280  0.08380  0.54140  Biso   1.000  H
  H51      1.0000 0.85720  0.91620  0.04140  Biso   1.000  H
  H52      1.0000 0.35720  0.58380  0.95860  Biso   1.000  H
  H53      1.0000 0.17930  0.38770  0.35620  Biso   1.000  H
  H54      1.0000 0.67930  0.11230  0.64380  Biso   1.000  H
  H55      1.0000 0.82070  0.88770  0.14380  Biso   1.000  H
  H56      1.0000 0.32070  0.61230  0.85620  Biso   1.000  H
  H57      1.0000 0.33550  0.28210  0.35760  Biso   1.000  H
  H58      1.0000 0.83550  0.21790  0.64240  Biso   1.000  H
  H59      1.0000 0.66450  0.78210  0.14240  Biso   1.000  H
  H60      1.0000 0.16450  0.71790  0.85760  Biso   1.000  H
  H61      1.0000 0.36230  0.25850  0.46240  Biso   1.000  H
  H62      1.0000 0.86230  0.24150  0.53760  Biso   1.000  H
  H63      1.0000 0.63770  0.75850  0.03760  Biso   1.000  H
  H64      1.0000 0.13770  0.74150  0.96240  Biso   1.000  H
  H65      1.0000 0.58400  0.54100  0.23050  Biso   1.000  H
  H66      1.0000 0.08400  0.95900  0.76950  Biso   1.000  H
  H67      1.0000 0.41600  0.04100  0.26950  Biso   1.000  H
  H68      1.0000 0.91600  0.45900  0.73050  Biso   1.000  H
  H69      1.0000 0.58400  0.60350  0.29300  Biso   1.000  H
  H70      1.0000 0.08400  0.89650  0.70700  Biso   1.000  H
  H71      1.0000 0.41600  0.10350  0.20700  Biso   1.000  H
  H72      1.0000 0.91600  0.39650  0.79300  Biso   1.000  H
  H73      1.0000 0.35940  0.35350  0.20700  Biso   1.000  H
  H74      1.0000 0.85940  0.14650  0.79300  Biso   1.000  H
  H75      1.0000 0.64060  0.85350  0.29300  Biso   1.000  H
  H76      1.0000 0.14060  0.64650  0.70700  Biso   1.000  H
  H77      1.0000 0.44340  0.45700  0.18750  Biso   1.000  H
  H78      1.0000 0.94340  0.04300  0.81250  Biso   1.000  H
  H79      1.0000 0.55660  0.95700  0.31250  Biso   1.000  H
  H80      1.0000 0.05660  0.54300  0.68750  Biso   1.000  H
  H81      1.0000 0.94340  0.50000  0.41600  Biso   1.000  H
  H82      1.0000 0.44340  0.00000  0.58400  Biso   1.000  H
  H83      1.0000 0.05660  0.00000  0.08400  Biso   1.000  H
  H84      1.0000 0.55660  0.50000  0.91600  Biso   1.000  H
  H85      1.0000 0.80660  0.47850  0.43750  Biso   1.000  H
  H86      1.0000 0.30660  0.02150  0.56250  Biso   1.000  H
  H87      1.0000 0.19340  0.97850  0.06250  Biso   1.000  H
  H88      1.0000 0.69340  0.52150  0.93750  Biso   1.000  H
  H89      1.0000 0.50000  0.10350  0.39450  Biso   1.000  H
  H90      1.0000 0.00000  0.39650  0.60550  Biso   1.000  H
  H91      1.0000 0.50000  0.60350  0.10550  Biso   1.000  H
  H92      1.0000 0.00000  0.89650  0.89450  Biso   1.000  H
  H93      1.0000 0.44340  0.04100  0.43750  Biso   1.000  H
  H94      1.0000 0.94340  0.45900  0.56250  Biso   1.000  H
  H95      1.0000 0.55660  0.54100  0.06250  Biso   1.000  H
  H96      1.0000 0.05660  0.95900  0.93750  Biso   1.000  H
