data_image0
_cell_length_a       9.5561
_cell_length_b       7.8403
_cell_length_c       17.2085
_cell_angle_alpha    90
_cell_angle_beta     114.871
_cell_angle_gamma    90

_symmetry_space_group_name_H-M    "P 1"
_symmetry_int_tables_number       1

loop_
  _symmetry_equiv_pos_as_xyz
  'x, y, z'

loop_
  _atom_site_label
  _atom_site_occupancy
  _atom_site_fract_x
  _atom_site_fract_y
  _atom_site_fract_z
  _atom_site_thermal_displace_type
  _atom_site_B_iso_or_equiv
  _atom_site_type_symbol
  C1       1.0000 0.27530  0.67980  0.15470  Biso   1.000  C
  C2       1.0000 0.72470  0.17980  0.34530  Biso   1.000  C
  C3       1.0000 0.72470  0.32020  0.84530  Biso   1.000  C
  C4       1.0000 0.27530  0.82020  0.65470  Biso   1.000  C
  H1       1.0000 0.26020  0.58550  0.18690  Biso   1.000  H
  H2       1.0000 0.73980  0.08550  0.31310  Biso   1.000  H
  H3       1.0000 0.73980  0.41450  0.81310  Biso   1.000  H
  H4       1.0000 0.26020  0.91450  0.68690  Biso   1.000  H
  H5       1.0000 0.33410  0.76820  0.19450  Biso   1.000  H
  H6       1.0000 0.66590  0.26820  0.30550  Biso   1.000  H
  H7       1.0000 0.66590  0.23180  0.80550  Biso   1.000  H
  H8       1.0000 0.33410  0.73180  0.69450  Biso   1.000  H
  C5       1.0000 0.35800  0.62020  0.10050  Biso   1.000  C
  C6       1.0000 0.64200  0.12020  0.39950  Biso   1.000  C
  C7       1.0000 0.64200  0.37980  0.89950  Biso   1.000  C
  C8       1.0000 0.35800  0.87980  0.60050  Biso   1.000  C
  H9       1.0000 0.44150  0.69690  0.10620  Biso   1.000  H
  H10      1.0000 0.55850  0.19690  0.39380  Biso   1.000  H
  H11      1.0000 0.55850  0.30310  0.89380  Biso   1.000  H
  H12      1.0000 0.44150  0.80310  0.60620  Biso   1.000  H
  H13      1.0000 0.39890  0.50580  0.11630  Biso   1.000  H
  H14      1.0000 0.60110  0.00580  0.38370  Biso   1.000  H
  H15      1.0000 0.60110  0.49420  0.88370  Biso   1.000  H
  H16      1.0000 0.39890  0.99420  0.61630  Biso   1.000  H
  C9       1.0000 0.11720  0.70690  0.01780  Biso   1.000  C
  C10      1.0000 0.88280  0.20690  0.48220  Biso   1.000  C
  C11      1.0000 0.88280  0.29310  0.98220  Biso   1.000  C
  C12      1.0000 0.11720  0.79310  0.51780  Biso   1.000  C
  C13      1.0000 0.81210  0.80720  0.93870  Biso   1.000  C
  C14      1.0000 0.18790  0.30720  0.56130  Biso   1.000  C
  C15      1.0000 0.18790  0.19280  0.06130  Biso   1.000  C
  C16      1.0000 0.81210  0.69280  0.43870  Biso   1.000  C
  C17      1.0000 0.56240  0.88220  0.89600  Biso   1.000  C
  C18      1.0000 0.43760  0.38220  0.60400  Biso   1.000  C
  C19      1.0000 0.43760  0.11780  0.10400  Biso   1.000  C
  C20      1.0000 0.56240  0.61780  0.39600  Biso   1.000  C
  H17      1.0000 0.47240  0.80890  0.87620  Biso   1.000  H
  H18      1.0000 0.52760  0.30890  0.62380  Biso   1.000  H
  H19      1.0000 0.52760  0.19110  0.12380  Biso   1.000  H
  H20      1.0000 0.47240  0.69110  0.37620  Biso   1.000  H
  H21      1.0000 0.53110  0.99720  0.87510  Biso   1.000  H
  H22      1.0000 0.46890  0.49720  0.62490  Biso   1.000  H
  H23      1.0000 0.46890  0.00280  0.12490  Biso   1.000  H
  H24      1.0000 0.53110  0.50280  0.37510  Biso   1.000  H
  C21      1.0000 0.64960  0.87850  0.99410  Biso   1.000  C
  C22      1.0000 0.35040  0.37850  0.50590  Biso   1.000  C
  C23      1.0000 0.35040  0.12150  0.00590  Biso   1.000  C
  C24      1.0000 0.64960  0.62150  0.49410  Biso   1.000  C
  H25      1.0000 0.64080  0.98720  0.01850  Biso   1.000  H
  H26      1.0000 0.35920  0.48720  0.48150  Biso   1.000  H
  H27      1.0000 0.35920  0.01280  0.98150  Biso   1.000  H
  H28      1.0000 0.64080  0.51280  0.51850  Biso   1.000  H
  H29      1.0000 0.60910  0.78970  0.01820  Biso   1.000  H
  H30      1.0000 0.39090  0.28970  0.48180  Biso   1.000  H
  H31      1.0000 0.39090  0.21030  0.98180  Biso   1.000  H
  H32      1.0000 0.60910  0.71030  0.51820  Biso   1.000  H
  Cu1      1.0000 0.97887  0.85354  0.12781  Biso   1.000  Cu
  Cu2      1.0000 0.02113  0.35354  0.37219  Biso   1.000  Cu
  Cu3      1.0000 0.02113  0.14646  0.87219  Biso   1.000  Cu
  Cu4      1.0000 0.97887  0.64646  0.62781  Biso   1.000  Cu
  N1       1.0000 0.12450  0.74740  0.09180  Biso   1.000  N
  N2       1.0000 0.87550  0.24740  0.40820  Biso   1.000  N
  N3       1.0000 0.87550  0.25260  0.90820  Biso   1.000  N
  N4       1.0000 0.12450  0.75260  0.59180  Biso   1.000  N
  N5       1.0000 0.23940  0.62390  0.01610  Biso   1.000  N
  N6       1.0000 0.76060  0.12390  0.48390  Biso   1.000  N
  N7       1.0000 0.76060  0.37610  0.98390  Biso   1.000  N
  N8       1.0000 0.23940  0.87610  0.51610  Biso   1.000  N
  H33      1.0000 0.24440  0.58100  0.97140  Biso   1.000  H
  H34      1.0000 0.75560  0.08100  0.52860  Biso   1.000  H
  H35      1.0000 0.75560  0.41900  0.02860  Biso   1.000  H
  H36      1.0000 0.24440  0.91900  0.47140  Biso   1.000  H
  N9       1.0000 0.67880  0.81770  0.87000  Biso   1.000  N
  N10      1.0000 0.32120  0.31770  0.63000  Biso   1.000  N
  N11      1.0000 0.32120  0.18230  0.13000  Biso   1.000  N
  N12      1.0000 0.67880  0.68230  0.37000  Biso   1.000  N
  H37      1.0000 0.66380  0.79140  0.81860  Biso   1.000  H
  H38      1.0000 0.33620  0.29140  0.68140  Biso   1.000  H
  H39      1.0000 0.33620  0.20860  0.18140  Biso   1.000  H
  H40      1.0000 0.66380  0.70860  0.31860  Biso   1.000  H
  N13      1.0000 0.81110  0.84320  0.01110  Biso   1.000  N
  N14      1.0000 0.18890  0.34320  0.48890  Biso   1.000  N
  N15      1.0000 0.18890  0.15680  0.98890  Biso   1.000  N
  N16      1.0000 0.81110  0.65680  0.51110  Biso   1.000  N
  O1       1.0000 0.15970  0.92650  0.23260  Biso   1.000  O
  O2       1.0000 0.84030  0.42650  0.26740  Biso   1.000  O
  O3       1.0000 0.84030  0.07350  0.76740  Biso   1.000  O
  O4       1.0000 0.15970  0.57350  0.73260  Biso   1.000  O
  O5       1.0000 0.30780  0.96720  0.38210  Biso   1.000  O
  O6       1.0000 0.69220  0.46720  0.11790  Biso   1.000  O
  O7       1.0000 0.69220  0.03280  0.61790  Biso   1.000  O
  O8       1.0000 0.30780  0.53280  0.88210  Biso   1.000  O
  O9       1.0000 0.06230  0.10500  0.31190  Biso   1.000  O
  O10      1.0000 0.93770  0.60500  0.18810  Biso   1.000  O
  O11      1.0000 0.93770  0.89500  0.68810  Biso   1.000  O
  O12      1.0000 0.06230  0.39500  0.81190  Biso   1.000  O
  O13      1.0000 0.27650  0.19640  0.28430  Biso   1.000  O
  O14      1.0000 0.72350  0.69640  0.21570  Biso   1.000  O
  O15      1.0000 0.72350  0.80360  0.71570  Biso   1.000  O
  O16      1.0000 0.27650  0.30360  0.78430  Biso   1.000  O
  O17      1.0000 0.84010  0.97210  0.17090  Biso   1.000  O
  O18      1.0000 0.15990  0.47210  0.32910  Biso   1.000  O
  O19      1.0000 0.15990  0.02790  0.82910  Biso   1.000  O
  O20      1.0000 0.84010  0.52790  0.67090  Biso   1.000  O
  H41      1.0000 0.78920  0.90110  0.18290  Biso   1.000  H
  H42      1.0000 0.21080  0.40110  0.31710  Biso   1.000  H
  H43      1.0000 0.21080  0.09890  0.81710  Biso   1.000  H
  H44      1.0000 0.78920  0.59890  0.68290  Biso   1.000  H
  H45      1.0000 0.89910  0.04590  0.21900  Biso   1.000  H
  H46      1.0000 0.10090  0.54590  0.28100  Biso   1.000  H
  H47      1.0000 0.10090  0.95410  0.78100  Biso   1.000  H
  H48      1.0000 0.89910  0.45410  0.71900  Biso   1.000  H
  S1       1.0000 0.96804  0.74650  0.91644  Biso   1.000  S
  S2       1.0000 0.03196  0.24650  0.58356  Biso   1.000  S
  S3       1.0000 0.03196  0.25350  0.08356  Biso   1.000  S
  S4       1.0000 0.96804  0.75350  0.41644  Biso   1.000  S
  S5       1.0000 0.20266  0.04806  0.30383  Biso   1.000  S
  S6       1.0000 0.79734  0.54806  0.19617  Biso   1.000  S
  S7       1.0000 0.79734  0.95194  0.69617  Biso   1.000  S
  S8       1.0000 0.20266  0.45194  0.80383  Biso   1.000  S
