data_image0
_cell_length_a       9.561
_cell_length_b       7.851
_cell_length_c       15.768
_cell_angle_alpha    90
_cell_angle_beta     98.49
_cell_angle_gamma    90

_symmetry_space_group_name_H-M    "P 1"
_symmetry_int_tables_number       1

loop_
  _symmetry_equiv_pos_as_xyz
  'x, y, z'

loop_
  _atom_site_label
  _atom_site_occupancy
  _atom_site_fract_x
  _atom_site_fract_y
  _atom_site_fract_z
  _atom_site_thermal_displace_type
  _atom_site_B_iso_or_equiv
  _atom_site_type_symbol
  C1       1.0000 0.34550  0.88000  0.49330  Biso   1.000  C
  C2       1.0000 0.15450  0.38000  0.00670  Biso   1.000  C
  C3       1.0000 0.65450  0.12000  0.50670  Biso   1.000  C
  C4       1.0000 0.84550  0.62000  0.99330  Biso   1.000  C
  C5       1.0000 0.33400  0.88110  0.39490  Biso   1.000  C
  C6       1.0000 0.16600  0.38110  0.10510  Biso   1.000  C
  C7       1.0000 0.66600  0.11890  0.60510  Biso   1.000  C
  C8       1.0000 0.83400  0.61890  0.89490  Biso   1.000  C
  C9       1.0000 0.12580  0.80800  0.43820  Biso   1.000  C
  C10      1.0000 0.37420  0.30800  0.06180  Biso   1.000  C
  C11      1.0000 0.87420  0.19200  0.56180  Biso   1.000  C
  C12      1.0000 0.62580  0.69200  0.93820  Biso   1.000  C
  C13      1.0000 0.89980  0.70490  0.51750  Biso   1.000  C
  C14      1.0000 0.60020  0.20490  0.98250  Biso   1.000  C
  C15      1.0000 0.10020  0.29510  0.48250  Biso   1.000  C
  C16      1.0000 0.39980  0.79510  0.01750  Biso   1.000  C
  C17      1.0000 0.74220  0.61800  0.60200  Biso   1.000  C
  C18      1.0000 0.75780  0.11800  0.89800  Biso   1.000  C
  C19      1.0000 0.25780  0.38200  0.39800  Biso   1.000  C
  C20      1.0000 0.24220  0.88200  0.10200  Biso   1.000  C
  C21      1.0000 0.87930  0.67570  0.65500  Biso   1.000  C
  C22      1.0000 0.62070  0.17570  0.84500  Biso   1.000  C
  C23      1.0000 0.12070  0.32430  0.34500  Biso   1.000  C
  C24      1.0000 0.37930  0.82430  0.15500  Biso   1.000  C
  N1       1.0000 0.19140  0.81820  0.36935  Biso   1.000  N
  N2       1.0000 0.30860  0.31820  0.13065  Biso   1.000  N
  N3       1.0000 0.80860  0.18180  0.63065  Biso   1.000  N
  N4       1.0000 0.69140  0.68180  0.86935  Biso   1.000  N
  N5       1.0000 0.20060  0.84160  0.51176  Biso   1.000  N
  N6       1.0000 0.29940  0.34160  0.98824  Biso   1.000  N
  N7       1.0000 0.79940  0.15840  0.48824  Biso   1.000  N
  N8       1.0000 0.70060  0.65840  0.01176  Biso   1.000  N
  N9       1.0000 0.96620  0.74600  0.59226  Biso   1.000  N
  N10      1.0000 0.53380  0.24600  0.90774  Biso   1.000  N
  N11      1.0000 0.03380  0.25400  0.40774  Biso   1.000  N
  N12      1.0000 0.46620  0.75400  0.09226  Biso   1.000  N
  N13      1.0000 0.77840  0.62200  0.51610  Biso   1.000  N
  N14      1.0000 0.72160  0.12200  0.98390  Biso   1.000  N
  N15      1.0000 0.22160  0.37800  0.48390  Biso   1.000  N
  N16      1.0000 0.27840  0.87800  0.01610  Biso   1.000  N
  O1       1.0000 0.33090  0.97220  0.67016  Biso   1.000  O
  O2       1.0000 0.16910  0.47220  0.82984  Biso   1.000  O
  O3       1.0000 0.66910  0.02780  0.32984  Biso   1.000  O
  O4       1.0000 0.83090  0.52780  0.17016  Biso   1.000  O
  O5       1.0000 0.07170  0.92820  0.73190  Biso   1.000  O
  O6       1.0000 0.42830  0.42820  0.76810  Biso   1.000  O
  O7       1.0000 0.92830  0.07180  0.26810  Biso   1.000  O
  O8       1.0000 0.57170  0.57180  0.23190  Biso   1.000  O
  O9       1.0000 0.25010  0.10570  0.81099  Biso   1.000  O
  O10      1.0000 0.24990  0.60570  0.68901  Biso   1.000  O
  O11      1.0000 0.74990  0.89430  0.18901  Biso   1.000  O
  O12      1.0000 0.75010  0.39430  0.31099  Biso   1.000  O
  O13      1.0000 0.00750  0.19840  0.78464  Biso   1.000  O
  O14      1.0000 0.49250  0.69840  0.71536  Biso   1.000  O
  O15      1.0000 0.99250  0.80160  0.21536  Biso   1.000  O
  O16      1.0000 0.50750  0.30160  0.28464  Biso   1.000  O
  O17      1.0000 0.07470  0.96860  0.88223  Biso   1.000  O
  O18      1.0000 0.42530  0.46860  0.61777  Biso   1.000  O
  O19      1.0000 0.92530  0.03140  0.11777  Biso   1.000  O
  O20      1.0000 0.57470  0.53140  0.38223  Biso   1.000  O
  S1       1.0000 0.94771  0.74743  0.41682  Biso   1.000  S
  S2       1.0000 0.55229  0.24743  0.08318  Biso   1.000  S
  S3       1.0000 0.05229  0.25257  0.58318  Biso   1.000  S
  S4       1.0000 0.44771  0.75257  0.91682  Biso   1.000  S
  S5       1.0000 0.10137  0.04947  0.80381  Biso   1.000  S
  S6       1.0000 0.39863  0.54947  0.69619  Biso   1.000  S
  S7       1.0000 0.89863  0.95053  0.19619  Biso   1.000  S
  S8       1.0000 0.60137  0.45053  0.30381  Biso   1.000  S
  Cu1      1.0000 0.14880  0.85362  0.62790  Biso   1.000  Cu
  Cu2      1.0000 0.35120  0.35362  0.87210  Biso   1.000  Cu
  Cu3      1.0000 0.85120  0.14638  0.37210  Biso   1.000  Cu
  Cu4      1.0000 0.64880  0.64638  0.12790  Biso   1.000  Cu
  H1       1.0000 0.38900  0.89500  0.68400  Biso   1.000  H
  H2       1.0000 0.11100  0.39500  0.81600  Biso   1.000  H
  H3       1.0000 0.61100  0.10500  0.31600  Biso   1.000  H
  H4       1.0000 0.88900  0.60500  0.18400  Biso   1.000  H
  H5       1.0000 0.31400  0.01300  0.70800  Biso   1.000  H
  H6       1.0000 0.18600  0.51300  0.79200  Biso   1.000  H
  H7       1.0000 0.68600  0.98700  0.29200  Biso   1.000  H
  H8       1.0000 0.81400  0.48700  0.20800  Biso   1.000  H
  H9       1.0000 0.34300  0.99000  0.37600  Biso   1.000  H
  H10      1.0000 0.15700  0.49000  0.12400  Biso   1.000  H
  H11      1.0000 0.65700  0.01000  0.62400  Biso   1.000  H
  H12      1.0000 0.84300  0.51000  0.87600  Biso   1.000  H
  H13      1.0000 0.66000  0.71100  0.60100  Biso   1.000  H
  H14      1.0000 0.84000  0.21100  0.89900  Biso   1.000  H
  H15      1.0000 0.34000  0.28900  0.39900  Biso   1.000  H
  H16      1.0000 0.16000  0.78900  0.10100  Biso   1.000  H
  H17      1.0000 0.14200  0.81300  0.31900  Biso   1.000  H
  H18      1.0000 0.35800  0.31300  0.18100  Biso   1.000  H
  H19      1.0000 0.85800  0.18700  0.68100  Biso   1.000  H
  H20      1.0000 0.64200  0.68700  0.81900  Biso   1.000  H
  H21      1.0000 0.71200  0.51100  0.61900  Biso   1.000  H
  H22      1.0000 0.78800  0.01100  0.88100  Biso   1.000  H
  H23      1.0000 0.28800  0.48900  0.38100  Biso   1.000  H
  H24      1.0000 0.21200  0.98900  0.11900  Biso   1.000  H
  H25      1.0000 0.39600  0.80500  0.37700  Biso   1.000  H
  H26      1.0000 0.10400  0.30500  0.12300  Biso   1.000  H
  H27      1.0000 0.60400  0.19500  0.62300  Biso   1.000  H
  H28      1.0000 0.89600  0.69500  0.87700  Biso   1.000  H
  H29      1.0000 0.71700  0.59400  0.47000  Biso   1.000  H
  H30      1.0000 0.78300  0.09400  0.03000  Biso   1.000  H
  H31      1.0000 0.28300  0.40600  0.53000  Biso   1.000  H
  H32      1.0000 0.21700  0.90600  0.97000  Biso   1.000  H
  H33      1.0000 0.41000  0.79200  0.51300  Biso   1.000  H
  H34      1.0000 0.09000  0.29200  0.98700  Biso   1.000  H
  H35      1.0000 0.59000  0.20800  0.48700  Biso   1.000  H
  H36      1.0000 0.91000  0.70800  0.01300  Biso   1.000  H
  H37      1.0000 0.37800  0.99300  0.51400  Biso   1.000  H
  H38      1.0000 0.12200  0.49300  0.98600  Biso   1.000  H
  H39      1.0000 0.62200  0.00700  0.48600  Biso   1.000  H
  H40      1.0000 0.87800  0.50700  0.01400  Biso   1.000  H
  H41      1.0000 0.86500  0.75400  0.69800  Biso   1.000  H
  H42      1.0000 0.63500  0.25400  0.80200  Biso   1.000  H
  H43      1.0000 0.13500  0.24600  0.30200  Biso   1.000  H
  H44      1.0000 0.36500  0.74600  0.19800  Biso   1.000  H
  H45      1.0000 0.93100  0.57900  0.68500  Biso   1.000  H
  H46      1.0000 0.56900  0.07900  0.81500  Biso   1.000  H
  H47      1.0000 0.06900  0.42100  0.31500  Biso   1.000  H
  H48      1.0000 0.43100  0.92100  0.18500  Biso   1.000  H
