data_image0
_cell_length_a       9.719
_cell_length_b       10.443
_cell_length_c       17.73
_cell_angle_alpha    88.465
_cell_angle_beta     85.151
_cell_angle_gamma    79.243

_symmetry_space_group_name_H-M    "P 1"
_symmetry_int_tables_number       1

loop_
  _symmetry_equiv_pos_as_xyz
  'x, y, z'

loop_
  _atom_site_label
  _atom_site_occupancy
  _atom_site_fract_x
  _atom_site_fract_y
  _atom_site_fract_z
  _atom_site_thermal_displace_type
  _atom_site_B_iso_or_equiv
  _atom_site_type_symbol
  Cu1      1.0000 0.77780  0.36003  0.99557  Biso   1.000  Cu
  Cu2      1.0000 0.22220  0.63997  0.00443  Biso   1.000  Cu
  N1       1.0000 0.60560  0.38490  0.93577  Biso   1.000  N
  N2       1.0000 0.39440  0.61510  0.06423  Biso   1.000  N
  N3       1.0000 0.63120  0.50640  0.06382  Biso   1.000  N
  N4       1.0000 0.36880  0.49360  0.93618  Biso   1.000  N
  N5       1.0000 0.95070  0.36270  0.05128  Biso   1.000  N
  N6       1.0000 0.04930  0.63730  0.94872  Biso   1.000  N
  N7       1.0000 0.85360  0.53370  0.94301  Biso   1.000  N
  N8       1.0000 0.14640  0.46630  0.05699  Biso   1.000  N
  N9       1.0000 0.90100  0.23090  0.91880  Biso   1.000  N
  N10      1.0000 0.09900  0.76910  0.08120  Biso   1.000  N
  N11      1.0000 0.99940  0.92660  0.74340  Biso   1.000  N
  N12      1.0000 0.00060  0.07340  0.25660  Biso   1.000  N
  N13      1.0000 0.24710  0.23470  0.73930  Biso   1.000  N
  N14      1.0000 0.75290  0.76530  0.26070  Biso   1.000  N
  N15      1.0000 0.70860  0.20950  0.06380  Biso   1.000  N
  N16      1.0000 0.29140  0.79050  0.93620  Biso   1.000  N
  N17      1.0000 0.39660  0.00430  0.19790  Biso   1.000  N
  N18      1.0000 0.60340  0.99570  0.80210  Biso   1.000  N
  N19      1.0000 0.72700  0.79500  0.03720  Biso   1.000  N
  N20      1.0000 0.27300  0.20500  0.96280  Biso   1.000  N
  C1       1.0000 0.59380  0.32550  0.87160  Biso   1.000  C
  C2       1.0000 0.40620  0.67450  0.12840  Biso   1.000  C
  H1       1.0000 0.67120  0.26960  0.84910  Biso   1.000  H
  H2       1.0000 0.32880  0.73040  0.15090  Biso   1.000  H
  C3       1.0000 0.46780  0.34620  0.83810  Biso   1.000  C
  C4       1.0000 0.53220  0.65380  0.16190  Biso   1.000  C
  H3       1.0000 0.45840  0.30410  0.79380  Biso   1.000  H
  H4       1.0000 0.54160  0.69590  0.20620  Biso   1.000  H
  C5       1.0000 0.64330  0.56840  0.12670  Biso   1.000  C
  C6       1.0000 0.35670  0.43160  0.87330  Biso   1.000  C
  H5       1.0000 0.72940  0.55370  0.14780  Biso   1.000  H
  H6       1.0000 0.27060  0.44630  0.85220  Biso   1.000  H
  C7       1.0000 0.49370  0.46640  0.96490  Biso   1.000  C
  C8       1.0000 0.50630  0.53360  0.03510  Biso   1.000  C
  C9       1.0000 0.00260  0.27460  0.10310  Biso   1.000  C
  C10      1.0000 0.99740  0.72540  0.89690  Biso   1.000  C
  H7       1.0000 0.95230  0.21040  0.11990  Biso   1.000  H
  H8       1.0000 0.04770  0.78960  0.88010  Biso   1.000  H
  C11      1.0000 0.12890  0.27800  0.13160  Biso   1.000  C
  C12      1.0000 0.87110  0.72200  0.86840  Biso   1.000  C
  H9       1.0000 0.16660  0.21510  0.16600  Biso   1.000  H
  H10      1.0000 0.83340  0.78490  0.83400  Biso   1.000  H
  C13      1.0000 0.80230  0.62310  0.89220  Biso   1.000  C
  C14      1.0000 0.19770  0.37690  0.10780  Biso   1.000  C
  H11      1.0000 0.71790  0.61800  0.87240  Biso   1.000  H
  H12      1.0000 0.28210  0.38200  0.12760  Biso   1.000  H
  C15      1.0000 0.02650  0.45280  0.02960  Biso   1.000  C
  C16      1.0000 0.97350  0.54720  0.97040  Biso   1.000  C
  C17      1.0000 0.96990  0.18250  0.86810  Biso   1.000  C
  C18      1.0000 0.03010  0.81750  0.13190  Biso   1.000  C
  C19      1.0000 0.05440  0.12530  0.80580  Biso   1.000  C
  C20      1.0000 0.94560  0.87470  0.19420  Biso   1.000  C
  C21      1.0000 0.02300  0.01460  0.77310  Biso   1.000  C
  C22      1.0000 0.97700  0.98540  0.22690  Biso   1.000  C
  C23      1.0000 0.16140  0.18600  0.77060  Biso   1.000  C
  C24      1.0000 0.83860  0.81400  0.22940  Biso   1.000  C
  C25      1.0000 0.65750  0.12030  0.08030  Biso   1.000  C
  C26      1.0000 0.34250  0.87970  0.91970  Biso   1.000  C
  C27      1.0000 0.60340  0.00780  0.09840  Biso   1.000  C
  C28      1.0000 0.39660  0.99220  0.90160  Biso   1.000  C
  C29      1.0000 0.48870  0.00900  0.15190  Biso   1.000  C
  C30      1.0000 0.51130  0.99100  0.84810  Biso   1.000  C
  C31      1.0000 0.67070  0.89130  0.06400  Biso   1.000  C
  C32      1.0000 0.32930  0.10870  0.93600  Biso   1.000  C
  Cu3      1.0000 0.21934  0.14488  0.48069  Biso   1.000  Cu
  Cu4      1.0000 0.78066  0.85512  0.51931  Biso   1.000  Cu
  N21      1.0000 0.02690  0.13910  0.54915  Biso   1.000  N
  N22      1.0000 0.97310  0.86090  0.45085  Biso   1.000  N
  N23      1.0000 0.15380  0.98480  0.43554  Biso   1.000  N
  N24      1.0000 0.84620  0.01520  0.56446  Biso   1.000  N
  N25      1.0000 0.34100  0.00820  0.55945  Biso   1.000  N
  N26      1.0000 0.65900  0.99180  0.44055  Biso   1.000  N
  N27      1.0000 0.42750  0.10070  0.42446  Biso   1.000  N
  N28      1.0000 0.57250  0.89930  0.57554  Biso   1.000  N
  N29      1.0000 0.26340  0.29670  0.53390  Biso   1.000  N
  N30      1.0000 0.73660  0.70330  0.46610  Biso   1.000  N
  N31      1.0000 0.25750  0.71960  0.53270  Biso   1.000  N
  N32      1.0000 0.74250  0.28040  0.46730  Biso   1.000  N
  N33      1.0000 0.56750  0.45790  0.65550  Biso   1.000  N
  N34      1.0000 0.43250  0.54210  0.34450  Biso   1.000  N
  N35      1.0000 0.12630  0.25970  0.39600  Biso   1.000  N
  N36      1.0000 0.87370  0.74030  0.60400  Biso   1.000  N
  N37      1.0000 0.76730  0.36590  0.24970  Biso   1.000  N
  N38      1.0000 0.23270  0.63410  0.75030  Biso   1.000  N
  N39      1.0000 0.12490  0.57990  0.23930  Biso   1.000  N
  N40      1.0000 0.87510  0.42010  0.76070  Biso   1.000  N
  C33      1.0000 0.96240  0.21810  0.60390  Biso   1.000  C
  C34      1.0000 0.03760  0.78190  0.39610  Biso   1.000  C
  H13      1.0000 0.00120  0.28870  0.61670  Biso   1.000  H
  H14      1.0000 0.99880  0.71130  0.38330  Biso   1.000  H
  C35      1.0000 0.83850  0.19720  0.64240  Biso   1.000  C
  C36      1.0000 0.16150  0.80280  0.35760  Biso   1.000  C
  H15      1.0000 0.79400  0.25130  0.68140  Biso   1.000  H
  H16      1.0000 0.20600  0.74870  0.31860  Biso   1.000  H
  C37      1.0000 0.21610  0.90640  0.37940  Biso   1.000  C
  C38      1.0000 0.78390  0.09360  0.62060  Biso   1.000  C
  H17      1.0000 0.29910  0.92270  0.35430  Biso   1.000  H
  H18      1.0000 0.70090  0.07730  0.64570  Biso   1.000  H
  C39      1.0000 0.96420  0.04320  0.53090  Biso   1.000  C
  C40      1.0000 0.03580  0.95680  0.46910  Biso   1.000  C
  C41      1.0000 0.29680  0.95980  0.62560  Biso   1.000  C
  C42      1.0000 0.70320  0.04020  0.37440  Biso   1.000  C
  H19      1.0000 0.20200  0.97960  0.64220  Biso   1.000  H
  H20      1.0000 0.79800  0.02040  0.35780  Biso   1.000  H
  C43      1.0000 0.38800  0.88170  0.66950  Biso   1.000  C
  C44      1.0000 0.61200  0.11830  0.33050  Biso   1.000  C
  H21      1.0000 0.35710  0.84910  0.71590  Biso   1.000  H
  H22      1.0000 0.64290  0.15090  0.28410  Biso   1.000  H
  C45      1.0000 0.47450  0.14660  0.35710  Biso   1.000  C
  C46      1.0000 0.52550  0.85340  0.64290  Biso   1.000  C
  H23      1.0000 0.41080  0.19930  0.32790  Biso   1.000  H
  H24      1.0000 0.58920  0.80070  0.67210  Biso   1.000  H
  C47      1.0000 0.47650  0.97470  0.53710  Biso   1.000  C
  C48      1.0000 0.52350  0.02530  0.46290  Biso   1.000  C
  C49      1.0000 0.30870  0.38490  0.55120  Biso   1.000  C
  C50      1.0000 0.69130  0.61510  0.44880  Biso   1.000  C
  C51      1.0000 0.36240  0.49020  0.57290  Biso   1.000  C
  C52      1.0000 0.63760  0.50980  0.42710  Biso   1.000  C
  C53      1.0000 0.47530  0.47150  0.61840  Biso   1.000  C
  C54      1.0000 0.52470  0.52850  0.38160  Biso   1.000  C
  C55      1.0000 0.30520  0.61620  0.54940  Biso   1.000  C
  C56      1.0000 0.69480  0.38380  0.45060  Biso   1.000  C
  C57      1.0000 0.06320  0.32290  0.35310  Biso   1.000  C
  C58      1.0000 0.93680  0.67710  0.64690  Biso   1.000  C
  C59      1.0000 0.99360  0.40570  0.29910  Biso   1.000  C
  C60      1.0000 0.00640  0.59430  0.70090  Biso   1.000  C
  C61      1.0000 0.86800  0.38380  0.27330  Biso   1.000  C
  C62      1.0000 0.13200  0.61620  0.72670  Biso   1.000  C
  C63      1.0000 0.06280  0.50340  0.26670  Biso   1.000  C
  C64      1.0000 0.93720  0.49660  0.73330  Biso   1.000  C
  O1       1.0000 0.54110  0.63580  0.78820  Biso   1.000  O
  O2       1.0000 0.45890  0.36420  0.21180  Biso   1.000  O
  H25      1.0000 0.58300  0.59400  0.76000  Biso   1.000  H
  H26      1.0000 0.41700  0.40600  0.24000  Biso   1.000  H
  H27      1.0000 0.46400  0.66700  0.78300  Biso   1.000  H
  H28      1.0000 0.53600  0.33300  0.21700  Biso   1.000  H
