data_image0
_cell_length_a       7.359
_cell_length_b       14.62
_cell_length_c       9.9079
_cell_angle_alpha    90
_cell_angle_beta     106.406
_cell_angle_gamma    90

_symmetry_space_group_name_H-M    "P 1"
_symmetry_int_tables_number       1

loop_
  _symmetry_equiv_pos_as_xyz
  'x, y, z'

loop_
  _atom_site_label
  _atom_site_occupancy
  _atom_site_fract_x
  _atom_site_fract_y
  _atom_site_fract_z
  _atom_site_thermal_displace_type
  _atom_site_B_iso_or_equiv
  _atom_site_type_symbol
  Cu1      1.0000 0.87440  0.46245  0.60120  Biso   1.000  Cu
  Cu2      1.0000 0.62560  0.96245  0.89880  Biso   1.000  Cu
  Cu3      1.0000 0.12560  0.53755  0.39880  Biso   1.000  Cu
  Cu4      1.0000 0.37440  0.03755  0.10120  Biso   1.000  Cu
  V1       1.0000 0.03278  0.50305  0.02805  Biso   1.000  V
  V2       1.0000 0.46722  0.00305  0.47195  Biso   1.000  V
  V3       1.0000 0.96722  0.49695  0.97195  Biso   1.000  V
  V4       1.0000 0.53278  0.99695  0.52805  Biso   1.000  V
  P1       1.0000 0.75528  0.45507  0.21756  Biso   1.000  P
  P2       1.0000 0.74472  0.95507  0.28244  Biso   1.000  P
  P3       1.0000 0.24472  0.54493  0.78244  Biso   1.000  P
  P4       1.0000 0.25528  0.04493  0.71756  Biso   1.000  P
  P5       1.0000 0.84521  0.64847  0.17883  Biso   1.000  P
  P6       1.0000 0.65479  0.14847  0.32117  Biso   1.000  P
  P7       1.0000 0.15479  0.35153  0.82117  Biso   1.000  P
  P8       1.0000 0.34521  0.85153  0.67883  Biso   1.000  P
  O1       1.0000 0.90250  0.46097  0.36293  Biso   1.000  O
  O2       1.0000 0.59750  0.96097  0.13707  Biso   1.000  O
  O3       1.0000 0.09750  0.53903  0.63707  Biso   1.000  O
  O4       1.0000 0.40250  0.03903  0.86293  Biso   1.000  O
  O5       1.0000 0.98970  0.64609  0.32286  Biso   1.000  O
  O6       1.0000 0.51030  0.14609  0.17714  Biso   1.000  O
  O7       1.0000 0.01030  0.35391  0.67714  Biso   1.000  O
  O8       1.0000 0.48970  0.85391  0.82286  Biso   1.000  O
  O9       1.0000 0.84910  0.43273  0.10237  Biso   1.000  O
  O10      1.0000 0.65090  0.93273  0.39763  Biso   1.000  O
  O11      1.0000 0.15090  0.56727  0.89763  Biso   1.000  O
  O12      1.0000 0.34910  0.06727  0.60237  Biso   1.000  O
  O13      1.0000 0.59980  0.38797  0.22204  Biso   1.000  O
  O14      1.0000 0.90020  0.88797  0.27796  Biso   1.000  O
  O15      1.0000 0.40020  0.61203  0.77796  Biso   1.000  O
  O16      1.0000 0.09980  0.11203  0.72204  Biso   1.000  O
  O17      1.0000 0.75640  0.74443  0.15143  Biso   1.000  O
  O18      1.0000 0.74360  0.24443  0.34857  Biso   1.000  O
  O19      1.0000 0.24360  0.25557  0.84857  Biso   1.000  O
  O20      1.0000 0.25640  0.75557  0.65143  Biso   1.000  O
  O21      1.0000 0.92470  0.61838  0.06014  Biso   1.000  O
  O22      1.0000 0.57530  0.11838  0.43986  Biso   1.000  O
  O23      1.0000 0.07530  0.38162  0.93986  Biso   1.000  O
  O24      1.0000 0.42470  0.88162  0.56014  Biso   1.000  O
  O25      1.0000 0.77570  0.50007  0.82969  Biso   1.000  O
  O26      1.0000 0.72430  0.00007  0.67031  Biso   1.000  O
  O27      1.0000 0.22430  0.49993  0.17031  Biso   1.000  O
  O28      1.0000 0.27570  0.99993  0.32969  Biso   1.000  O
  N1       1.0000 0.70400  0.57173  0.53600  Biso   1.000  N
  N2       1.0000 0.79600  0.07173  0.96400  Biso   1.000  N
  N3       1.0000 0.29600  0.42827  0.46400  Biso   1.000  N
  N4       1.0000 0.20400  0.92827  0.03600  Biso   1.000  N
  N5       1.0000 0.37650  0.60441  0.44350  Biso   1.000  N
  N6       1.0000 0.12350  0.10441  0.05650  Biso   1.000  N
  N7       1.0000 0.62350  0.39559  0.55650  Biso   1.000  N
  N8       1.0000 0.87650  0.89559  0.94350  Biso   1.000  N
  C1       1.0000 0.52230  0.54868  0.49440  Biso   1.000  C
  C2       1.0000 0.97770  0.04868  0.00560  Biso   1.000  C
  C3       1.0000 0.47770  0.45132  0.50560  Biso   1.000  C
  C4       1.0000 0.02230  0.95132  0.99440  Biso   1.000  C
  C5       1.0000 0.41750  0.69283  0.42890  Biso   1.000  C
  C6       1.0000 0.08250  0.19283  0.07110  Biso   1.000  C
  C7       1.0000 0.58250  0.30717  0.57110  Biso   1.000  C
  C8       1.0000 0.91750  0.80717  0.92890  Biso   1.000  C
  H1       1.0000 0.31780  0.73520  0.39250  Biso   1.000  H
  H2       1.0000 0.18220  0.23520  0.10750  Biso   1.000  H
  H3       1.0000 0.68220  0.26480  0.60750  Biso   1.000  H
  H4       1.0000 0.81780  0.76480  0.89250  Biso   1.000  H
  C9       1.0000 0.74720  0.66008  0.52250  Biso   1.000  C
  C10      1.0000 0.75280  0.16008  0.97750  Biso   1.000  C
  C11      1.0000 0.25280  0.33992  0.47750  Biso   1.000  C
  C12      1.0000 0.24720  0.83992  0.02250  Biso   1.000  C
  H5       1.0000 0.87570  0.67940  0.55120  Biso   1.000  H
  H6       1.0000 0.62430  0.17940  0.94880  Biso   1.000  H
  H7       1.0000 0.12430  0.32060  0.44880  Biso   1.000  H
  H8       1.0000 0.37570  0.82060  0.05120  Biso   1.000  H
  C13      1.0000 0.60480  0.72282  0.46680  Biso   1.000  C
  C14      1.0000 0.89520  0.22282  0.03320  Biso   1.000  C
  C15      1.0000 0.39520  0.27718  0.53320  Biso   1.000  C
  C16      1.0000 0.10480  0.77718  0.96680  Biso   1.000  C
  H9       1.0000 0.63420  0.78500  0.45460  Biso   1.000  H
  H10      1.0000 0.86580  0.28500  0.04540  Biso   1.000  H
  H11      1.0000 0.36580  0.21500  0.54540  Biso   1.000  H
  H12      1.0000 0.13420  0.71500  0.95460  Biso   1.000  H
  C17      1.0000 0.65670  0.56902  0.17620  Biso   1.000  C
  C18      1.0000 0.84330  0.06902  0.32380  Biso   1.000  C
  C19      1.0000 0.34330  0.43098  0.82380  Biso   1.000  C
  C20      1.0000 0.15670  0.93098  0.67620  Biso   1.000  C
  H13      1.0000 0.80900  0.78100  0.18700  Biso   1.000  H
  H14      1.0000 0.69100  0.28100  0.31300  Biso   1.000  H
  H15      1.0000 0.19100  0.21900  0.81300  Biso   1.000  H
  H16      1.0000 0.30900  0.71900  0.68700  Biso   1.000  H
  H17      1.0000 0.56600  0.57100  0.08600  Biso   1.000  H
  H18      1.0000 0.93400  0.07100  0.41400  Biso   1.000  H
  H19      1.0000 0.43400  0.42900  0.91400  Biso   1.000  H
  H20      1.0000 0.06600  0.92900  0.58600  Biso   1.000  H
  H21      1.0000 0.58800  0.58800  0.24100  Biso   1.000  H
  H22      1.0000 0.91200  0.08800  0.25900  Biso   1.000  H
  H23      1.0000 0.41200  0.41200  0.75900  Biso   1.000  H
  H24      1.0000 0.08800  0.91200  0.74100  Biso   1.000  H
