data_image0
_cell_length_a       13.44
_cell_length_b       8.275
_cell_length_c       20.316
_cell_angle_alpha    90
_cell_angle_beta     95.815
_cell_angle_gamma    90

_symmetry_space_group_name_H-M    "P 1"
_symmetry_int_tables_number       1

loop_
  _symmetry_equiv_pos_as_xyz
  'x, y, z'

loop_
  _atom_site_label
  _atom_site_occupancy
  _atom_site_fract_x
  _atom_site_fract_y
  _atom_site_fract_z
  _atom_site_thermal_displace_type
  _atom_site_B_iso_or_equiv
  _atom_site_type_symbol
  Cu1      1.0000 0.13814  0.80293  0.06697  Biso   1.000  Cu
  Cu2      1.0000 0.86186  0.30293  0.43303  Biso   1.000  Cu
  Cu3      1.0000 0.86186  0.19707  0.93303  Biso   1.000  Cu
  Cu4      1.0000 0.13814  0.69707  0.56697  Biso   1.000  Cu
  Cu5      1.0000 0.42563  0.77318  0.07810  Biso   1.000  Cu
  Cu6      1.0000 0.57437  0.27318  0.42190  Biso   1.000  Cu
  Cu7      1.0000 0.57437  0.22682  0.92190  Biso   1.000  Cu
  Cu8      1.0000 0.42563  0.72682  0.57810  Biso   1.000  Cu
  V1       1.0000 0.22308  0.88365  0.32430  Biso   1.000  V
  V2       1.0000 0.77692  0.38365  0.17570  Biso   1.000  V
  V3       1.0000 0.77692  0.11635  0.67570  Biso   1.000  V
  V4       1.0000 0.22308  0.61635  0.82430  Biso   1.000  V
  P1       1.0000 0.82739  0.74340  0.11066  Biso   1.000  P
  P2       1.0000 0.17261  0.24340  0.38934  Biso   1.000  P
  P3       1.0000 0.17261  0.25660  0.88934  Biso   1.000  P
  P4       1.0000 0.82739  0.75660  0.61066  Biso   1.000  P
  P5       1.0000 0.63964  0.70340  0.17255  Biso   1.000  P
  P6       1.0000 0.36036  0.20340  0.32745  Biso   1.000  P
  P7       1.0000 0.36036  0.29660  0.82745  Biso   1.000  P
  P8       1.0000 0.63964  0.79660  0.67255  Biso   1.000  P
  P9       1.0000 0.29143  0.73235  0.19084  Biso   1.000  P
  P10      1.0000 0.70857  0.23235  0.30916  Biso   1.000  P
  P11      1.0000 0.70857  0.26765  0.80916  Biso   1.000  P
  P12      1.0000 0.29143  0.76765  0.69084  Biso   1.000  P
  P13      1.0000 0.26703  0.50052  0.08022  Biso   1.000  P
  P14      1.0000 0.73297  0.00052  0.41978  Biso   1.000  P
  P15      1.0000 0.73297  0.49948  0.91978  Biso   1.000  P
  P16      1.0000 0.26703  0.99948  0.58022  Biso   1.000  P
  O1       1.0000 0.57890  0.68820  0.10710  Biso   1.000  O
  O2       1.0000 0.42110  0.18820  0.39290  Biso   1.000  O
  O3       1.0000 0.42110  0.31180  0.89290  Biso   1.000  O
  O4       1.0000 0.57890  0.81180  0.60710  Biso   1.000  O
  O5       1.0000 0.39370  0.78300  0.16980  Biso   1.000  O
  O6       1.0000 0.60630  0.28300  0.33020  Biso   1.000  O
  O7       1.0000 0.60630  0.21700  0.83020  Biso   1.000  O
  O8       1.0000 0.39370  0.71700  0.66980  Biso   1.000  O
  O9       1.0000 0.36080  0.56900  0.05570  Biso   1.000  O
  O10      1.0000 0.63920  0.06900  0.44430  Biso   1.000  O
  O11      1.0000 0.63920  0.43100  0.94430  Biso   1.000  O
  O12      1.0000 0.36080  0.93100  0.55570  Biso   1.000  O
  O13      1.0000 0.20630  0.82600  0.15410  Biso   1.000  O
  O14      1.0000 0.79370  0.32600  0.34590  Biso   1.000  O
  O15      1.0000 0.79370  0.17400  0.84590  Biso   1.000  O
  O16      1.0000 0.20630  0.67400  0.65410  Biso   1.000  O
  O17      1.0000 0.17000  0.58010  0.05190  Biso   1.000  O
  O18      1.0000 0.83000  0.08010  0.44810  Biso   1.000  O
  O19      1.0000 0.83000  0.41990  0.94810  Biso   1.000  O
  O20      1.0000 0.17000  0.91990  0.55190  Biso   1.000  O
  O21      1.0000 0.26290  0.31530  0.06780  Biso   1.000  O
  O22      1.0000 0.73710  0.81530  0.43220  Biso   1.000  O
  O23      1.0000 0.73710  0.68470  0.93220  Biso   1.000  O
  O24      1.0000 0.26290  0.18470  0.56780  Biso   1.000  O
  O25      1.0000 0.29190  0.74420  0.26580  Biso   1.000  O
  O26      1.0000 0.70810  0.24420  0.23420  Biso   1.000  O
  O27      1.0000 0.70810  0.25580  0.73420  Biso   1.000  O
  O28      1.0000 0.29190  0.75580  0.76580  Biso   1.000  O
  O29      1.0000 0.68190  0.54570  0.20260  Biso   1.000  O
  O30      1.0000 0.31810  0.04570  0.29740  Biso   1.000  O
  O31      1.0000 0.31810  0.45430  0.79740  Biso   1.000  O
  O32      1.0000 0.68190  0.95430  0.70260  Biso   1.000  O
  O33      1.0000 0.23560  0.75630  0.38500  Biso   1.000  O
  O34      1.0000 0.76440  0.25630  0.11500  Biso   1.000  O
  O35      1.0000 0.76440  0.24370  0.61500  Biso   1.000  O
  O36      1.0000 0.23560  0.74370  0.88500  Biso   1.000  O
  O37      1.0000 0.11100  0.86700  0.28500  Biso   1.000  O
  O38      1.0000 0.88900  0.36700  0.21500  Biso   1.000  O
  O39      1.0000 0.88900  0.13300  0.71500  Biso   1.000  O
  O40      1.0000 0.11100  0.63300  0.78500  Biso   1.000  O
  O41      1.0000 0.81720  0.56160  0.11650  Biso   1.000  O
  O42      1.0000 0.18280  0.06160  0.38350  Biso   1.000  O
  O43      1.0000 0.18280  0.43840  0.88350  Biso   1.000  O
  O44      1.0000 0.81720  0.93840  0.61650  Biso   1.000  O
  O45      1.0000 0.57780  0.78560  0.22560  Biso   1.000  O
  O46      1.0000 0.42220  0.28560  0.27440  Biso   1.000  O
  O47      1.0000 0.42220  0.21440  0.77440  Biso   1.000  O
  O48      1.0000 0.57780  0.71440  0.72560  Biso   1.000  O
  O49      1.0000 0.93790  0.79490  0.13520  Biso   1.000  O
  O50      1.0000 0.06210  0.29490  0.36480  Biso   1.000  O
  O51      1.0000 0.06210  0.20510  0.86480  Biso   1.000  O
  O52      1.0000 0.93790  0.70510  0.63520  Biso   1.000  O
  O53      1.0000 0.80560  0.81090  0.04350  Biso   1.000  O
  O54      1.0000 0.19440  0.31090  0.45650  Biso   1.000  O
  O55      1.0000 0.19440  0.18910  0.95650  Biso   1.000  O
  O56      1.0000 0.80560  0.68910  0.54350  Biso   1.000  O
  O57      1.0000 0.25900  0.89740  0.00690  Biso   1.000  O
  O58      1.0000 0.74100  0.39740  0.49310  Biso   1.000  O
  O59      1.0000 0.74100  0.10260  0.99310  Biso   1.000  O
  O60      1.0000 0.25900  0.60260  0.50690  Biso   1.000  O
  H1       1.0000 0.25500  0.85020  0.97020  Biso   1.000  H
  H2       1.0000 0.74500  0.35020  0.52980  Biso   1.000  H
  H3       1.0000 0.74500  0.14980  0.02980  Biso   1.000  H
  H4       1.0000 0.25500  0.64980  0.47020  Biso   1.000  H
  O61      1.0000 0.03620  0.59740  0.22040  Biso   1.000  O
  O62      1.0000 0.96380  0.09740  0.27960  Biso   1.000  O
  O63      1.0000 0.96380  0.40260  0.77960  Biso   1.000  O
  O64      1.0000 0.03620  0.90260  0.72040  Biso   1.000  O
  N1       1.0000 0.46780  0.00960  0.08300  Biso   1.000  N
  N2       1.0000 0.53220  0.50960  0.41700  Biso   1.000  N
  N3       1.0000 0.53220  0.99040  0.91700  Biso   1.000  N
  N4       1.0000 0.46780  0.49040  0.58300  Biso   1.000  N
  N5       1.0000 0.53470  0.20670  0.01470  Biso   1.000  N
  N6       1.0000 0.46530  0.70670  0.48530  Biso   1.000  N
  N7       1.0000 0.46530  0.79330  0.98530  Biso   1.000  N
  N8       1.0000 0.53470  0.29330  0.51470  Biso   1.000  N
  N9       1.0000 0.04080  0.80050  0.98310  Biso   1.000  N
  N10      1.0000 0.95920  0.30050  0.51690  Biso   1.000  N
  N11      1.0000 0.95920  0.19950  0.01690  Biso   1.000  N
  N12      1.0000 0.04080  0.69950  0.48310  Biso   1.000  N
  N13      1.0000 0.92270  0.97490  0.92390  Biso   1.000  N
  N14      1.0000 0.07730  0.47490  0.57610  Biso   1.000  N
  N15      1.0000 0.07730  0.02510  0.07610  Biso   1.000  N
  N16      1.0000 0.92270  0.52510  0.42390  Biso   1.000  N
  C1       1.0000 0.53750  0.31520  0.06380  Biso   1.000  C
  C2       1.0000 0.46250  0.81520  0.43620  Biso   1.000  C
  C3       1.0000 0.46250  0.68480  0.93620  Biso   1.000  C
  C4       1.0000 0.53750  0.18480  0.56380  Biso   1.000  C
  H5       1.0000 0.56200  0.42100  0.05720  Biso   1.000  H
  H6       1.0000 0.43800  0.92100  0.44280  Biso   1.000  H
  H7       1.0000 0.43800  0.57900  0.94280  Biso   1.000  H
  H8       1.0000 0.56200  0.07900  0.55720  Biso   1.000  H
  C5       1.0000 0.50450  0.27350  0.12420  Biso   1.000  C
  C6       1.0000 0.49550  0.77350  0.37580  Biso   1.000  C
  C7       1.0000 0.49550  0.72650  0.87580  Biso   1.000  C
  C8       1.0000 0.50450  0.22650  0.62420  Biso   1.000  C
  H9       1.0000 0.50660  0.34980  0.15930  Biso   1.000  H
  H10      1.0000 0.49340  0.84980  0.34070  Biso   1.000  H
  H11      1.0000 0.49340  0.65020  0.84070  Biso   1.000  H
  H12      1.0000 0.50660  0.15020  0.65930  Biso   1.000  H
  C9       1.0000 0.46910  0.12000  0.13230  Biso   1.000  C
  C10      1.0000 0.53090  0.62000  0.36770  Biso   1.000  C
  C11      1.0000 0.53090  0.88000  0.86770  Biso   1.000  C
  C12      1.0000 0.46910  0.38000  0.63230  Biso   1.000  C
  H13      1.0000 0.44500  0.09080  0.17300  Biso   1.000  H
  H14      1.0000 0.55500  0.59080  0.32700  Biso   1.000  H
  H15      1.0000 0.55500  0.90920  0.82700  Biso   1.000  H
  H16      1.0000 0.44500  0.40920  0.67300  Biso   1.000  H
  C13      1.0000 0.50000  0.05960  0.02680  Biso   1.000  C
  C14      1.0000 0.50000  0.55960  0.47320  Biso   1.000  C
  C15      1.0000 0.50000  0.94040  0.97320  Biso   1.000  C
  C16      1.0000 0.50000  0.44040  0.52680  Biso   1.000  C
  C17      1.0000 0.90650  0.86480  0.87630  Biso   1.000  C
  C18      1.0000 0.09350  0.36480  0.62370  Biso   1.000  C
  C19      1.0000 0.09350  0.13520  0.12370  Biso   1.000  C
  C20      1.0000 0.90650  0.63520  0.37630  Biso   1.000  C
  H17      1.0000 0.85970  0.88660  0.83910  Biso   1.000  H
  H18      1.0000 0.14030  0.38660  0.66090  Biso   1.000  H
  H19      1.0000 0.14030  0.11340  0.16090  Biso   1.000  H
  H20      1.0000 0.85970  0.61340  0.33910  Biso   1.000  H
  C21      1.0000 0.95700  0.71860  0.88040  Biso   1.000  C
  C22      1.0000 0.04300  0.21860  0.61960  Biso   1.000  C
  C23      1.0000 0.04300  0.28140  0.11960  Biso   1.000  C
  C24      1.0000 0.95700  0.78140  0.38040  Biso   1.000  C
  H21      1.0000 0.94570  0.64070  0.84610  Biso   1.000  H
  H22      1.0000 0.05430  0.14070  0.65390  Biso   1.000  H
  H23      1.0000 0.05430  0.35930  0.15390  Biso   1.000  H
  H24      1.0000 0.94570  0.85930  0.34610  Biso   1.000  H
  C25      1.0000 0.99030  0.93840  0.97440  Biso   1.000  C
  C26      1.0000 0.00970  0.43840  0.52560  Biso   1.000  C
  C27      1.0000 0.00970  0.06160  0.02560  Biso   1.000  C
  C28      1.0000 0.99030  0.56160  0.47440  Biso   1.000  C
  C29      1.0000 0.27600  0.52210  0.16840  Biso   1.000  C
  C30      1.0000 0.72400  0.02210  0.33160  Biso   1.000  C
  C31      1.0000 0.72400  0.47790  0.83160  Biso   1.000  C
  C32      1.0000 0.27600  0.97790  0.66840  Biso   1.000  C
  C33      1.0000 0.74720  0.83230  0.16680  Biso   1.000  C
  C34      1.0000 0.25280  0.33230  0.33320  Biso   1.000  C
  C35      1.0000 0.25280  0.16770  0.83320  Biso   1.000  C
  C36      1.0000 0.74720  0.66770  0.66680  Biso   1.000  C
  C37      1.0000 0.02410  0.68760  0.93520  Biso   1.000  C
  C38      1.0000 0.97590  0.18760  0.56480  Biso   1.000  C
  C39      1.0000 0.97590  0.31240  0.06480  Biso   1.000  C
  C40      1.0000 0.02410  0.81240  0.43520  Biso   1.000  C
  H25      1.0000 0.05840  0.58710  0.93920  Biso   1.000  H
  H26      1.0000 0.94160  0.08710  0.56080  Biso   1.000  H
  H27      1.0000 0.94160  0.41290  0.06080  Biso   1.000  H
  H28      1.0000 0.05840  0.91290  0.43920  Biso   1.000  H
  H29      1.0000 0.04800  0.66200  0.24500  Biso   1.000  H
  H30      1.0000 0.95200  0.16200  0.25500  Biso   1.000  H
  H31      1.0000 0.95200  0.33800  0.75500  Biso   1.000  H
  H32      1.0000 0.04800  0.83800  0.74500  Biso   1.000  H
  H33      1.0000 0.24500  0.28500  0.03400  Biso   1.000  H
  H34      1.0000 0.75500  0.78500  0.46600  Biso   1.000  H
  H35      1.0000 0.75500  0.71500  0.96600  Biso   1.000  H
  H36      1.0000 0.24500  0.21500  0.53400  Biso   1.000  H
  H37      1.0000 0.32100  0.46600  0.18800  Biso   1.000  H
  H38      1.0000 0.67900  0.96600  0.31200  Biso   1.000  H
  H39      1.0000 0.67900  0.53400  0.81200  Biso   1.000  H
  H40      1.0000 0.32100  0.03400  0.68800  Biso   1.000  H
  H41      1.0000 0.21400  0.48400  0.18300  Biso   1.000  H
  H42      1.0000 0.78600  0.98400  0.31700  Biso   1.000  H
  H43      1.0000 0.78600  0.51600  0.81700  Biso   1.000  H
  H44      1.0000 0.21400  0.01600  0.68300  Biso   1.000  H
  H45      1.0000 0.78500  0.83900  0.21400  Biso   1.000  H
  H46      1.0000 0.21500  0.33900  0.28600  Biso   1.000  H
  H47      1.0000 0.21500  0.16100  0.78600  Biso   1.000  H
  H48      1.0000 0.78500  0.66100  0.71400  Biso   1.000  H
  H49      1.0000 0.72600  0.93100  0.15500  Biso   1.000  H
  H50      1.0000 0.27400  0.43100  0.34500  Biso   1.000  H
  H51      1.0000 0.27400  0.06900  0.84500  Biso   1.000  H
  H52      1.0000 0.72600  0.56900  0.65500  Biso   1.000  H
  H53      1.0000 0.24200  0.99900  0.99200  Biso   1.000  H
  H54      1.0000 0.75800  0.49900  0.50800  Biso   1.000  H
  H55      1.0000 0.75800  0.00100  0.00800  Biso   1.000  H
  H56      1.0000 0.24200  0.50100  0.49200  Biso   1.000  H
  H57      1.0000 0.53000  0.79000  0.21100  Biso   1.000  H
  H58      1.0000 0.47000  0.29000  0.28900  Biso   1.000  H
  H59      1.0000 0.47000  0.21000  0.78900  Biso   1.000  H
  H60      1.0000 0.53000  0.71000  0.71100  Biso   1.000  H
  H61      1.0000 0.95700  0.73300  0.16500  Biso   1.000  H
  H62      1.0000 0.04300  0.23300  0.33500  Biso   1.000  H
  H63      1.0000 0.04300  0.26700  0.83500  Biso   1.000  H
  H64      1.0000 0.95700  0.76700  0.66500  Biso   1.000  H
  H65      1.0000 0.00000  0.54600  0.23100  Biso   1.000  H
  H66      1.0000 0.00000  0.04600  0.26900  Biso   1.000  H
  H67      1.0000 0.00000  0.45400  0.76900  Biso   1.000  H
  H68      1.0000 0.00000  0.95400  0.73100  Biso   1.000  H
