data_image0
_cell_length_a       8.1299
_cell_length_b       9.1492
_cell_length_c       9.1855
_cell_angle_alpha    72.314
_cell_angle_beta     75.106
_cell_angle_gamma    66.949

_symmetry_space_group_name_H-M    "P 1"
_symmetry_int_tables_number       1

loop_
  _symmetry_equiv_pos_as_xyz
  'x, y, z'

loop_
  _atom_site_label
  _atom_site_occupancy
  _atom_site_fract_x
  _atom_site_fract_y
  _atom_site_fract_z
  _atom_site_thermal_displace_type
  _atom_site_B_iso_or_equiv
  _atom_site_type_symbol
  Cu1      1.0000 0.24979  0.01257  0.76799  Biso   1.000  Cu
  Cu2      1.0000 0.75021  0.98743  0.23201  Biso   1.000  Cu
  P1       1.0000 0.17491  0.82128  0.11002  Biso   1.000  P
  P2       1.0000 0.82509  0.17872  0.88998  Biso   1.000  P
  P3       1.0000 0.61685  0.39579  0.31490  Biso   1.000  P
  P4       1.0000 0.38315  0.60421  0.68510  Biso   1.000  P
  O1       1.0000 0.28182  0.91431  0.98379  Biso   1.000  O
  O2       1.0000 0.71818  0.08569  0.01621  Biso   1.000  O
  O3       1.0000 0.98991  0.07783  0.79798  Biso   1.000  O
  O4       1.0000 0.01009  0.92217  0.20202  Biso   1.000  O
  O5       1.0000 0.74760  0.25761  0.24162  Biso   1.000  O
  O6       1.0000 0.25240  0.74239  0.75838  Biso   1.000  O
  O7       1.0000 0.70365  0.47993  0.37575  Biso   1.000  O
  O8       1.0000 0.29635  0.52007  0.62425  Biso   1.000  O
  O9       1.0000 0.11804  0.71401  0.03911  Biso   1.000  O
  O10      1.0000 0.88196  0.28599  0.96089  Biso   1.000  O
  O11      1.0000 0.48568  0.32275  0.44946  Biso   1.000  O
  O12      1.0000 0.51432  0.67725  0.55054  Biso   1.000  O
  O13      1.0000 0.24230  0.24718  0.82554  Biso   1.000  O
  O14      1.0000 0.75770  0.75282  0.17446  Biso   1.000  O
  H1       1.0000 0.24490  0.31960  0.74360  Biso   1.000  H
  H2       1.0000 0.75510  0.68040  0.25640  Biso   1.000  H
  N1       1.0000 0.25900  0.07653  0.52993  Biso   1.000  N
  N2       1.0000 0.74100  0.92347  0.47007  Biso   1.000  N
  N3       1.0000 0.52330  0.94675  0.69927  Biso   1.000  N
  N4       1.0000 0.47670  0.05325  0.30073  Biso   1.000  N
  C1       1.0000 0.42670  0.03610  0.45320  Biso   1.000  C
  C2       1.0000 0.57330  0.96390  0.54680  Biso   1.000  C
  C3       1.0000 0.32150  0.68010  0.24580  Biso   1.000  C
  C4       1.0000 0.67850  0.31990  0.75420  Biso   1.000  C
  H3       1.0000 0.37370  0.74080  0.28310  Biso   1.000  H
  H4       1.0000 0.62630  0.25920  0.71690  Biso   1.000  H
  H5       1.0000 0.24900  0.62940  0.33620  Biso   1.000  H
  H6       1.0000 0.75100  0.37060  0.66380  Biso   1.000  H
  C5       1.0000 0.47610  0.54510  0.17740  Biso   1.000  C
  C6       1.0000 0.52390  0.45490  0.82260  Biso   1.000  C
  H7       1.0000 0.55250  0.59560  0.09090  Biso   1.000  H
  H8       1.0000 0.44750  0.40440  0.90910  Biso   1.000  H
  H9       1.0000 0.42380  0.48900  0.13440  Biso   1.000  H
  H10      1.0000 0.57620  0.51100  0.86560  Biso   1.000  H
  C7       1.0000 0.12570  0.14180  0.44410  Biso   1.000  C
  C8       1.0000 0.87430  0.85820  0.55590  Biso   1.000  C
  H11      1.0000 0.00330  0.17450  0.49340  Biso   1.000  H
  H12      1.0000 0.99670  0.82550  0.50660  Biso   1.000  H
  C9       1.0000 0.16340  0.16220  0.28410  Biso   1.000  C
  C10      1.0000 0.83660  0.83780  0.71590  Biso   1.000  C
  H13      1.0000 0.06850  0.20650  0.22400  Biso   1.000  H
  H14      1.0000 0.93150  0.79350  0.77600  Biso   1.000  H
  C11      1.0000 0.65610  0.88400  0.78540  Biso   1.000  C
  C12      1.0000 0.34390  0.11600  0.21460  Biso   1.000  C
  H15      1.0000 0.62680  0.87100  0.89450  Biso   1.000  H
  H16      1.0000 0.37320  0.12900  0.10550  Biso   1.000  H
  H17      1.0000 0.13700  0.28000  0.86400  Biso   1.000  H
  H18      1.0000 0.86300  0.72000  0.13600  Biso   1.000  H
