data_image0
_cell_length_a       7.4854
_cell_length_b       9.782
_cell_length_c       9.9972
_cell_angle_alpha    90
_cell_angle_beta     90
_cell_angle_gamma    90

_symmetry_space_group_name_H-M    "P 1"
_symmetry_int_tables_number       1

loop_
  _symmetry_equiv_pos_as_xyz
  'x, y, z'

loop_
  _atom_site_label
  _atom_site_occupancy
  _atom_site_fract_x
  _atom_site_fract_y
  _atom_site_fract_z
  _atom_site_thermal_displace_type
  _atom_site_B_iso_or_equiv
  _atom_site_type_symbol
  Cu1      1.0000 0.06103  0.04383  0.33383  Biso   1.000  Cu
  Cu2      1.0000 0.43897  0.95617  0.83383  Biso   1.000  Cu
  Cu3      1.0000 0.93897  0.54383  0.16617  Biso   1.000  Cu
  Cu4      1.0000 0.56103  0.45617  0.66617  Biso   1.000  Cu
  S1       1.0000 0.94521  0.97374  0.83341  Biso   1.000  S
  S2       1.0000 0.55479  0.02626  0.33341  Biso   1.000  S
  S3       1.0000 0.05479  0.47374  0.66659  Biso   1.000  S
  S4       1.0000 0.44521  0.52626  0.16659  Biso   1.000  S
  O1       1.0000 0.02520  0.23230  0.27200  Biso   1.000  O
  O2       1.0000 0.47480  0.76770  0.77200  Biso   1.000  O
  O3       1.0000 0.97480  0.73230  0.22800  Biso   1.000  O
  O4       1.0000 0.52520  0.26770  0.72800  Biso   1.000  O
  O5       1.0000 0.96890  0.35801  0.09100  Biso   1.000  O
  O6       1.0000 0.53110  0.64199  0.59100  Biso   1.000  O
  O7       1.0000 0.03110  0.85801  0.40900  Biso   1.000  O
  O8       1.0000 0.46890  0.14199  0.90900  Biso   1.000  O
  O9       1.0000 0.13170  0.94890  0.81320  Biso   1.000  O
  O10      1.0000 0.36830  0.05110  0.31320  Biso   1.000  O
  O11      1.0000 0.86830  0.44890  0.68680  Biso   1.000  O
  O12      1.0000 0.63170  0.55110  0.18680  Biso   1.000  O
  O13      1.0000 0.85330  0.00630  0.70830  Biso   1.000  O
  O14      1.0000 0.64670  0.99370  0.20830  Biso   1.000  O
  O15      1.0000 0.14670  0.50630  0.79170  Biso   1.000  O
  O16      1.0000 0.35330  0.49370  0.29170  Biso   1.000  O
  O17      1.0000 0.85190  0.86710  0.90600  Biso   1.000  O
  O18      1.0000 0.64810  0.13290  0.40600  Biso   1.000  O
  O19      1.0000 0.14810  0.36710  0.59400  Biso   1.000  O
  O20      1.0000 0.35190  0.63290  0.09400  Biso   1.000  O
  O21      1.0000 0.08570  0.10500  0.51970  Biso   1.000  O
  O22      1.0000 0.41430  0.89500  0.01970  Biso   1.000  O
  O23      1.0000 0.91430  0.60500  0.98030  Biso   1.000  O
  O24      1.0000 0.58570  0.39500  0.48030  Biso   1.000  O
  N1       1.0000 0.03230  0.99880  0.14270  Biso   1.000  N
  N2       1.0000 0.46770  0.00120  0.64270  Biso   1.000  N
  N3       1.0000 0.96770  0.49880  0.35730  Biso   1.000  N
  N4       1.0000 0.53230  0.50120  0.85730  Biso   1.000  N
  H1       1.0000 0.11780  0.93930  0.11800  Biso   1.000  H
  H2       1.0000 0.38220  0.06070  0.61800  Biso   1.000  H
  H3       1.0000 0.88220  0.43930  0.38200  Biso   1.000  H
  H4       1.0000 0.61780  0.56070  0.88200  Biso   1.000  H
  H5       1.0000 0.92550  0.95860  0.12980  Biso   1.000  H
  H6       1.0000 0.57450  0.04140  0.62980  Biso   1.000  H
  H7       1.0000 0.07450  0.45860  0.37020  Biso   1.000  H
  H8       1.0000 0.42550  0.54140  0.87020  Biso   1.000  H
  C1       1.0000 0.00770  0.24740  0.14890  Biso   1.000  C
  C2       1.0000 0.49230  0.75260  0.64890  Biso   1.000  C
  C3       1.0000 0.99230  0.74740  0.35110  Biso   1.000  C
  C4       1.0000 0.50770  0.25260  0.85110  Biso   1.000  C
  C5       1.0000 0.04450  0.12280  0.05960  Biso   1.000  C
  C6       1.0000 0.45550  0.87720  0.55960  Biso   1.000  C
  C7       1.0000 0.95550  0.62280  0.44040  Biso   1.000  C
  C8       1.0000 0.54450  0.37720  0.94040  Biso   1.000  C
  H9       1.0000 0.16810  0.13000  0.02800  Biso   1.000  H
  H10      1.0000 0.33190  0.87000  0.52800  Biso   1.000  H
  H11      1.0000 0.83190  0.63000  0.47200  Biso   1.000  H
  H12      1.0000 0.66810  0.37000  0.97200  Biso   1.000  H
  C9       1.0000 0.92380  0.12190  0.93670  Biso   1.000  C
  C10      1.0000 0.57620  0.87810  0.43670  Biso   1.000  C
  C11      1.0000 0.07620  0.62190  0.56330  Biso   1.000  C
  C12      1.0000 0.42380  0.37810  0.06330  Biso   1.000  C
  H13      1.0000 0.95030  0.20210  0.88310  Biso   1.000  H
  H14      1.0000 0.54970  0.79790  0.38310  Biso   1.000  H
  H15      1.0000 0.04970  0.70210  0.61690  Biso   1.000  H
  H16      1.0000 0.45030  0.29790  0.11690  Biso   1.000  H
  H17      1.0000 0.80060  0.12920  0.96600  Biso   1.000  H
  H18      1.0000 0.69940  0.87080  0.46600  Biso   1.000  H
  H19      1.0000 0.19940  0.62920  0.53400  Biso   1.000  H
  H20      1.0000 0.30060  0.37080  0.03400  Biso   1.000  H
  H21      1.0000 0.10100  0.18700  0.53500  Biso   1.000  H
  H22      1.0000 0.39900  0.81300  0.03500  Biso   1.000  H
  H23      1.0000 0.89900  0.68700  0.96500  Biso   1.000  H
  H24      1.0000 0.60100  0.31300  0.46500  Biso   1.000  H
  H25      1.0000 0.01700  0.07000  0.57500  Biso   1.000  H
  H26      1.0000 0.48300  0.93000  0.07500  Biso   1.000  H
  H27      1.0000 0.98300  0.57000  0.92500  Biso   1.000  H
  H28      1.0000 0.51700  0.43000  0.42500  Biso   1.000  H
