data_image0
_cell_length_a       9.4542
_cell_length_b       7.5259
_cell_length_c       13.7688
_cell_angle_alpha    90
_cell_angle_beta     93.4327
_cell_angle_gamma    90

_symmetry_space_group_name_H-M    "P 1"
_symmetry_int_tables_number       1

loop_
  _symmetry_equiv_pos_as_xyz
  'x, y, z'

loop_
  _atom_site_label
  _atom_site_occupancy
  _atom_site_fract_x
  _atom_site_fract_y
  _atom_site_fract_z
  _atom_site_thermal_displace_type
  _atom_site_B_iso_or_equiv
  _atom_site_type_symbol
  Cu1      1.0000 0.14065  0.23582  0.92540  Biso   1.000  Cu
  Cu2      1.0000 0.85935  0.73582  0.07460  Biso   1.000  Cu
  Cl1      1.0000 0.96613  0.34787  0.01842  Biso   1.000  Cl
  Cl2      1.0000 0.03387  0.84787  0.98158  Biso   1.000  Cl
  Cl3      1.0000 0.31301  0.14768  0.82913  Biso   1.000  Cl
  Cl4      1.0000 0.68699  0.64768  0.17087  Biso   1.000  Cl
  N1       1.0000 0.27539  0.23230  0.04343  Biso   1.000  N
  N2       1.0000 0.72461  0.73230  0.95657  Biso   1.000  N
  N3       1.0000 0.44622  0.17870  0.15736  Biso   1.000  N
  N4       1.0000 0.55378  0.67870  0.84264  Biso   1.000  N
  N5       1.0000 0.43096  0.46000  0.25261  Biso   1.000  N
  N6       1.0000 0.56904  0.96000  0.74739  Biso   1.000  N
  N7       1.0000 0.00527  0.25600  0.80791  Biso   1.000  N
  N8       1.0000 0.99473  0.75600  0.19209  Biso   1.000  N
  N9       1.0000 0.88478  0.21760  0.66621  Biso   1.000  N
  N10      1.0000 0.11522  0.71760  0.33379  Biso   1.000  N
  N11      1.0000 0.76506  0.51250  0.65208  Biso   1.000  N
  N12      1.0000 0.23494  0.01250  0.34792  Biso   1.000  N
  O1       1.0000 0.37234  0.60630  0.25287  Biso   1.000  O
  O2       1.0000 0.62766  0.10630  0.74713  Biso   1.000  O
  O3       1.0000 0.51630  0.40690  0.31707  Biso   1.000  O
  O4       1.0000 0.48370  0.90690  0.68293  Biso   1.000  O
  O5       1.0000 0.74022  0.07170  0.10083  Biso   1.000  O
  O6       1.0000 0.25978  0.57170  0.89917  Biso   1.000  O
  H1       1.0000 0.78400  0.13100  0.08300  Biso   1.000  H
  H2       1.0000 0.21600  0.63100  0.91700  Biso   1.000  H
  O7       1.0000 0.76173  0.66190  0.68869  Biso   1.000  O
  O8       1.0000 0.23827  0.16190  0.31131  Biso   1.000  O
  O9       1.0000 0.68941  0.46500  0.58110  Biso   1.000  O
  O10      1.0000 0.31059  0.96500  0.41890  Biso   1.000  O
  O11      1.0000 0.04038  0.14250  0.48586  Biso   1.000  O
  O12      1.0000 0.95962  0.64250  0.51414  Biso   1.000  O
  H3       1.0000 0.09000  0.20000  0.52900  Biso   1.000  H
  H4       1.0000 0.91000  0.70000  0.47100  Biso   1.000  H
  C1       1.0000 0.37173  0.11290  0.07811  Biso   1.000  C
  C2       1.0000 0.62827  0.61290  0.92189  Biso   1.000  C
  C3       1.0000 0.28908  0.37890  0.10219  Biso   1.000  C
  C4       1.0000 0.71092  0.87890  0.89781  Biso   1.000  C
  H5       1.0000 0.23440  0.48460  0.09530  Biso   1.000  H
  H6       1.0000 0.76560  0.98460  0.90470  Biso   1.000  H
  C5       1.0000 0.39365  0.34790  0.17171  Biso   1.000  C
  C6       1.0000 0.60635  0.84790  0.82829  Biso   1.000  C
  C7       1.0000 0.39394  0.93070  0.04056  Biso   1.000  C
  C8       1.0000 0.60606  0.43070  0.95944  Biso   1.000  C
  H7       1.0000 0.33770  0.91470  0.97900  Biso   1.000  H
  H8       1.0000 0.66230  0.41470  0.02100  Biso   1.000  H
  H9       1.0000 0.36420  0.84350  0.08810  Biso   1.000  H
  H10      1.0000 0.63580  0.34350  0.91190  Biso   1.000  H
  H11      1.0000 0.49450  0.91350  0.02970  Biso   1.000  H
  H12      1.0000 0.50550  0.41350  0.97030  Biso   1.000  H
  C9       1.0000 0.55634  0.07970  0.21554  Biso   1.000  C
  C10      1.0000 0.44366  0.57970  0.78446  Biso   1.000  C
  H13      1.0000 0.54480  0.95110  0.20200  Biso   1.000  H
  H14      1.0000 0.45520  0.45110  0.79800  Biso   1.000  H
  H15      1.0000 0.54260  0.09880  0.28550  Biso   1.000  H
  H16      1.0000 0.45740  0.59880  0.71450  Biso   1.000  H
  C11      1.0000 0.70583  0.13490  0.19439  Biso   1.000  C
  C12      1.0000 0.29417  0.63490  0.80561  Biso   1.000  C
  H17      1.0000 0.71350  0.26610  0.19630  Biso   1.000  H
  H18      1.0000 0.28650  0.76610  0.80370  Biso   1.000  H
  H19      1.0000 0.77380  0.08570  0.24490  Biso   1.000  H
  H20      1.0000 0.22620  0.58570  0.75510  Biso   1.000  H
  C13      1.0000 0.97387  0.14200  0.73476  Biso   1.000  C
  C14      1.0000 0.02613  0.64200  0.26524  Biso   1.000  C
  C15      1.0000 0.93517  0.41100  0.78538  Biso   1.000  C
  C16      1.0000 0.06483  0.91100  0.21462  Biso   1.000  C
  H21      1.0000 0.93770  0.51590  0.82390  Biso   1.000  H
  H22      1.0000 0.06230  0.01590  0.17610  Biso   1.000  H
  C17      1.0000 0.86126  0.38910  0.69837  Biso   1.000  C
  C18      1.0000 0.13874  0.88910  0.30163  Biso   1.000  C
  C19      1.0000 0.02590  0.95600  0.72897  Biso   1.000  C
  C20      1.0000 0.97410  0.45600  0.27103  Biso   1.000  C
  H23      1.0000 0.06270  0.91710  0.79350  Biso   1.000  H
  H24      1.0000 0.93730  0.41710  0.20650  Biso   1.000  H
  H25      1.0000 0.10150  0.95010  0.68340  Biso   1.000  H
  H26      1.0000 0.89850  0.45010  0.31660  Biso   1.000  H
  H27      1.0000 0.94760  0.87830  0.70610  Biso   1.000  H
  H28      1.0000 0.05240  0.37830  0.29390  Biso   1.000  H
  C21      1.0000 0.82660  0.12980  0.57629  Biso   1.000  C
  C22      1.0000 0.17340  0.62980  0.42371  Biso   1.000  C
  H29      1.0000 0.72350  0.15270  0.56820  Biso   1.000  H
  H30      1.0000 0.27650  0.65270  0.43180  Biso   1.000  H
  H31      1.0000 0.84070  0.99980  0.58230  Biso   1.000  H
  H32      1.0000 0.15930  0.49980  0.41770  Biso   1.000  H
  C23      1.0000 0.89733  0.19620  0.48726  Biso   1.000  C
  C24      1.0000 0.10267  0.69620  0.51274  Biso   1.000  C
  H33      1.0000 0.84450  0.15090  0.42810  Biso   1.000  H
  H34      1.0000 0.15550  0.65090  0.57190  Biso   1.000  H
  H35      1.0000 0.89270  0.32760  0.48570  Biso   1.000  H
  H36      1.0000 0.10730  0.82760  0.51430  Biso   1.000  H
  O13      1.0000 0.23641  0.30280  0.61519  Biso   1.000  O
  O14      1.0000 0.76359  0.80280  0.38481  Biso   1.000  O
  H37      1.0000 0.25200  0.27100  0.66170  Biso   1.000  H
  H38      1.0000 0.74800  0.77100  0.33830  Biso   1.000  H
  C25      1.0000 0.36680  0.31270  0.56855  Biso   1.000  C
  C26      1.0000 0.63320  0.81270  0.43145  Biso   1.000  C
  H39      1.0000 0.39950  0.43620  0.56810  Biso   1.000  H
  H40      1.0000 0.60050  0.93620  0.43190  Biso   1.000  H
  H41      1.0000 0.35260  0.26970  0.50150  Biso   1.000  H
  H42      1.0000 0.64740  0.76970  0.49850  Biso   1.000  H
  H43      1.0000 0.43800  0.23880  0.60400  Biso   1.000  H
  H44      1.0000 0.56200  0.73880  0.39600  Biso   1.000  H
