data_image0
_cell_length_a       6.633
_cell_length_b       21.146
_cell_length_c       7.698
_cell_angle_alpha    90
_cell_angle_beta     100.1
_cell_angle_gamma    90

_symmetry_space_group_name_H-M    "P 1"
_symmetry_int_tables_number       1

loop_
  _symmetry_equiv_pos_as_xyz
  'x, y, z'

loop_
  _atom_site_label
  _atom_site_occupancy
  _atom_site_fract_x
  _atom_site_fract_y
  _atom_site_fract_z
  _atom_site_thermal_displace_type
  _atom_site_B_iso_or_equiv
  _atom_site_type_symbol
  Cu1      1.0000 0.59140  0.53000  0.69290  Biso   1.000  Cu
  Cu2      1.0000 0.90860  0.03000  0.80710  Biso   1.000  Cu
  Cu3      1.0000 0.40860  0.47000  0.30710  Biso   1.000  Cu
  Cu4      1.0000 0.09140  0.97000  0.19290  Biso   1.000  Cu
  N1       1.0000 0.65990  0.60810  0.56720  Biso   1.000  N
  N2       1.0000 0.84010  0.10810  0.93280  Biso   1.000  N
  N3       1.0000 0.34010  0.39190  0.43280  Biso   1.000  N
  N4       1.0000 0.15990  0.89190  0.06720  Biso   1.000  N
  N5       1.0000 0.53550  0.57290  0.90220  Biso   1.000  N
  N6       1.0000 0.96450  0.07290  0.59780  Biso   1.000  N
  N7       1.0000 0.46450  0.42710  0.09780  Biso   1.000  N
  N8       1.0000 0.03550  0.92710  0.40220  Biso   1.000  N
  O1       1.0000 0.29900  0.52190  0.48100  Biso   1.000  O
  O2       1.0000 0.20100  0.02190  0.01900  Biso   1.000  O
  O3       1.0000 0.70100  0.47810  0.51900  Biso   1.000  O
  O4       1.0000 0.79900  0.97810  0.98100  Biso   1.000  O
  O5       1.0000 0.45610  0.54860  0.17590  Biso   1.000  O
  O6       1.0000 0.04390  0.04860  0.32410  Biso   1.000  O
  O7       1.0000 0.54390  0.45140  0.82410  Biso   1.000  O
  O8       1.0000 0.95610  0.95140  0.67590  Biso   1.000  O
  O9       1.0000 0.10100  0.59710  0.55830  Biso   1.000  O
  O10      1.0000 0.39900  0.09710  0.94170  Biso   1.000  O
  O11      1.0000 0.89900  0.40290  0.44170  Biso   1.000  O
  O12      1.0000 0.60100  0.90290  0.05830  Biso   1.000  O
  C1       1.0000 0.49690  0.53430  0.02450  Biso   1.000  C
  C2       1.0000 0.00310  0.03430  0.47550  Biso   1.000  C
  C3       1.0000 0.50310  0.46570  0.97550  Biso   1.000  C
  C4       1.0000 0.99690  0.96570  0.52450  Biso   1.000  C
  C5       1.0000 0.58690  0.66890  0.62600  Biso   1.000  C
  C6       1.0000 0.91310  0.16890  0.87400  Biso   1.000  C
  C7       1.0000 0.41310  0.33110  0.37400  Biso   1.000  C
  C8       1.0000 0.08690  0.83110  0.12600  Biso   1.000  C
  C9       1.0000 0.64800  0.68120  0.82440  Biso   1.000  C
  C10      1.0000 0.85200  0.18120  0.67560  Biso   1.000  C
  C11      1.0000 0.35200  0.31880  0.17560  Biso   1.000  C
  C12      1.0000 0.14800  0.81880  0.32440  Biso   1.000  C
  C13      1.0000 0.59810  0.75060  0.85790  Biso   1.000  C
  C14      1.0000 0.90190  0.25060  0.64210  Biso   1.000  C
  C15      1.0000 0.40190  0.24940  0.14210  Biso   1.000  C
  C16      1.0000 0.09810  0.74940  0.35790  Biso   1.000  C
  C17      1.0000 0.87800  0.66970  0.88370  Biso   1.000  C
  C18      1.0000 0.62200  0.16970  0.61630  Biso   1.000  C
  C19      1.0000 0.12200  0.33030  0.11630  Biso   1.000  C
  C20      1.0000 0.37800  0.83030  0.38370  Biso   1.000  C
  C21      1.0000 0.52220  0.64100  0.93230  Biso   1.000  C
  C22      1.0000 0.97780  0.14100  0.56770  Biso   1.000  C
  C23      1.0000 0.47780  0.35900  0.06770  Biso   1.000  C
  C24      1.0000 0.02220  0.85900  0.43230  Biso   1.000  C
  C25      1.0000 0.14200  0.55900  0.44920  Biso   1.000  C
  C26      1.0000 0.35800  0.05900  0.05080  Biso   1.000  C
  C27      1.0000 0.85800  0.44100  0.55080  Biso   1.000  C
  C28      1.0000 0.64200  0.94100  0.94920  Biso   1.000  C
  C29      1.0000 0.00710  0.55340  0.26970  Biso   1.000  C
  C30      1.0000 0.49290  0.05340  0.23030  Biso   1.000  C
  C31      1.0000 0.99290  0.44660  0.73030  Biso   1.000  C
  C32      1.0000 0.50710  0.94660  0.76970  Biso   1.000  C
  H1       1.0000 0.77540  0.60420  0.51050  Biso   1.000  H
  H2       1.0000 0.72460  0.10420  0.98950  Biso   1.000  H
  H3       1.0000 0.22460  0.39580  0.48950  Biso   1.000  H
  H4       1.0000 0.27540  0.89580  0.01050  Biso   1.000  H
  H5       1.0000 0.64180  0.70190  0.56470  Biso   1.000  H
  H6       1.0000 0.85820  0.20190  0.93530  Biso   1.000  H
  H7       1.0000 0.35820  0.29810  0.43530  Biso   1.000  H
  H8       1.0000 0.14180  0.79810  0.06470  Biso   1.000  H
  H9       1.0000 0.44170  0.66950  0.59650  Biso   1.000  H
  H10      1.0000 0.05830  0.16950  0.90350  Biso   1.000  H
  H11      1.0000 0.55830  0.33050  0.40350  Biso   1.000  H
  H12      1.0000 0.94170  0.83050  0.09650  Biso   1.000  H
  H13      1.0000 0.67290  0.77730  0.79320  Biso   1.000  H
  H14      1.0000 0.82710  0.27730  0.70680  Biso   1.000  H
  H15      1.0000 0.32710  0.22270  0.20680  Biso   1.000  H
  H16      1.0000 0.17290  0.72270  0.29320  Biso   1.000  H
  H17      1.0000 0.63480  0.75960  0.98030  Biso   1.000  H
  H18      1.0000 0.86520  0.25960  0.51970  Biso   1.000  H
  H19      1.0000 0.36520  0.24040  0.01970  Biso   1.000  H
  H20      1.0000 0.13480  0.74040  0.48030  Biso   1.000  H
  H21      1.0000 0.45560  0.75760  0.82100  Biso   1.000  H
  H22      1.0000 0.04440  0.25760  0.67900  Biso   1.000  H
  H23      1.0000 0.54440  0.24240  0.17900  Biso   1.000  H
  H24      1.0000 0.95560  0.74240  0.32100  Biso   1.000  H
  H25      1.0000 0.90870  0.62680  0.86290  Biso   1.000  H
  H26      1.0000 0.59130  0.12680  0.63710  Biso   1.000  H
  H27      1.0000 0.09130  0.37320  0.13710  Biso   1.000  H
  H28      1.0000 0.40870  0.87320  0.36290  Biso   1.000  H
  H29      1.0000 0.91500  0.67880  0.00610  Biso   1.000  H
  H30      1.0000 0.58500  0.17880  0.49390  Biso   1.000  H
  H31      1.0000 0.08500  0.32120  0.99390  Biso   1.000  H
  H32      1.0000 0.41500  0.82120  0.50610  Biso   1.000  H
  H33      1.0000 0.95270  0.69650  0.81880  Biso   1.000  H
  H34      1.0000 0.54730  0.19650  0.68120  Biso   1.000  H
  H35      1.0000 0.04730  0.30350  0.18120  Biso   1.000  H
  H36      1.0000 0.45270  0.80350  0.31880  Biso   1.000  H
  H37      1.0000 0.54500  0.66260  0.04230  Biso   1.000  H
  H38      1.0000 0.95500  0.16260  0.45770  Biso   1.000  H
  H39      1.0000 0.45500  0.33740  0.95770  Biso   1.000  H
  H40      1.0000 0.04500  0.83740  0.54230  Biso   1.000  H
  H41      1.0000 0.38660  0.64890  0.87290  Biso   1.000  H
  H42      1.0000 0.11340  0.14890  0.62710  Biso   1.000  H
  H43      1.0000 0.61340  0.35110  0.12710  Biso   1.000  H
  H44      1.0000 0.88660  0.85110  0.37290  Biso   1.000  H
  H45      1.0000 0.89730  0.58270  0.26150  Biso   1.000  H
  H46      1.0000 0.60270  0.08270  0.23850  Biso   1.000  H
  H47      1.0000 0.10270  0.41730  0.73850  Biso   1.000  H
  H48      1.0000 0.39730  0.91730  0.76150  Biso   1.000  H
  H49      1.0000 0.95370  0.51170  0.25440  Biso   1.000  H
  H50      1.0000 0.54630  0.01170  0.24560  Biso   1.000  H
  H51      1.0000 0.04630  0.48830  0.74560  Biso   1.000  H
  H52      1.0000 0.45370  0.98830  0.75440  Biso   1.000  H
  H53      1.0000 0.08550  0.56230  0.18060  Biso   1.000  H
  H54      1.0000 0.41450  0.06230  0.31940  Biso   1.000  H
  H55      1.0000 0.91450  0.43770  0.81940  Biso   1.000  H
  H56      1.0000 0.58550  0.93770  0.68060  Biso   1.000  H
