data_image0
_cell_length_a       9.767
_cell_length_b       11.164
_cell_length_c       14.523
_cell_angle_alpha    90
_cell_angle_beta     94.61
_cell_angle_gamma    90

_symmetry_space_group_name_H-M    "P 1"
_symmetry_int_tables_number       1

loop_
  _symmetry_equiv_pos_as_xyz
  'x, y, z'

loop_
  _atom_site_label
  _atom_site_occupancy
  _atom_site_fract_x
  _atom_site_fract_y
  _atom_site_fract_z
  _atom_site_thermal_displace_type
  _atom_site_B_iso_or_equiv
  _atom_site_type_symbol
  Cu1      1.0000 0.99607  0.59569  0.57174  Biso   1.000  Cu
  Cu2      1.0000 0.50393  0.09569  0.92826  Biso   1.000  Cu
  Cu3      1.0000 0.00393  0.40431  0.42826  Biso   1.000  Cu
  Cu4      1.0000 0.49607  0.90431  0.07174  Biso   1.000  Cu
  N1       1.0000 0.08860  0.75520  0.59630  Biso   1.000  N
  N2       1.0000 0.41140  0.25520  0.90370  Biso   1.000  N
  N3       1.0000 0.91140  0.24480  0.40370  Biso   1.000  N
  N4       1.0000 0.58860  0.74480  0.09630  Biso   1.000  N
  C1       1.0000 0.22410  0.78160  0.59160  Biso   1.000  C
  C2       1.0000 0.27590  0.28160  0.90840  Biso   1.000  C
  C3       1.0000 0.77590  0.21840  0.40840  Biso   1.000  C
  C4       1.0000 0.72410  0.71840  0.09160  Biso   1.000  C
  N5       1.0000 0.27600  0.89350  0.59580  Biso   1.000  N
  N6       1.0000 0.22400  0.39350  0.90420  Biso   1.000  N
  N7       1.0000 0.72400  0.10650  0.40420  Biso   1.000  N
  N8       1.0000 0.77600  0.60650  0.09580  Biso   1.000  N
  C5       1.0000 0.19060  0.98230  0.61220  Biso   1.000  C
  C6       1.0000 0.30940  0.48230  0.88780  Biso   1.000  C
  C7       1.0000 0.80940  0.01770  0.38780  Biso   1.000  C
  C8       1.0000 0.69060  0.51770  0.11220  Biso   1.000  C
  H1       1.0000 0.22560  0.06170  0.61560  Biso   1.000  H
  H2       1.0000 0.27440  0.56170  0.88440  Biso   1.000  H
  H3       1.0000 0.77440  0.93830  0.38440  Biso   1.000  H
  H4       1.0000 0.72560  0.43830  0.11560  Biso   1.000  H
  C9       1.0000 0.05520  0.96470  0.62450  Biso   1.000  C
  C10      1.0000 0.44480  0.46470  0.87550  Biso   1.000  C
  C11      1.0000 0.94480  0.03530  0.37550  Biso   1.000  C
  C12      1.0000 0.55520  0.53530  0.12450  Biso   1.000  C
  H5       1.0000 0.99720  0.02900  0.63930  Biso   1.000  H
  H6       1.0000 0.50280  0.52900  0.86070  Biso   1.000  H
  H7       1.0000 0.00280  0.97100  0.36070  Biso   1.000  H
  H8       1.0000 0.49720  0.47100  0.13930  Biso   1.000  H
  C13      1.0000 0.00650  0.84930  0.61430  Biso   1.000  C
  C14      1.0000 0.49350  0.34930  0.88570  Biso   1.000  C
  C15      1.0000 0.99350  0.15070  0.38570  Biso   1.000  C
  C16      1.0000 0.50650  0.65070  0.11430  Biso   1.000  C
  H9       1.0000 0.91170  0.83490  0.62000  Biso   1.000  H
  H10      1.0000 0.58830  0.33490  0.88000  Biso   1.000  H
  H11      1.0000 0.08830  0.16510  0.38000  Biso   1.000  H
  H12      1.0000 0.41170  0.66510  0.12000  Biso   1.000  H
  N9       1.0000 0.30990  0.69070  0.58040  Biso   1.000  N
  N10      1.0000 0.19010  0.19070  0.91960  Biso   1.000  N
  N11      1.0000 0.69010  0.30930  0.41960  Biso   1.000  N
  N12      1.0000 0.80990  0.80930  0.08040  Biso   1.000  N
  H13      1.0000 0.27520  0.61870  0.58630  Biso   1.000  H
  H14      1.0000 0.22480  0.11870  0.91370  Biso   1.000  H
  H15      1.0000 0.72480  0.38130  0.41370  Biso   1.000  H
  H16      1.0000 0.77520  0.88130  0.08630  Biso   1.000  H
  C17      1.0000 0.45310  0.69470  0.55960  Biso   1.000  C
  C18      1.0000 0.04690  0.19470  0.94040  Biso   1.000  C
  C19      1.0000 0.54690  0.30530  0.44040  Biso   1.000  C
  C20      1.0000 0.95310  0.80530  0.05960  Biso   1.000  C
  H17      1.0000 0.48000  0.77670  0.54250  Biso   1.000  H
  H18      1.0000 0.02000  0.27670  0.95750  Biso   1.000  H
  H19      1.0000 0.52000  0.22330  0.45750  Biso   1.000  H
  H20      1.0000 0.98000  0.72330  0.04250  Biso   1.000  H
  H21      1.0000 0.47020  0.63930  0.50860  Biso   1.000  H
  H22      1.0000 0.02980  0.13930  0.99140  Biso   1.000  H
  H23      1.0000 0.52980  0.36070  0.49140  Biso   1.000  H
  H24      1.0000 0.97020  0.86070  0.00860  Biso   1.000  H
  N13      1.0000 0.90450  0.60470  0.69130  Biso   1.000  N
  N14      1.0000 0.59550  0.10470  0.80870  Biso   1.000  N
  N15      1.0000 0.09550  0.39530  0.30870  Biso   1.000  N
  N16      1.0000 0.40450  0.89530  0.19130  Biso   1.000  N
  C21      1.0000 0.76830  0.60930  0.70410  Biso   1.000  C
  C22      1.0000 0.73170  0.10930  0.79590  Biso   1.000  C
  C23      1.0000 0.23170  0.39070  0.29590  Biso   1.000  C
  C24      1.0000 0.26830  0.89070  0.20410  Biso   1.000  C
  N17      1.0000 0.71630  0.59150  0.78610  Biso   1.000  N
  N18      1.0000 0.78370  0.09150  0.71390  Biso   1.000  N
  N19      1.0000 0.28370  0.40850  0.21390  Biso   1.000  N
  N20      1.0000 0.21630  0.90850  0.28610  Biso   1.000  N
  C25      1.0000 0.80440  0.56870  0.85760  Biso   1.000  C
  C26      1.0000 0.69560  0.06870  0.64240  Biso   1.000  C
  C27      1.0000 0.19560  0.43130  0.14240  Biso   1.000  C
  C28      1.0000 0.30440  0.93130  0.35760  Biso   1.000  C
  H25      1.0000 0.76910  0.55280  0.91550  Biso   1.000  H
  H26      1.0000 0.73090  0.05280  0.58450  Biso   1.000  H
  H27      1.0000 0.23090  0.44720  0.08450  Biso   1.000  H
  H28      1.0000 0.26910  0.94720  0.41550  Biso   1.000  H
  C29      1.0000 0.94370  0.56660  0.85320  Biso   1.000  C
  C30      1.0000 0.55630  0.06660  0.64680  Biso   1.000  C
  C31      1.0000 0.05630  0.43340  0.14680  Biso   1.000  C
  C32      1.0000 0.44370  0.93340  0.35320  Biso   1.000  C
  H29      1.0000 0.00510  0.55280  0.90620  Biso   1.000  H
  H30      1.0000 0.49490  0.05280  0.59380  Biso   1.000  H
  H31      1.0000 0.99490  0.44720  0.09380  Biso   1.000  H
  H32      1.0000 0.50510  0.94720  0.40620  Biso   1.000  H
  C33      1.0000 0.98970  0.58590  0.76680  Biso   1.000  C
  C34      1.0000 0.51030  0.08590  0.73320  Biso   1.000  C
  C35      1.0000 0.01030  0.41410  0.23320  Biso   1.000  C
  C36      1.0000 0.48970  0.91410  0.26680  Biso   1.000  C
  H33      1.0000 0.08590  0.58580  0.76080  Biso   1.000  H
  H34      1.0000 0.41410  0.08580  0.73920  Biso   1.000  H
  H35      1.0000 0.91410  0.41420  0.23920  Biso   1.000  H
  H36      1.0000 0.58590  0.91420  0.26080  Biso   1.000  H
  N21      1.0000 0.68130  0.63320  0.63110  Biso   1.000  N
  N22      1.0000 0.81870  0.13320  0.86890  Biso   1.000  N
  N23      1.0000 0.31870  0.36680  0.36890  Biso   1.000  N
  N24      1.0000 0.18130  0.86680  0.13110  Biso   1.000  N
  H37      1.0000 0.70870  0.63630  0.57480  Biso   1.000  H
  H38      1.0000 0.79130  0.13630  0.92520  Biso   1.000  H
  H39      1.0000 0.29130  0.36370  0.42520  Biso   1.000  H
  H40      1.0000 0.20870  0.86370  0.07480  Biso   1.000  H
  C37      1.0000 0.53090  0.65510  0.64980  Biso   1.000  C
  C38      1.0000 0.96910  0.15510  0.85020  Biso   1.000  C
  C39      1.0000 0.46910  0.34490  0.35020  Biso   1.000  C
  C40      1.0000 0.03090  0.84490  0.14980  Biso   1.000  C
  H41      1.0000 0.49000  0.58070  0.67250  Biso   1.000  H
  H42      1.0000 0.01000  0.08070  0.82750  Biso   1.000  H
  H43      1.0000 0.51000  0.41930  0.32750  Biso   1.000  H
  H44      1.0000 0.99000  0.91930  0.17250  Biso   1.000  H
  H45      1.0000 0.52540  0.71800  0.69740  Biso   1.000  H
  H46      1.0000 0.97460  0.21800  0.80260  Biso   1.000  H
  H47      1.0000 0.47460  0.28200  0.30260  Biso   1.000  H
  H48      1.0000 0.02540  0.78200  0.19740  Biso   1.000  H
  O1       1.0000 0.08410  0.55950  0.46029  Biso   1.000  O
  O2       1.0000 0.41590  0.05950  0.03971  Biso   1.000  O
  O3       1.0000 0.91590  0.44050  0.53971  Biso   1.000  O
  O4       1.0000 0.58410  0.94050  0.96029  Biso   1.000  O
  C41      1.0000 0.12010  0.64620  0.39340  Biso   1.000  C
  C42      1.0000 0.37990  0.14620  0.10660  Biso   1.000  C
  C43      1.0000 0.87990  0.35380  0.60660  Biso   1.000  C
  C44      1.0000 0.62010  0.85380  0.89340  Biso   1.000  C
  H49      1.0000 0.16330  0.60560  0.34340  Biso   1.000  H
  H50      1.0000 0.33670  0.10560  0.15660  Biso   1.000  H
  H51      1.0000 0.83670  0.39440  0.65660  Biso   1.000  H
  H52      1.0000 0.66330  0.89440  0.84340  Biso   1.000  H
  H53      1.0000 0.18460  0.70440  0.42300  Biso   1.000  H
  H54      1.0000 0.31540  0.20440  0.07700  Biso   1.000  H
  H55      1.0000 0.81540  0.29560  0.57700  Biso   1.000  H
  H56      1.0000 0.68460  0.79560  0.92300  Biso   1.000  H
  H57      1.0000 0.03710  0.68780  0.36810  Biso   1.000  H
  H58      1.0000 0.46290  0.18780  0.13190  Biso   1.000  H
  H59      1.0000 0.96290  0.31220  0.63190  Biso   1.000  H
  H60      1.0000 0.53710  0.81220  0.86810  Biso   1.000  H
  Cl1      1.0000 0.25675  0.33831  0.63112  Biso   1.000  Cl
  Cl2      1.0000 0.24325  0.83831  0.86888  Biso   1.000  Cl
  Cl3      1.0000 0.74325  0.66169  0.36888  Biso   1.000  Cl
  Cl4      1.0000 0.75675  0.16169  0.13112  Biso   1.000  Cl
  O5       1.0000 0.20550  0.45660  0.65070  Biso   1.000  O
  O6       1.0000 0.29450  0.95660  0.84930  Biso   1.000  O
  O7       1.0000 0.79450  0.54340  0.34930  Biso   1.000  O
  O8       1.0000 0.70550  0.04340  0.15070  Biso   1.000  O
  O9       1.0000 0.19640  0.29640  0.54280  Biso   1.000  O
  O10      1.0000 0.30360  0.79640  0.95720  Biso   1.000  O
  O11      1.0000 0.80360  0.70360  0.45720  Biso   1.000  O
  O12      1.0000 0.69640  0.20360  0.04280  Biso   1.000  O
  O13      1.0000 0.22240  0.25680  0.70190  Biso   1.000  O
  O14      1.0000 0.27760  0.75680  0.79810  Biso   1.000  O
  O15      1.0000 0.77760  0.74320  0.29810  Biso   1.000  O
  O16      1.0000 0.72240  0.24320  0.20190  Biso   1.000  O
  O17      1.0000 0.40040  0.34240  0.62900  Biso   1.000  O
  O18      1.0000 0.09960  0.84240  0.87100  Biso   1.000  O
  O19      1.0000 0.59960  0.65760  0.37100  Biso   1.000  O
  O20      1.0000 0.90040  0.15760  0.12900  Biso   1.000  O
  C45      1.0000 0.45990  0.71300  0.60060  Biso   1.000  C
  C46      1.0000 0.04010  0.21300  0.89940  Biso   1.000  C
  C47      1.0000 0.54010  0.28700  0.39940  Biso   1.000  C
  C48      1.0000 0.95990  0.78700  0.10060  Biso   1.000  C
  C49      1.0000 0.46500  0.39920  0.38060  Biso   1.000  C
  C50      1.0000 0.03500  0.89920  0.11940  Biso   1.000  C
  C51      1.0000 0.53500  0.60080  0.61940  Biso   1.000  C
  C52      1.0000 0.96500  0.10080  0.88060  Biso   1.000  C
  H61      1.0000 0.49640  0.75360  0.54710  Biso   1.000  H
  H62      1.0000 0.00360  0.25360  0.95290  Biso   1.000  H
  H63      1.0000 0.50360  0.24640  0.45290  Biso   1.000  H
  H64      1.0000 0.99640  0.74640  0.04710  Biso   1.000  H
  H65      1.0000 0.47430  0.76660  0.65480  Biso   1.000  H
  H66      1.0000 0.02570  0.26660  0.84520  Biso   1.000  H
  H67      1.0000 0.52570  0.23340  0.34520  Biso   1.000  H
  H68      1.0000 0.97430  0.73340  0.15480  Biso   1.000  H
  H69      1.0000 0.48240  0.45580  0.43270  Biso   1.000  H
  H70      1.0000 0.01760  0.95580  0.06730  Biso   1.000  H
  H71      1.0000 0.51760  0.54420  0.56730  Biso   1.000  H
  H72      1.0000 0.98240  0.04420  0.93270  Biso   1.000  H
  H73      1.0000 0.49400  0.43730  0.32380  Biso   1.000  H
  H74      1.0000 0.00600  0.93730  0.17620  Biso   1.000  H
  H75      1.0000 0.50600  0.56270  0.67620  Biso   1.000  H
  H76      1.0000 0.99400  0.06270  0.82380  Biso   1.000  H
