data_image0
_cell_length_a       8.06
_cell_length_b       8.9
_cell_length_c       14.4
_cell_angle_alpha    92.2
_cell_angle_beta     99.7
_cell_angle_gamma    103.6

_symmetry_space_group_name_H-M    "P 1"
_symmetry_int_tables_number       1

loop_
  _symmetry_equiv_pos_as_xyz
  'x, y, z'

loop_
  _atom_site_label
  _atom_site_occupancy
  _atom_site_fract_x
  _atom_site_fract_y
  _atom_site_fract_z
  _atom_site_thermal_displace_type
  _atom_site_B_iso_or_equiv
  _atom_site_type_symbol
  Cu1      1.0000 0.26526  0.01257  0.65963  Biso   1.000  Cu
  Cu2      1.0000 0.73474  0.98743  0.34037  Biso   1.000  Cu
  Mo1      1.0000 0.38556  0.56946  0.41023  Biso   1.000  Mo
  Mo2      1.0000 0.61444  0.43054  0.58977  Biso   1.000  Mo
  Mo3      1.0000 0.11336  0.58789  0.59841  Biso   1.000  Mo
  Mo4      1.0000 0.88664  0.41211  0.40159  Biso   1.000  Mo
  Mo5      1.0000 0.83088  0.77374  0.54419  Biso   1.000  Mo
  Mo6      1.0000 0.16912  0.22626  0.45581  Biso   1.000  Mo
  O1       1.0000 0.41140  0.95940  0.57440  Biso   1.000  O
  O2       1.0000 0.58860  0.04060  0.42560  Biso   1.000  O
  H1       1.0000 0.48970  0.92710  0.60460  Biso   1.000  H
  H2       1.0000 0.51030  0.07290  0.39540  Biso   1.000  H
  H3       1.0000 0.38510  0.97290  0.50820  Biso   1.000  H
  H4       1.0000 0.61490  0.02710  0.49180  Biso   1.000  H
  O3       1.0000 0.18110  0.57790  0.71569  Biso   1.000  O
  O4       1.0000 0.81890  0.42210  0.28431  Biso   1.000  O
  O5       1.0000 0.30580  0.65050  0.55355  Biso   1.000  O
  O6       1.0000 0.69420  0.34950  0.44645  Biso   1.000  O
  O7       1.0000 0.60850  0.62230  0.49968  Biso   1.000  O
  O8       1.0000 0.39150  0.37770  0.50032  Biso   1.000  O
  O9       1.0000 0.06540  0.80130  0.60049  Biso   1.000  O
  O10      1.0000 0.93460  0.19870  0.39951  Biso   1.000  O
  O11      1.0000 0.17230  0.12770  0.55760  Biso   1.000  O
  O12      1.0000 0.82770  0.87230  0.44240  Biso   1.000  O
  O13      1.0000 0.76400  0.88370  0.62130  Biso   1.000  O
  O14      1.0000 0.23600  0.11630  0.37870  Biso   1.000  O
  O15      1.0000 0.84250  0.56560  0.61307  Biso   1.000  O
  O16      1.0000 0.15750  0.43440  0.38693  Biso   1.000  O
  O17      1.0000 0.36000  0.74710  0.38220  Biso   1.000  O
  O18      1.0000 0.64000  0.25290  0.61780  Biso   1.000  O
  O19      1.0000 0.04520  0.39060  0.54893  Biso   1.000  O
  O20      1.0000 0.95480  0.60940  0.45107  Biso   1.000  O
  O21      1.0000 0.45790  0.50530  0.31600  Biso   1.000  O
  O22      1.0000 0.54210  0.49470  0.68400  Biso   1.000  O
  N1       1.0000 0.41610  0.94850  0.76830  Biso   1.000  N
  N2       1.0000 0.58390  0.05150  0.23170  Biso   1.000  N
  N3       1.0000 0.55730  0.93240  0.91370  Biso   1.000  N
  N4       1.0000 0.44270  0.06760  0.08630  Biso   1.000  N
  N5       1.0000 0.58060  0.82530  0.85090  Biso   1.000  N
  N6       1.0000 0.41940  0.17470  0.14910  Biso   1.000  N
  N7       1.0000 0.11980  0.08120  0.74120  Biso   1.000  N
  N8       1.0000 0.88020  0.91880  0.25880  Biso   1.000  N
  N9       1.0000 0.95240  0.08150  0.84980  Biso   1.000  N
  N10      1.0000 0.04760  0.91850  0.15020  Biso   1.000  N
  N11      1.0000 0.95880  0.20750  0.79940  Biso   1.000  N
  N12      1.0000 0.04120  0.79250  0.20060  Biso   1.000  N
  C1       1.0000 0.49750  0.83560  0.76540  Biso   1.000  C
  C2       1.0000 0.50250  0.16440  0.23460  Biso   1.000  C
  H5       1.0000 0.49600  0.77370  0.71170  Biso   1.000  H
  H6       1.0000 0.50400  0.22630  0.28830  Biso   1.000  H
  C3       1.0000 0.45760  0.00400  0.86040  Biso   1.000  C
  C4       1.0000 0.54240  0.99600  0.13960  Biso   1.000  C
  H7       1.0000 0.41860  0.08580  0.88370  Biso   1.000  H
  H8       1.0000 0.58140  0.91420  0.11630  Biso   1.000  H
  C5       1.0000 0.68220  0.71440  0.88370  Biso   1.000  C
  C6       1.0000 0.31780  0.28560  0.11630  Biso   1.000  C
  H9       1.0000 0.79380  0.77010  0.92010  Biso   1.000  H
  H10      1.0000 0.20620  0.22990  0.07990  Biso   1.000  H
  H11      1.0000 0.70300  0.65790  0.82960  Biso   1.000  H
  H12      1.0000 0.29700  0.34210  0.17040  Biso   1.000  H
  C7       1.0000 0.58830  0.60230  0.94360  Biso   1.000  C
  C8       1.0000 0.41170  0.39770  0.05640  Biso   1.000  C
  C9       1.0000 0.45940  0.47570  0.90220  Biso   1.000  C
  C10      1.0000 0.54060  0.52430  0.09780  Biso   1.000  C
  H13      1.0000 0.43150  0.45820  0.83680  Biso   1.000  H
  H14      1.0000 0.56850  0.54180  0.16320  Biso   1.000  H
  C11      1.0000 0.62890  0.62590  0.04150  Biso   1.000  C
  C12      1.0000 0.37110  0.37410  0.95850  Biso   1.000  C
  H15      1.0000 0.71650  0.71080  0.06980  Biso   1.000  H
  H16      1.0000 0.28350  0.28920  0.93020  Biso   1.000  H
  C13      1.0000 0.05510  0.20480  0.73470  Biso   1.000  C
  C14      1.0000 0.94490  0.79520  0.26530  Biso   1.000  C
  H17      1.0000 0.07490  0.27830  0.69110  Biso   1.000  H
  H18      1.0000 0.92510  0.72170  0.30890  Biso   1.000  H
  C15      1.0000 0.05190  0.00970  0.81270  Biso   1.000  C
  C16      1.0000 0.94810  0.99030  0.18730  Biso   1.000  C
  H19      1.0000 0.07440  0.91750  0.83340  Biso   1.000  H
  H20      1.0000 0.92560  0.08250  0.16660  Biso   1.000  H
  C17      1.0000 0.86430  0.32480  0.81800  Biso   1.000  C
  C18      1.0000 0.13570  0.67520  0.18200  Biso   1.000  C
  H21      1.0000 0.74290  0.27400  0.81510  Biso   1.000  H
  H22      1.0000 0.25710  0.72600  0.18490  Biso   1.000  H
  H23      1.0000 0.87120  0.39670  0.76910  Biso   1.000  H
  H24      1.0000 0.12880  0.60330  0.23090  Biso   1.000  H
  C19      1.0000 0.93530  0.41440  0.91330  Biso   1.000  C
  C20      1.0000 0.06470  0.58560  0.08670  Biso   1.000  C
  C21      1.0000 0.88680  0.35610  0.99510  Biso   1.000  C
  C22      1.0000 0.11320  0.64390  0.00490  Biso   1.000  C
  H25      1.0000 0.81030  0.25920  0.99220  Biso   1.000  H
  H26      1.0000 0.18970  0.74080  0.00780  Biso   1.000  H
  C23      1.0000 0.04800  0.55780  0.91860  Biso   1.000  C
  C24      1.0000 0.95200  0.44220  0.08140  Biso   1.000  C
  H27      1.0000 0.08090  0.59770  0.86380  Biso   1.000  H
  H28      1.0000 0.91910  0.40230  0.13620  Biso   1.000  H
