data_image0
_cell_length_a       8.13
_cell_length_b       29.67
_cell_length_c       8.9
_cell_angle_alpha    90
_cell_angle_beta     102.7
_cell_angle_gamma    90

_symmetry_space_group_name_H-M    "P 1"
_symmetry_int_tables_number       1

loop_
  _symmetry_equiv_pos_as_xyz
  'x, y, z'

loop_
  _atom_site_label
  _atom_site_occupancy
  _atom_site_fract_x
  _atom_site_fract_y
  _atom_site_fract_z
  _atom_site_thermal_displace_type
  _atom_site_B_iso_or_equiv
  _atom_site_type_symbol
  Mo1      1.0000 0.32220  0.50074  0.55150  Biso   1.000  Mo
  Mo2      1.0000 0.67780  0.00074  0.94850  Biso   1.000  Mo
  Mo3      1.0000 0.67780  0.49926  0.44850  Biso   1.000  Mo
  Mo4      1.0000 0.32220  0.99926  0.05150  Biso   1.000  Mo
  Mo5      1.0000 0.58730  0.45639  0.94849  Biso   1.000  Mo
  Mo6      1.0000 0.41270  0.95639  0.55151  Biso   1.000  Mo
  Mo7      1.0000 0.41270  0.54361  0.05151  Biso   1.000  Mo
  Mo8      1.0000 0.58730  0.04361  0.44849  Biso   1.000  Mo
  Mo9      1.0000 0.54630  0.57938  0.74823  Biso   1.000  Mo
  Mo10     1.0000 0.45370  0.07938  0.75177  Biso   1.000  Mo
  Mo11     1.0000 0.45370  0.42062  0.25177  Biso   1.000  Mo
  Mo12     1.0000 0.54630  0.92062  0.24823  Biso   1.000  Mo
  Cu1      1.0000 0.98660  0.59055  0.94260  Biso   1.000  Cu
  Cu2      1.0000 0.01340  0.09055  0.55740  Biso   1.000  Cu
  Cu3      1.0000 0.01340  0.40945  0.05740  Biso   1.000  Cu
  Cu4      1.0000 0.98660  0.90945  0.44260  Biso   1.000  Cu
  O1       1.0000 0.91700  0.53490  0.04550  Biso   1.000  O
  O2       1.0000 0.08300  0.03490  0.45450  Biso   1.000  O
  O3       1.0000 0.08300  0.46510  0.95450  Biso   1.000  O
  O4       1.0000 0.91700  0.96510  0.54550  Biso   1.000  O
  O5       1.0000 0.48470  0.59630  0.94840  Biso   1.000  O
  O6       1.0000 0.51530  0.09630  0.55160  Biso   1.000  O
  O7       1.0000 0.51530  0.40370  0.05160  Biso   1.000  O
  O8       1.0000 0.48470  0.90370  0.44840  Biso   1.000  O
  O9       1.0000 0.02110  0.55470  0.74330  Biso   1.000  O
  O10      1.0000 0.97890  0.05470  0.75670  Biso   1.000  O
  O11      1.0000 0.97890  0.44530  0.25670  Biso   1.000  O
  O12      1.0000 0.02110  0.94530  0.24330  Biso   1.000  O
  O13      1.0000 0.33390  0.53660  0.74580  Biso   1.000  O
  O14      1.0000 0.66610  0.03660  0.75420  Biso   1.000  O
  O15      1.0000 0.66610  0.46340  0.25420  Biso   1.000  O
  O16      1.0000 0.33390  0.96340  0.24580  Biso   1.000  O
  O17      1.0000 0.55320  0.53050  0.59240  Biso   1.000  O
  O18      1.0000 0.44680  0.03050  0.90760  Biso   1.000  O
  O19      1.0000 0.44680  0.46950  0.40760  Biso   1.000  O
  O20      1.0000 0.55320  0.96950  0.09240  Biso   1.000  O
  O21      1.0000 0.73930  0.59620  0.79450  Biso   1.000  O
  O22      1.0000 0.26070  0.09620  0.70550  Biso   1.000  O
  O23      1.0000 0.26070  0.40380  0.20550  Biso   1.000  O
  O24      1.0000 0.73930  0.90380  0.29450  Biso   1.000  O
  O25      1.0000 0.22240  0.53610  0.40420  Biso   1.000  O
  O26      1.0000 0.77760  0.03610  0.09580  Biso   1.000  O
  O27      1.0000 0.77760  0.46390  0.59580  Biso   1.000  O
  O28      1.0000 0.22240  0.96390  0.90420  Biso   1.000  O
  O29      1.0000 0.45210  0.61920  0.61290  Biso   1.000  O
  O30      1.0000 0.54790  0.11920  0.88710  Biso   1.000  O
  O31      1.0000 0.54790  0.38080  0.38710  Biso   1.000  O
  O32      1.0000 0.45210  0.88080  0.11290  Biso   1.000  O
  O33      1.0000 0.48920  0.44940  0.74450  Biso   1.000  O
  O34      1.0000 0.51080  0.94940  0.75550  Biso   1.000  O
  O35      1.0000 0.51080  0.55060  0.25550  Biso   1.000  O
  O36      1.0000 0.48920  0.05060  0.24450  Biso   1.000  O
  O37      1.0000 0.61550  0.51900  0.95720  Biso   1.000  O
  O38      1.0000 0.38450  0.01900  0.54280  Biso   1.000  O
  O39      1.0000 0.38450  0.48100  0.04280  Biso   1.000  O
  O40      1.0000 0.61550  0.98100  0.45720  Biso   1.000  O
  O41      1.0000 0.76920  0.43620  0.95180  Biso   1.000  O
  O42      1.0000 0.23080  0.93620  0.54820  Biso   1.000  O
  O43      1.0000 0.23080  0.56380  0.04820  Biso   1.000  O
  O44      1.0000 0.76920  0.06380  0.45180  Biso   1.000  O
  O45      1.0000 0.19060  0.45960  0.56150  Biso   1.000  O
  O46      1.0000 0.80940  0.95960  0.93850  Biso   1.000  O
  O47      1.0000 0.80940  0.54040  0.43850  Biso   1.000  O
  O48      1.0000 0.19060  0.04040  0.06150  Biso   1.000  O
  C1       1.0000 0.06100  0.63230  0.29000  Biso   1.000  C
  C2       1.0000 0.93900  0.13230  0.21000  Biso   1.000  C
  C3       1.0000 0.93900  0.36770  0.71000  Biso   1.000  C
  C4       1.0000 0.06100  0.86770  0.79000  Biso   1.000  C
  H1       1.0000 0.17770  0.63010  0.30480  Biso   1.000  H
  H2       1.0000 0.82230  0.13010  0.19520  Biso   1.000  H
  H3       1.0000 0.82230  0.36990  0.69520  Biso   1.000  H
  H4       1.0000 0.17770  0.86990  0.80480  Biso   1.000  H
  C5       1.0000 0.80600  0.62900  0.17900  Biso   1.000  C
  C6       1.0000 0.19400  0.12900  0.32100  Biso   1.000  C
  C7       1.0000 0.19400  0.37100  0.82100  Biso   1.000  C
  C8       1.0000 0.80600  0.87100  0.67900  Biso   1.000  C
  H5       1.0000 0.70280  0.62360  0.11280  Biso   1.000  H
  H6       1.0000 0.29720  0.12360  0.38720  Biso   1.000  H
  H7       1.0000 0.29720  0.37640  0.88720  Biso   1.000  H
  H8       1.0000 0.70280  0.87640  0.61280  Biso   1.000  H
  C9       1.0000 0.70900  0.65220  0.43000  Biso   1.000  C
  C10      1.0000 0.29100  0.15220  0.07000  Biso   1.000  C
  C11      1.0000 0.29100  0.34780  0.57000  Biso   1.000  C
  C12      1.0000 0.70900  0.84780  0.93000  Biso   1.000  C
  H9       1.0000 0.76570  0.66200  0.53260  Biso   1.000  H
  H10      1.0000 0.23430  0.16200  0.96740  Biso   1.000  H
  H11      1.0000 0.23430  0.33800  0.46740  Biso   1.000  H
  H12      1.0000 0.76570  0.83800  0.03260  Biso   1.000  H
  H13      1.0000 0.64690  0.62470  0.43920  Biso   1.000  H
  H14      1.0000 0.35310  0.12470  0.06080  Biso   1.000  H
  H15      1.0000 0.35310  0.37530  0.56080  Biso   1.000  H
  H16      1.0000 0.64690  0.87530  0.93920  Biso   1.000  H
  C13      1.0000 0.59400  0.68800  0.35000  Biso   1.000  C
  C14      1.0000 0.40600  0.18800  0.15000  Biso   1.000  C
  C15      1.0000 0.40600  0.31200  0.65000  Biso   1.000  C
  C16      1.0000 0.59400  0.81200  0.85000  Biso   1.000  C
  C17      1.0000 0.45500  0.67550  0.25000  Biso   1.000  C
  C18      1.0000 0.54500  0.17550  0.25000  Biso   1.000  C
  C19      1.0000 0.54500  0.32450  0.75000  Biso   1.000  C
  C20      1.0000 0.45500  0.82450  0.75000  Biso   1.000  C
  H17      1.0000 0.43060  0.64510  0.23250  Biso   1.000  H
  H18      1.0000 0.56940  0.14510  0.26750  Biso   1.000  H
  H19      1.0000 0.56940  0.35490  0.76750  Biso   1.000  H
  H20      1.0000 0.43060  0.85490  0.73250  Biso   1.000  H
  C21      1.0000 0.35000  0.70730  0.17200  Biso   1.000  C
  C22      1.0000 0.65000  0.20730  0.32800  Biso   1.000  C
  C23      1.0000 0.65000  0.29270  0.82800  Biso   1.000  C
  C24      1.0000 0.35000  0.79270  0.67200  Biso   1.000  C
  H21      1.0000 0.25490  0.69820  0.09990  Biso   1.000  H
  H22      1.0000 0.74510  0.19820  0.40010  Biso   1.000  H
  H23      1.0000 0.74510  0.30180  0.90010  Biso   1.000  H
  H24      1.0000 0.25490  0.80180  0.59990  Biso   1.000  H
  C25      1.0000 0.38000  0.75290  0.19600  Biso   1.000  C
  C26      1.0000 0.62000  0.25290  0.30400  Biso   1.000  C
  C27      1.0000 0.62000  0.24710  0.80400  Biso   1.000  C
  C28      1.0000 0.38000  0.74710  0.69600  Biso   1.000  C
  C29      1.0000 0.52100  0.76560  0.30200  Biso   1.000  C
  C30      1.0000 0.47900  0.26560  0.19800  Biso   1.000  C
  C31      1.0000 0.47900  0.23440  0.69800  Biso   1.000  C
  C32      1.0000 0.52100  0.73440  0.80200  Biso   1.000  C
  H25      1.0000 0.54590  0.79590  0.32110  Biso   1.000  H
  H26      1.0000 0.45410  0.29590  0.17890  Biso   1.000  H
  H27      1.0000 0.45410  0.20410  0.67890  Biso   1.000  H
  H28      1.0000 0.54590  0.70410  0.82110  Biso   1.000  H
  C33      1.0000 0.62300  0.73370  0.37900  Biso   1.000  C
  C34      1.0000 0.37700  0.23370  0.12100  Biso   1.000  C
  C35      1.0000 0.37700  0.26630  0.62100  Biso   1.000  C
  C36      1.0000 0.62300  0.76630  0.87900  Biso   1.000  C
  H29      1.0000 0.71670  0.74240  0.45320  Biso   1.000  H
  H30      1.0000 0.28330  0.24240  0.04680  Biso   1.000  H
  H31      1.0000 0.28330  0.25760  0.54680  Biso   1.000  H
  H32      1.0000 0.71670  0.75760  0.95320  Biso   1.000  H
  C37      1.0000 0.26600  0.78740  0.10700  Biso   1.000  C
  C38      1.0000 0.73400  0.28740  0.39300  Biso   1.000  C
  C39      1.0000 0.73400  0.21260  0.89300  Biso   1.000  C
  C40      1.0000 0.26600  0.71260  0.60700  Biso   1.000  C
  H33      1.0000 0.18980  0.77370  0.01940  Biso   1.000  H
  H34      1.0000 0.81020  0.27370  0.48060  Biso   1.000  H
  H35      1.0000 0.81020  0.22630  0.98060  Biso   1.000  H
  H36      1.0000 0.18980  0.72630  0.51940  Biso   1.000  H
  H37      1.0000 0.33080  0.81060  0.06870  Biso   1.000  H
  H38      1.0000 0.66920  0.31060  0.43130  Biso   1.000  H
  H39      1.0000 0.66920  0.18940  0.93130  Biso   1.000  H
  H40      1.0000 0.33080  0.68940  0.56870  Biso   1.000  H
  C41      1.0000 0.98400  0.81120  0.33600  Biso   1.000  C
  C42      1.0000 0.01600  0.31120  0.16400  Biso   1.000  C
  C43      1.0000 0.01600  0.18880  0.66400  Biso   1.000  C
  C44      1.0000 0.98400  0.68880  0.83600  Biso   1.000  C
  H41      1.0000 0.89230  0.80350  0.37700  Biso   1.000  H
  H42      1.0000 0.10770  0.30350  0.12300  Biso   1.000  H
  H43      1.0000 0.10770  0.19650  0.62300  Biso   1.000  H
  H44      1.0000 0.89230  0.69650  0.87700  Biso   1.000  H
  C45      1.0000 0.17200  0.84900  0.27000  Biso   1.000  C
  C46      1.0000 0.82800  0.34900  0.23000  Biso   1.000  C
  C47      1.0000 0.82800  0.15100  0.73000  Biso   1.000  C
  C48      1.0000 0.17200  0.65100  0.77000  Biso   1.000  C
  H45      1.0000 0.24390  0.87180  0.25240  Biso   1.000  H
  H46      1.0000 0.75610  0.37180  0.24760  Biso   1.000  H
  H47      1.0000 0.75610  0.12820  0.74760  Biso   1.000  H
  H48      1.0000 0.24390  0.62820  0.75240  Biso   1.000  H
  N1       1.0000 0.94600  0.62260  0.14500  Biso   1.000  N
  N2       1.0000 0.05400  0.12260  0.35500  Biso   1.000  N
  N3       1.0000 0.05400  0.37740  0.85500  Biso   1.000  N
  N4       1.0000 0.94600  0.87740  0.64500  Biso   1.000  N
  N5       1.0000 0.97700  0.64550  0.40900  Biso   1.000  N
  N6       1.0000 0.02300  0.14550  0.09100  Biso   1.000  N
  N7       1.0000 0.02300  0.35450  0.59100  Biso   1.000  N
  N8       1.0000 0.97700  0.85450  0.90900  Biso   1.000  N
  N9       1.0000 0.82700  0.64550  0.33400  Biso   1.000  N
  N10      1.0000 0.17300  0.14550  0.16600  Biso   1.000  N
  N11      1.0000 0.17300  0.35450  0.66600  Biso   1.000  N
  N12      1.0000 0.82700  0.85450  0.83400  Biso   1.000  N
  N13      1.0000 0.17200  0.80660  0.21400  Biso   1.000  N
  N14      1.0000 0.82800  0.30660  0.28600  Biso   1.000  N
  N15      1.0000 0.82800  0.19340  0.78600  Biso   1.000  N
  N16      1.0000 0.17200  0.69340  0.71400  Biso   1.000  N
  N17      1.0000 0.06200  0.78240  0.25700  Biso   1.000  N
  N18      1.0000 0.93800  0.28240  0.24300  Biso   1.000  N
  N19      1.0000 0.93800  0.21760  0.74300  Biso   1.000  N
  N20      1.0000 0.06200  0.71760  0.75700  Biso   1.000  N
  N21      1.0000 0.05700  0.85350  0.34980  Biso   1.000  N
  N22      1.0000 0.94300  0.35350  0.15020  Biso   1.000  N
  N23      1.0000 0.94300  0.14650  0.65020  Biso   1.000  N
  N24      1.0000 0.05700  0.64650  0.84980  Biso   1.000  N
