data_image0
_cell_length_a       12.4
_cell_length_b       15.3
_cell_length_c       20.09
_cell_angle_alpha    90
_cell_angle_beta     103.7
_cell_angle_gamma    90

_symmetry_space_group_name_H-M    "P 1"
_symmetry_int_tables_number       1

loop_
  _symmetry_equiv_pos_as_xyz
  'x, y, z'

loop_
  _atom_site_label
  _atom_site_occupancy
  _atom_site_fract_x
  _atom_site_fract_y
  _atom_site_fract_z
  _atom_site_thermal_displace_type
  _atom_site_B_iso_or_equiv
  _atom_site_type_symbol
  Mo1      1.0000 0.86294  0.97465  0.12878  Biso   1.000  Mo
  Mo2      1.0000 0.13706  0.47465  0.37122  Biso   1.000  Mo
  Mo3      1.0000 0.13706  0.02535  0.87122  Biso   1.000  Mo
  Mo4      1.0000 0.86294  0.52535  0.62878  Biso   1.000  Mo
  Mo5      1.0000 0.13730  0.94714  0.18103  Biso   1.000  Mo
  Mo6      1.0000 0.86270  0.44714  0.31897  Biso   1.000  Mo
  Mo7      1.0000 0.86270  0.05286  0.81897  Biso   1.000  Mo
  Mo8      1.0000 0.13730  0.55286  0.68103  Biso   1.000  Mo
  Mo9      1.0000 0.74329  0.99718  0.96517  Biso   1.000  Mo
  Mo10     1.0000 0.25671  0.49718  0.53483  Biso   1.000  Mo
  Mo11     1.0000 0.25671  0.00282  0.03483  Biso   1.000  Mo
  Mo12     1.0000 0.74329  0.50282  0.46517  Biso   1.000  Mo
  Mo13     1.0000 0.00454  0.88650  0.00906  Biso   1.000  Mo
  Mo14     1.0000 0.99546  0.38650  0.49094  Biso   1.000  Mo
  Mo15     1.0000 0.99546  0.11350  0.99094  Biso   1.000  Mo
  Mo16     1.0000 0.00454  0.61350  0.50906  Biso   1.000  Mo
  Cu1      1.0000 0.84947  0.21510  0.21814  Biso   1.000  Cu
  Cu2      1.0000 0.15053  0.71510  0.28186  Biso   1.000  Cu
  Cu3      1.0000 0.15053  0.78490  0.78186  Biso   1.000  Cu
  Cu4      1.0000 0.84947  0.28490  0.71814  Biso   1.000  Cu
  N1       1.0000 0.75580  0.27730  0.13720  Biso   1.000  N
  N2       1.0000 0.24420  0.77730  0.36280  Biso   1.000  N
  N3       1.0000 0.24420  0.72270  0.86280  Biso   1.000  N
  N4       1.0000 0.75580  0.22270  0.63720  Biso   1.000  N
  N5       1.0000 0.63730  0.37510  0.07800  Biso   1.000  N
  N6       1.0000 0.36270  0.87510  0.42200  Biso   1.000  N
  N7       1.0000 0.36270  0.62490  0.92200  Biso   1.000  N
  N8       1.0000 0.63730  0.12490  0.57800  Biso   1.000  N
  N9       1.0000 0.64540  0.30480  0.03890  Biso   1.000  N
  N10      1.0000 0.35460  0.80480  0.46110  Biso   1.000  N
  N11      1.0000 0.35460  0.69520  0.96110  Biso   1.000  N
  N12      1.0000 0.64540  0.19520  0.53890  Biso   1.000  N
  N13      1.0000 0.93590  0.34980  0.80120  Biso   1.000  N
  N14      1.0000 0.06410  0.84980  0.69880  Biso   1.000  N
  N15      1.0000 0.06410  0.65020  0.19880  Biso   1.000  N
  N16      1.0000 0.93590  0.15020  0.30120  Biso   1.000  N
  N17      1.0000 0.00120  0.45480  0.87820  Biso   1.000  N
  N18      1.0000 0.99880  0.95480  0.62180  Biso   1.000  N
  N19      1.0000 0.99880  0.54520  0.12180  Biso   1.000  N
  N20      1.0000 0.00120  0.04520  0.37820  Biso   1.000  N
  N21      1.0000 0.04270  0.37550  0.90130  Biso   1.000  N
  N22      1.0000 0.95730  0.87550  0.59870  Biso   1.000  N
  N23      1.0000 0.95730  0.62450  0.09870  Biso   1.000  N
  N24      1.0000 0.04270  0.12450  0.40130  Biso   1.000  N
  N25      1.0000 0.98880  0.24460  0.18990  Biso   1.000  N
  N26      1.0000 0.01120  0.74460  0.31010  Biso   1.000  N
  N27      1.0000 0.01120  0.75540  0.81010  Biso   1.000  N
  N28      1.0000 0.98880  0.25540  0.68990  Biso   1.000  N
  N29      1.0000 0.11180  0.31640  0.14430  Biso   1.000  N
  N30      1.0000 0.88820  0.81640  0.35570  Biso   1.000  N
  N31      1.0000 0.88820  0.68360  0.85570  Biso   1.000  N
  N32      1.0000 0.11180  0.18360  0.64430  Biso   1.000  N
  N33      1.0000 0.15900  0.24620  0.18070  Biso   1.000  N
  N34      1.0000 0.84100  0.74620  0.31930  Biso   1.000  N
  N35      1.0000 0.84100  0.75380  0.81930  Biso   1.000  N
  N36      1.0000 0.15900  0.25380  0.68070  Biso   1.000  N
  N37      1.0000 0.28950  0.68250  0.25330  Biso   1.000  N
  N38      1.0000 0.71050  0.18250  0.24670  Biso   1.000  N
  N39      1.0000 0.71050  0.31750  0.74670  Biso   1.000  N
  N40      1.0000 0.28950  0.81750  0.75330  Biso   1.000  N
  N41      1.0000 0.40540  0.65820  0.18610  Biso   1.000  N
  N42      1.0000 0.59460  0.15820  0.31390  Biso   1.000  N
  N43      1.0000 0.59460  0.34180  0.81390  Biso   1.000  N
  N44      1.0000 0.40540  0.84180  0.68610  Biso   1.000  N
  N45      1.0000 0.43510  0.61120  0.24300  Biso   1.000  N
  N46      1.0000 0.56490  0.11120  0.25700  Biso   1.000  N
  N47      1.0000 0.56490  0.38880  0.75700  Biso   1.000  N
  N48      1.0000 0.43510  0.88880  0.74300  Biso   1.000  N
  O1       1.0000 0.23670  0.00580  0.23450  Biso   1.000  O
  O2       1.0000 0.76330  0.50580  0.26550  Biso   1.000  O
  O3       1.0000 0.76330  0.99420  0.76550  Biso   1.000  O
  O4       1.0000 0.23670  0.49420  0.73450  Biso   1.000  O
  O5       1.0000 0.83270  0.90840  0.18820  Biso   1.000  O
  O6       1.0000 0.16730  0.40840  0.31180  Biso   1.000  O
  O7       1.0000 0.16730  0.09160  0.81180  Biso   1.000  O
  O8       1.0000 0.83270  0.59160  0.68820  Biso   1.000  O
  O9       1.0000 0.06240  0.78770  0.00300  Biso   1.000  O
  O10      1.0000 0.93760  0.28770  0.49700  Biso   1.000  O
  O11      1.0000 0.93760  0.21230  0.99700  Biso   1.000  O
  O12      1.0000 0.06240  0.71230  0.50300  Biso   1.000  O
  O13      1.0000 0.17910  0.94250  0.09900  Biso   1.000  O
  O14      1.0000 0.82090  0.44250  0.40100  Biso   1.000  O
  O15      1.0000 0.82090  0.05750  0.90100  Biso   1.000  O
  O16      1.0000 0.17910  0.55750  0.59900  Biso   1.000  O
  O17      1.0000 0.01420  0.01160  0.18070  Biso   1.000  O
  O18      1.0000 0.98580  0.51160  0.31930  Biso   1.000  O
  O19      1.0000 0.98580  0.98840  0.81930  Biso   1.000  O
  O20      1.0000 0.01420  0.48840  0.68070  Biso   1.000  O
  O21      1.0000 0.13880  0.84680  0.21796  Biso   1.000  O
  O22      1.0000 0.86120  0.34680  0.28204  Biso   1.000  O
  O23      1.0000 0.86120  0.15320  0.78204  Biso   1.000  O
  O24      1.0000 0.13880  0.65320  0.71796  Biso   1.000  O
  O25      1.0000 0.67090  0.08640  0.97840  Biso   1.000  O
  O26      1.0000 0.32910  0.58640  0.52160  Biso   1.000  O
  O27      1.0000 0.32910  0.91360  0.02160  Biso   1.000  O
  O28      1.0000 0.67090  0.41360  0.47840  Biso   1.000  O
  O29      1.0000 0.87480  0.88440  0.95250  Biso   1.000  O
  O30      1.0000 0.12520  0.38440  0.54750  Biso   1.000  O
  O31      1.0000 0.12520  0.11560  0.04750  Biso   1.000  O
  O32      1.0000 0.87480  0.61560  0.45250  Biso   1.000  O
  O33      1.0000 0.65180  0.93450  0.91075  Biso   1.000  O
  O34      1.0000 0.34820  0.43450  0.58925  Biso   1.000  O
  O35      1.0000 0.34820  0.06550  0.08925  Biso   1.000  O
  O36      1.0000 0.65180  0.56550  0.41075  Biso   1.000  O
  O37      1.0000 0.97520  0.88620  0.09460  Biso   1.000  O
  O38      1.0000 0.02480  0.38620  0.40540  Biso   1.000  O
  O39      1.0000 0.02480  0.11380  0.90540  Biso   1.000  O
  O40      1.0000 0.97520  0.61380  0.59460  Biso   1.000  O
  O41      1.0000 0.81080  0.07390  0.14343  Biso   1.000  O
  O42      1.0000 0.18920  0.57390  0.35657  Biso   1.000  O
  O43      1.0000 0.18920  0.92610  0.85657  Biso   1.000  O
  O44      1.0000 0.81080  0.42610  0.64343  Biso   1.000  O
  O45      1.0000 0.91250  0.03380  0.02811  Biso   1.000  O
  O46      1.0000 0.08750  0.53380  0.47189  Biso   1.000  O
  O47      1.0000 0.08750  0.96620  0.97189  Biso   1.000  O
  O48      1.0000 0.91250  0.46620  0.52811  Biso   1.000  O
  O49      1.0000 0.75600  0.93760  0.04927  Biso   1.000  O
  O50      1.0000 0.24400  0.43760  0.45073  Biso   1.000  O
  O51      1.0000 0.24400  0.06240  0.95073  Biso   1.000  O
  O52      1.0000 0.75600  0.56240  0.54927  Biso   1.000  O
  C1       1.0000 0.71530  0.24770  0.07430  Biso   1.000  C
  C2       1.0000 0.28470  0.74770  0.42570  Biso   1.000  C
  C3       1.0000 0.28470  0.75230  0.92570  Biso   1.000  C
  C4       1.0000 0.71530  0.25230  0.57430  Biso   1.000  C
  H1       1.0000 0.73370  0.19440  0.05760  Biso   1.000  H
  H2       1.0000 0.26630  0.69440  0.44240  Biso   1.000  H
  H3       1.0000 0.26630  0.80560  0.94240  Biso   1.000  H
  H4       1.0000 0.73370  0.30560  0.55760  Biso   1.000  H
  C5       1.0000 0.70420  0.35520  0.13640  Biso   1.000  C
  C6       1.0000 0.29580  0.85520  0.36360  Biso   1.000  C
  C7       1.0000 0.29580  0.64480  0.86360  Biso   1.000  C
  C8       1.0000 0.70420  0.14480  0.63640  Biso   1.000  C
  H5       1.0000 0.71560  0.39170  0.17450  Biso   1.000  H
  H6       1.0000 0.28440  0.89170  0.32550  Biso   1.000  H
  H7       1.0000 0.28440  0.60830  0.82550  Biso   1.000  H
  H8       1.0000 0.71560  0.10830  0.67450  Biso   1.000  H
  C9       1.0000 0.58020  0.30100  0.96740  Biso   1.000  C
  C10      1.0000 0.41980  0.80100  0.53260  Biso   1.000  C
  C11      1.0000 0.41980  0.69900  0.03260  Biso   1.000  C
  C12      1.0000 0.58020  0.19900  0.46740  Biso   1.000  C
  H9       1.0000 0.58990  0.24420  0.94820  Biso   1.000  H
  H10      1.0000 0.41010  0.74420  0.55180  Biso   1.000  H
  H11      1.0000 0.41010  0.75580  0.05180  Biso   1.000  H
  H12      1.0000 0.58990  0.25580  0.44820  Biso   1.000  H
  H13      1.0000 0.60720  0.34500  0.94060  Biso   1.000  H
  H14      1.0000 0.39280  0.84500  0.55940  Biso   1.000  H
  H15      1.0000 0.39280  0.65500  0.05940  Biso   1.000  H
  H16      1.0000 0.60720  0.15500  0.44060  Biso   1.000  H
  C13      1.0000 0.45900  0.31630  0.96290  Biso   1.000  C
  C14      1.0000 0.54100  0.81630  0.53710  Biso   1.000  C
  C15      1.0000 0.54100  0.68370  0.03710  Biso   1.000  C
  C16      1.0000 0.45900  0.18370  0.46290  Biso   1.000  C
  C17      1.0000 0.41470  0.40020  0.95260  Biso   1.000  C
  C18      1.0000 0.58530  0.90020  0.54740  Biso   1.000  C
  C19      1.0000 0.58530  0.59980  0.04740  Biso   1.000  C
  C20      1.0000 0.41470  0.09980  0.45260  Biso   1.000  C
  H17      1.0000 0.45900  0.44630  0.94470  Biso   1.000  H
  H18      1.0000 0.54100  0.94630  0.55530  Biso   1.000  H
  H19      1.0000 0.54100  0.55370  0.05530  Biso   1.000  H
  H20      1.0000 0.45900  0.05370  0.44470  Biso   1.000  H
  C21      1.0000 0.30560  0.41560  0.95400  Biso   1.000  C
  C22      1.0000 0.69440  0.91560  0.54600  Biso   1.000  C
  C23      1.0000 0.69440  0.58440  0.04600  Biso   1.000  C
  C24      1.0000 0.30560  0.08440  0.45400  Biso   1.000  C
  H21      1.0000 0.27780  0.47230  0.94800  Biso   1.000  H
  H22      1.0000 0.72220  0.97230  0.55200  Biso   1.000  H
  H23      1.0000 0.72220  0.52770  0.05200  Biso   1.000  H
  H24      1.0000 0.27780  0.02770  0.44800  Biso   1.000  H
  C25      1.0000 0.23730  0.34870  0.96400  Biso   1.000  C
  C26      1.0000 0.76270  0.84870  0.53600  Biso   1.000  C
  C27      1.0000 0.76270  0.65130  0.03600  Biso   1.000  C
  C28      1.0000 0.23730  0.15130  0.46400  Biso   1.000  C
  C29      1.0000 0.28060  0.26540  0.97250  Biso   1.000  C
  C30      1.0000 0.71940  0.76540  0.52750  Biso   1.000  C
  C31      1.0000 0.71940  0.73460  0.02750  Biso   1.000  C
  C32      1.0000 0.28060  0.23460  0.47250  Biso   1.000  C
  H25      1.0000 0.23530  0.21930  0.97900  Biso   1.000  H
  H26      1.0000 0.76470  0.71930  0.52100  Biso   1.000  H
  H27      1.0000 0.76470  0.78070  0.02100  Biso   1.000  H
  H28      1.0000 0.23530  0.28070  0.47900  Biso   1.000  H
  C33      1.0000 0.38930  0.24920  0.97180  Biso   1.000  C
  C34      1.0000 0.61070  0.74920  0.52820  Biso   1.000  C
  C35      1.0000 0.61070  0.75080  0.02820  Biso   1.000  C
  C36      1.0000 0.38930  0.25080  0.47180  Biso   1.000  C
  H29      1.0000 0.41630  0.19230  0.97730  Biso   1.000  H
  H30      1.0000 0.58370  0.69230  0.52270  Biso   1.000  H
  H31      1.0000 0.58370  0.80770  0.02270  Biso   1.000  H
  H32      1.0000 0.41630  0.30770  0.47730  Biso   1.000  H
  C37      1.0000 0.12090  0.36720  0.96890  Biso   1.000  C
  C38      1.0000 0.87910  0.86720  0.53110  Biso   1.000  C
  C39      1.0000 0.87910  0.63280  0.03110  Biso   1.000  C
  C40      1.0000 0.12090  0.13280  0.46890  Biso   1.000  C
  H33      1.0000 0.12010  0.42100  0.99430  Biso   1.000  H
  H34      1.0000 0.87990  0.92100  0.50570  Biso   1.000  H
  H35      1.0000 0.87990  0.57900  0.00570  Biso   1.000  H
  H36      1.0000 0.12010  0.07900  0.49430  Biso   1.000  H
  H37      1.0000 0.09610  0.32040  0.99420  Biso   1.000  H
  H38      1.0000 0.90390  0.82040  0.50580  Biso   1.000  H
  H39      1.0000 0.90390  0.67960  0.00580  Biso   1.000  H
  H40      1.0000 0.09610  0.17960  0.49420  Biso   1.000  H
  C41      1.0000 0.93580  0.43550  0.81780  Biso   1.000  C
  C42      1.0000 0.06420  0.93550  0.68220  Biso   1.000  C
  C43      1.0000 0.06420  0.56450  0.18220  Biso   1.000  C
  C44      1.0000 0.93580  0.06450  0.31780  Biso   1.000  C
  H41      1.0000 0.89360  0.47710  0.78930  Biso   1.000  H
  H42      1.0000 0.10640  0.97710  0.71070  Biso   1.000  H
  H43      1.0000 0.10640  0.52290  0.21070  Biso   1.000  H
  H44      1.0000 0.89360  0.02290  0.28930  Biso   1.000  H
  C45      1.0000 0.00470  0.31450  0.85540  Biso   1.000  C
  C46      1.0000 0.99530  0.81450  0.64460  Biso   1.000  C
  C47      1.0000 0.99530  0.68550  0.14460  Biso   1.000  C
  C48      1.0000 0.00470  0.18550  0.35540  Biso   1.000  C
  H45      1.0000 0.02330  0.25560  0.86020  Biso   1.000  H
  H46      1.0000 0.97670  0.75560  0.63980  Biso   1.000  H
  H47      1.0000 0.97670  0.74440  0.13980  Biso   1.000  H
  H48      1.0000 0.02330  0.24440  0.36020  Biso   1.000  H
  C49      1.0000 0.00970  0.31250  0.15150  Biso   1.000  C
  C50      1.0000 0.99030  0.81250  0.34850  Biso   1.000  C
  C51      1.0000 0.99030  0.68750  0.84850  Biso   1.000  C
  C52      1.0000 0.00970  0.18750  0.65150  Biso   1.000  C
  H49      1.0000 0.95580  0.35320  0.13190  Biso   1.000  H
  H50      1.0000 0.04420  0.85320  0.36810  Biso   1.000  H
  H51      1.0000 0.04420  0.64680  0.86810  Biso   1.000  H
  H52      1.0000 0.95580  0.14680  0.63190  Biso   1.000  H
  C53      1.0000 0.08620  0.20450  0.20710  Biso   1.000  C
  C54      1.0000 0.91380  0.70450  0.29290  Biso   1.000  C
  C55      1.0000 0.91380  0.79550  0.79290  Biso   1.000  C
  C56      1.0000 0.08620  0.29550  0.70710  Biso   1.000  C
  H53      1.0000 0.10090  0.15430  0.23390  Biso   1.000  H
  H54      1.0000 0.89910  0.65430  0.26610  Biso   1.000  H
  H55      1.0000 0.89910  0.84570  0.76610  Biso   1.000  H
  H56      1.0000 0.10090  0.34570  0.73390  Biso   1.000  H
  C57      1.0000 0.27650  0.22330  0.18510  Biso   1.000  C
  C58      1.0000 0.72350  0.72330  0.31490  Biso   1.000  C
  C59      1.0000 0.72350  0.77670  0.81490  Biso   1.000  C
  C60      1.0000 0.27650  0.27670  0.68510  Biso   1.000  C
  H57      1.0000 0.28370  0.20080  0.14120  Biso   1.000  H
  H58      1.0000 0.71630  0.70080  0.35880  Biso   1.000  H
  H59      1.0000 0.71630  0.79920  0.85880  Biso   1.000  H
  H60      1.0000 0.28370  0.29920  0.64120  Biso   1.000  H
  H61      1.0000 0.29940  0.17780  0.21910  Biso   1.000  H
  H62      1.0000 0.70060  0.67780  0.28090  Biso   1.000  H
  H63      1.0000 0.70060  0.82220  0.78090  Biso   1.000  H
  H64      1.0000 0.29940  0.32220  0.71910  Biso   1.000  H
  C61      1.0000 0.35070  0.30100  0.20410  Biso   1.000  C
  C62      1.0000 0.64930  0.80100  0.29590  Biso   1.000  C
  C63      1.0000 0.64930  0.69900  0.79590  Biso   1.000  C
  C64      1.0000 0.35070  0.19900  0.70410  Biso   1.000  C
  C65      1.0000 0.38530  0.32740  0.27120  Biso   1.000  C
  C66      1.0000 0.61470  0.82740  0.22880  Biso   1.000  C
  C67      1.0000 0.61470  0.67260  0.72880  Biso   1.000  C
  C68      1.0000 0.38530  0.17260  0.77120  Biso   1.000  C
  H65      1.0000 0.36950  0.29340  0.30610  Biso   1.000  H
  H66      1.0000 0.63050  0.79340  0.19390  Biso   1.000  H
  H67      1.0000 0.63050  0.70660  0.69390  Biso   1.000  H
  H68      1.0000 0.36950  0.20660  0.80610  Biso   1.000  H
  C69      1.0000 0.44440  0.40540  0.28680  Biso   1.000  C
  C70      1.0000 0.55560  0.90540  0.21320  Biso   1.000  C
  C71      1.0000 0.55560  0.59460  0.71320  Biso   1.000  C
  C72      1.0000 0.44440  0.09460  0.78680  Biso   1.000  C
  H69      1.0000 0.46610  0.42400  0.33210  Biso   1.000  H
  H70      1.0000 0.53390  0.92400  0.16790  Biso   1.000  H
  H71      1.0000 0.53390  0.57600  0.66790  Biso   1.000  H
  H72      1.0000 0.46610  0.07600  0.83210  Biso   1.000  H
  C73      1.0000 0.47070  0.45470  0.23640  Biso   1.000  C
  C74      1.0000 0.52930  0.95470  0.26360  Biso   1.000  C
  C75      1.0000 0.52930  0.54530  0.76360  Biso   1.000  C
  C76      1.0000 0.47070  0.04530  0.73640  Biso   1.000  C
  C77      1.0000 0.44080  0.42530  0.17010  Biso   1.000  C
  C78      1.0000 0.55920  0.92530  0.32990  Biso   1.000  C
  C79      1.0000 0.55920  0.57470  0.82990  Biso   1.000  C
  C80      1.0000 0.44080  0.07470  0.67010  Biso   1.000  C
  H73      1.0000 0.46080  0.45730  0.13560  Biso   1.000  H
  H74      1.0000 0.53920  0.95730  0.36440  Biso   1.000  H
  H75      1.0000 0.53920  0.54270  0.86440  Biso   1.000  H
  H76      1.0000 0.46080  0.04270  0.63560  Biso   1.000  H
  C81      1.0000 0.38170  0.34900  0.15410  Biso   1.000  C
  C82      1.0000 0.61830  0.84900  0.34590  Biso   1.000  C
  C83      1.0000 0.61830  0.65100  0.84590  Biso   1.000  C
  C84      1.0000 0.38170  0.15100  0.65410  Biso   1.000  C
  H77      1.0000 0.36250  0.32990  0.10890  Biso   1.000  H
  H78      1.0000 0.63750  0.82990  0.39110  Biso   1.000  H
  H79      1.0000 0.63750  0.67010  0.89110  Biso   1.000  H
  H80      1.0000 0.36250  0.17010  0.60890  Biso   1.000  H
  C85      1.0000 0.52300  0.54360  0.25150  Biso   1.000  C
  C86      1.0000 0.47700  0.04360  0.24850  Biso   1.000  C
  C87      1.0000 0.47700  0.45640  0.74850  Biso   1.000  C
  C88      1.0000 0.52300  0.95640  0.75150  Biso   1.000  C
  H81      1.0000 0.56820  0.54500  0.29810  Biso   1.000  H
  H82      1.0000 0.43180  0.04500  0.20190  Biso   1.000  H
  H83      1.0000 0.43180  0.45500  0.70190  Biso   1.000  H
  H84      1.0000 0.56820  0.95500  0.79810  Biso   1.000  H
  H85      1.0000 0.57060  0.55550  0.22060  Biso   1.000  H
  H86      1.0000 0.42940  0.05550  0.27940  Biso   1.000  H
  H87      1.0000 0.42940  0.44450  0.77940  Biso   1.000  H
  H88      1.0000 0.57060  0.94450  0.72060  Biso   1.000  H
  C89      1.0000 0.36600  0.62640  0.28260  Biso   1.000  C
  C90      1.0000 0.63400  0.12640  0.21740  Biso   1.000  C
  C91      1.0000 0.63400  0.37360  0.71740  Biso   1.000  C
  C92      1.0000 0.36600  0.87360  0.78260  Biso   1.000  C
  H89      1.0000 0.37080  0.60090  0.32520  Biso   1.000  H
  H90      1.0000 0.62920  0.10090  0.17480  Biso   1.000  H
  H91      1.0000 0.62920  0.39910  0.67480  Biso   1.000  H
  H92      1.0000 0.37080  0.89910  0.82520  Biso   1.000  H
  C93      1.0000 0.31630  0.70080  0.19430  Biso   1.000  C
  C94      1.0000 0.68370  0.20080  0.30570  Biso   1.000  C
  C95      1.0000 0.68370  0.29920  0.80570  Biso   1.000  C
  C96      1.0000 0.31630  0.79920  0.69430  Biso   1.000  C
  H93      1.0000 0.27630  0.73960  0.16200  Biso   1.000  H
  H94      1.0000 0.72370  0.23960  0.33800  Biso   1.000  H
  H95      1.0000 0.72370  0.26040  0.83800  Biso   1.000  H
  H96      1.0000 0.27630  0.76040  0.66200  Biso   1.000  H
