data_image0
_cell_length_a       13.023
_cell_length_b       28.433
_cell_length_c       8.8189
_cell_angle_alpha    90
_cell_angle_beta     90
_cell_angle_gamma    90

_symmetry_space_group_name_H-M    "P 1"
_symmetry_int_tables_number       1

loop_
  _symmetry_equiv_pos_as_xyz
  'x, y, z'

loop_
  _atom_site_label
  _atom_site_occupancy
  _atom_site_fract_x
  _atom_site_fract_y
  _atom_site_fract_z
  _atom_site_thermal_displace_type
  _atom_site_B_iso_or_equiv
  _atom_site_type_symbol
  Cu1      1.0000 0.46675  0.03758  0.42694  Biso   1.000  Cu
  Cu2      1.0000 0.03325  0.46242  0.42694  Biso   1.000  Cu
  Cu3      1.0000 0.96675  0.96242  0.07306  Biso   1.000  Cu
  Cu4      1.0000 0.53325  0.53758  0.07306  Biso   1.000  Cu
  Cu5      1.0000 0.53325  0.96242  0.57306  Biso   1.000  Cu
  Cu6      1.0000 0.96675  0.53758  0.57306  Biso   1.000  Cu
  Cu7      1.0000 0.03325  0.03758  0.92694  Biso   1.000  Cu
  Cu8      1.0000 0.46675  0.46242  0.92694  Biso   1.000  Cu
  O1       1.0000 0.49940  0.99935  0.24680  Biso   1.000  O
  O2       1.0000 0.00060  0.50065  0.24680  Biso   1.000  O
  O3       1.0000 0.99940  0.00065  0.25320  Biso   1.000  O
  O4       1.0000 0.50060  0.49935  0.25320  Biso   1.000  O
  O5       1.0000 0.50060  0.00065  0.75320  Biso   1.000  O
  O6       1.0000 0.99940  0.49935  0.75320  Biso   1.000  O
  O7       1.0000 0.00060  0.99935  0.74680  Biso   1.000  O
  O8       1.0000 0.49940  0.50065  0.74680  Biso   1.000  O
  O9       1.0000 0.55430  0.93596  0.36830  Biso   1.000  O
  O10      1.0000 0.94570  0.56404  0.36830  Biso   1.000  O
  O11      1.0000 0.05430  0.06404  0.13170  Biso   1.000  O
  O12      1.0000 0.44570  0.43596  0.13170  Biso   1.000  O
  O13      1.0000 0.44570  0.06404  0.63170  Biso   1.000  O
  O14      1.0000 0.05430  0.43596  0.63170  Biso   1.000  O
  O15      1.0000 0.94570  0.93596  0.86830  Biso   1.000  O
  O16      1.0000 0.55430  0.56404  0.86830  Biso   1.000  O
  O17      1.0000 0.33275  0.00528  0.44230  Biso   1.000  O
  O18      1.0000 0.16725  0.49472  0.44230  Biso   1.000  O
  O19      1.0000 0.83275  0.99472  0.05770  Biso   1.000  O
  O20      1.0000 0.66725  0.50528  0.05770  Biso   1.000  O
  O21      1.0000 0.66725  0.99472  0.55770  Biso   1.000  O
  O22      1.0000 0.83275  0.50528  0.55770  Biso   1.000  O
  O23      1.0000 0.16725  0.00528  0.94230  Biso   1.000  O
  O24      1.0000 0.33275  0.49472  0.94230  Biso   1.000  O
  O25      1.0000 0.38900  0.94186  0.56490  Biso   1.000  O
  O26      1.0000 0.11100  0.55814  0.56490  Biso   1.000  O
  O27      1.0000 0.88900  0.05814  0.93510  Biso   1.000  O
  O28      1.0000 0.61100  0.44186  0.93510  Biso   1.000  O
  O29      1.0000 0.61100  0.05814  0.43510  Biso   1.000  O
  O30      1.0000 0.88900  0.44186  0.43510  Biso   1.000  O
  O31      1.0000 0.11100  0.94186  0.06490  Biso   1.000  O
  O32      1.0000 0.38900  0.55814  0.06490  Biso   1.000  O
  N1       1.0000 0.40730  0.09684  0.29630  Biso   1.000  N
  N2       1.0000 0.09270  0.40316  0.29630  Biso   1.000  N
  N3       1.0000 0.90730  0.90316  0.20370  Biso   1.000  N
  N4       1.0000 0.59270  0.59684  0.20370  Biso   1.000  N
  N5       1.0000 0.59270  0.90316  0.70370  Biso   1.000  N
  N6       1.0000 0.90730  0.59684  0.70370  Biso   1.000  N
  N7       1.0000 0.09270  0.09684  0.79630  Biso   1.000  N
  N8       1.0000 0.40730  0.40316  0.79630  Biso   1.000  N
  C1       1.0000 0.31330  0.09549  0.23390  Biso   1.000  C
  C2       1.0000 0.18670  0.40451  0.23390  Biso   1.000  C
  C3       1.0000 0.81330  0.90451  0.26610  Biso   1.000  C
  C4       1.0000 0.68670  0.59549  0.26610  Biso   1.000  C
  C5       1.0000 0.68670  0.90451  0.76610  Biso   1.000  C
  C6       1.0000 0.81330  0.59549  0.76610  Biso   1.000  C
  C7       1.0000 0.18670  0.09549  0.73390  Biso   1.000  C
  C8       1.0000 0.31330  0.40451  0.73390  Biso   1.000  C
  H1       1.0000 0.27240  0.06930  0.25230  Biso   1.000  H
  H2       1.0000 0.22760  0.43070  0.25230  Biso   1.000  H
  H3       1.0000 0.77240  0.93070  0.24770  Biso   1.000  H
  H4       1.0000 0.72760  0.56930  0.24770  Biso   1.000  H
  H5       1.0000 0.72760  0.93070  0.74770  Biso   1.000  H
  H6       1.0000 0.77240  0.56930  0.74770  Biso   1.000  H
  H7       1.0000 0.22760  0.06930  0.75230  Biso   1.000  H
  H8       1.0000 0.27240  0.43070  0.75230  Biso   1.000  H
  C9       1.0000 0.46360  0.13498  0.26500  Biso   1.000  C
  C10      1.0000 0.03640  0.36502  0.26500  Biso   1.000  C
  C11      1.0000 0.96360  0.86502  0.23500  Biso   1.000  C
  C12      1.0000 0.53640  0.63498  0.23500  Biso   1.000  C
  C13      1.0000 0.53640  0.86502  0.73500  Biso   1.000  C
  C14      1.0000 0.96360  0.63498  0.73500  Biso   1.000  C
  C15      1.0000 0.03640  0.13498  0.76500  Biso   1.000  C
  C16      1.0000 0.46360  0.36502  0.76500  Biso   1.000  C
  H9       1.0000 0.52910  0.13700  0.30660  Biso   1.000  H
  H10      1.0000 0.97090  0.36300  0.30660  Biso   1.000  H
  H11      1.0000 0.02910  0.86300  0.19340  Biso   1.000  H
  H12      1.0000 0.47090  0.63700  0.19340  Biso   1.000  H
  H13      1.0000 0.47090  0.86300  0.69340  Biso   1.000  H
  H14      1.0000 0.02910  0.63700  0.69340  Biso   1.000  H
  H15      1.0000 0.97090  0.13700  0.80660  Biso   1.000  H
  H16      1.0000 0.52910  0.36300  0.80660  Biso   1.000  H
  C17      1.0000 0.27430  0.13059  0.14470  Biso   1.000  C
  C18      1.0000 0.22570  0.36941  0.14470  Biso   1.000  C
  C19      1.0000 0.77430  0.86941  0.35530  Biso   1.000  C
  C20      1.0000 0.72570  0.63059  0.35530  Biso   1.000  C
  C21      1.0000 0.72570  0.86941  0.85530  Biso   1.000  C
  C22      1.0000 0.77430  0.63059  0.85530  Biso   1.000  C
  C23      1.0000 0.22570  0.13059  0.64470  Biso   1.000  C
  C24      1.0000 0.27430  0.36941  0.64470  Biso   1.000  C
  H17      1.0000 0.20830  0.12770  0.10520  Biso   1.000  H
  H18      1.0000 0.29170  0.37230  0.10520  Biso   1.000  H
  H19      1.0000 0.70830  0.87230  0.39480  Biso   1.000  H
  H20      1.0000 0.79170  0.62770  0.39480  Biso   1.000  H
  H21      1.0000 0.79170  0.87230  0.89480  Biso   1.000  H
  H22      1.0000 0.70830  0.62770  0.89480  Biso   1.000  H
  H23      1.0000 0.29170  0.12770  0.60520  Biso   1.000  H
  H24      1.0000 0.20830  0.37230  0.60520  Biso   1.000  H
  C25      1.0000 0.33080  0.16981  0.11300  Biso   1.000  C
  C26      1.0000 0.16920  0.33019  0.11300  Biso   1.000  C
  C27      1.0000 0.83080  0.83019  0.38700  Biso   1.000  C
  C28      1.0000 0.66920  0.66981  0.38700  Biso   1.000  C
  C29      1.0000 0.66920  0.83019  0.88700  Biso   1.000  C
  C30      1.0000 0.83080  0.66981  0.88700  Biso   1.000  C
  C31      1.0000 0.16920  0.16981  0.61300  Biso   1.000  C
  C32      1.0000 0.33080  0.33019  0.61300  Biso   1.000  C
  C33      1.0000 0.43040  0.17112  0.17510  Biso   1.000  C
  C34      1.0000 0.06960  0.32888  0.17510  Biso   1.000  C
  C35      1.0000 0.93040  0.82888  0.32490  Biso   1.000  C
  C36      1.0000 0.56960  0.67112  0.32490  Biso   1.000  C
  C37      1.0000 0.56960  0.82888  0.82490  Biso   1.000  C
  C38      1.0000 0.93040  0.67112  0.82490  Biso   1.000  C
  C39      1.0000 0.06960  0.17112  0.67510  Biso   1.000  C
  C40      1.0000 0.43040  0.32888  0.67510  Biso   1.000  C
  H25      1.0000 0.47340  0.19650  0.15510  Biso   1.000  H
  H26      1.0000 0.02660  0.30350  0.15510  Biso   1.000  H
  H27      1.0000 0.97340  0.80350  0.34490  Biso   1.000  H
  H28      1.0000 0.52660  0.69650  0.34490  Biso   1.000  H
  H29      1.0000 0.52660  0.80350  0.84490  Biso   1.000  H
  H30      1.0000 0.97340  0.69650  0.84490  Biso   1.000  H
  H31      1.0000 0.02660  0.19650  0.65510  Biso   1.000  H
  H32      1.0000 0.47340  0.30350  0.65510  Biso   1.000  H
  C41      1.0000 0.29180  0.20956  0.01590  Biso   1.000  C
  C42      1.0000 0.20820  0.29044  0.01590  Biso   1.000  C
  C43      1.0000 0.79180  0.79044  0.48410  Biso   1.000  C
  C44      1.0000 0.70820  0.70956  0.48410  Biso   1.000  C
  C45      1.0000 0.70820  0.79044  0.98410  Biso   1.000  C
  C46      1.0000 0.79180  0.70956  0.98410  Biso   1.000  C
  C47      1.0000 0.20820  0.20956  0.51590  Biso   1.000  C
  C48      1.0000 0.29180  0.29044  0.51590  Biso   1.000  C
  H33      1.0000 0.23800  0.19790  0.94980  Biso   1.000  H
  H34      1.0000 0.26200  0.30210  0.94980  Biso   1.000  H
  H35      1.0000 0.73800  0.80210  0.55020  Biso   1.000  H
  H36      1.0000 0.76200  0.69790  0.55020  Biso   1.000  H
  H37      1.0000 0.76200  0.80210  0.05020  Biso   1.000  H
  H38      1.0000 0.73800  0.69790  0.05020  Biso   1.000  H
  H39      1.0000 0.26200  0.19790  0.44980  Biso   1.000  H
  H40      1.0000 0.23800  0.30210  0.44980  Biso   1.000  H
  H41      1.0000 0.34730  0.22100  0.95250  Biso   1.000  H
  H42      1.0000 0.15270  0.27900  0.95250  Biso   1.000  H
  H43      1.0000 0.84730  0.77900  0.54750  Biso   1.000  H
  H44      1.0000 0.65270  0.72100  0.54750  Biso   1.000  H
  H45      1.0000 0.65270  0.77900  0.04750  Biso   1.000  H
  H46      1.0000 0.84730  0.72100  0.04750  Biso   1.000  H
  H47      1.0000 0.15270  0.22100  0.45250  Biso   1.000  H
  H48      1.0000 0.34730  0.27900  0.45250  Biso   1.000  H
  C49      1.0000 0.25000  0.25000  0.11060  Biso   1.000  C
  C50      1.0000 0.75000  0.75000  0.38940  Biso   1.000  C
  C51      1.0000 0.75000  0.75000  0.88940  Biso   1.000  C
  C52      1.0000 0.25000  0.25000  0.61060  Biso   1.000  C
  H49      1.0000 0.19600  0.23860  0.17480  Biso   1.000  H
  H50      1.0000 0.30400  0.26140  0.17480  Biso   1.000  H
  H51      1.0000 0.69600  0.76140  0.32520  Biso   1.000  H
  H52      1.0000 0.80400  0.73860  0.32520  Biso   1.000  H
  H53      1.0000 0.80400  0.76140  0.82520  Biso   1.000  H
  H54      1.0000 0.69600  0.73860  0.82520  Biso   1.000  H
  H55      1.0000 0.30400  0.23860  0.67480  Biso   1.000  H
  H56      1.0000 0.19600  0.26140  0.67480  Biso   1.000  H
  C53      1.0000 0.53520  0.95920  0.25010  Biso   1.000  C
  C54      1.0000 0.96480  0.54080  0.25010  Biso   1.000  C
  C55      1.0000 0.03520  0.04080  0.24990  Biso   1.000  C
  C56      1.0000 0.46480  0.45920  0.24990  Biso   1.000  C
  C57      1.0000 0.46480  0.04080  0.74990  Biso   1.000  C
  C58      1.0000 0.03520  0.45920  0.74990  Biso   1.000  C
  C59      1.0000 0.96480  0.95920  0.75010  Biso   1.000  C
  C60      1.0000 0.53520  0.54080  0.75010  Biso   1.000  C
  C61      1.0000 0.32020  0.96633  0.50540  Biso   1.000  C
  C62      1.0000 0.17980  0.53367  0.50540  Biso   1.000  C
  C63      1.0000 0.82020  0.03367  0.99460  Biso   1.000  C
  C64      1.0000 0.67980  0.46633  0.99460  Biso   1.000  C
  C65      1.0000 0.67980  0.03367  0.49460  Biso   1.000  C
  C66      1.0000 0.82020  0.46633  0.49460  Biso   1.000  C
  C67      1.0000 0.17980  0.96633  0.00540  Biso   1.000  C
  C68      1.0000 0.32020  0.53367  0.00540  Biso   1.000  C
  C69      1.0000 0.56010  0.93657  0.09990  Biso   1.000  C
  C70      1.0000 0.93990  0.56343  0.09990  Biso   1.000  C
  C71      1.0000 0.06010  0.06343  0.40010  Biso   1.000  C
  C72      1.0000 0.43990  0.43657  0.40010  Biso   1.000  C
  C73      1.0000 0.43990  0.06343  0.90010  Biso   1.000  C
  C74      1.0000 0.06010  0.43657  0.90010  Biso   1.000  C
  C75      1.0000 0.93990  0.93657  0.59990  Biso   1.000  C
  C76      1.0000 0.56010  0.56343  0.59990  Biso   1.000  C
  H57      1.0000 0.54230  0.95770  0.01910  Biso   1.000  H
  H58      1.0000 0.95770  0.54230  0.01910  Biso   1.000  H
  H59      1.0000 0.04230  0.04230  0.48090  Biso   1.000  H
  H60      1.0000 0.45770  0.45770  0.48090  Biso   1.000  H
  H61      1.0000 0.45770  0.04230  0.98090  Biso   1.000  H
  H62      1.0000 0.04230  0.45770  0.98090  Biso   1.000  H
  H63      1.0000 0.95770  0.95770  0.51910  Biso   1.000  H
  H64      1.0000 0.54230  0.54230  0.51910  Biso   1.000  H
  H65      1.0000 0.52170  0.90790  0.08950  Biso   1.000  H
  H66      1.0000 0.97830  0.59210  0.08950  Biso   1.000  H
  H67      1.0000 0.02170  0.09210  0.41050  Biso   1.000  H
  H68      1.0000 0.47830  0.40790  0.41050  Biso   1.000  H
  H69      1.0000 0.47830  0.09210  0.91050  Biso   1.000  H
  H70      1.0000 0.02170  0.40790  0.91050  Biso   1.000  H
  H71      1.0000 0.97830  0.90790  0.58950  Biso   1.000  H
  H72      1.0000 0.52170  0.59210  0.58950  Biso   1.000  H
  H73      1.0000 0.63230  0.92970  0.09540  Biso   1.000  H
  H74      1.0000 0.86770  0.57030  0.09540  Biso   1.000  H
  H75      1.0000 0.13230  0.07030  0.40460  Biso   1.000  H
  H76      1.0000 0.36770  0.42970  0.40460  Biso   1.000  H
  H77      1.0000 0.36770  0.07030  0.90460  Biso   1.000  H
  H78      1.0000 0.13230  0.42970  0.90460  Biso   1.000  H
  H79      1.0000 0.86770  0.92970  0.59540  Biso   1.000  H
  H80      1.0000 0.63230  0.57030  0.59540  Biso   1.000  H
  C77      1.0000 0.21070  0.94810  0.51220  Biso   1.000  C
  C78      1.0000 0.28930  0.55190  0.51220  Biso   1.000  C
  C79      1.0000 0.71070  0.05190  0.98780  Biso   1.000  C
  C80      1.0000 0.78930  0.44810  0.98780  Biso   1.000  C
  C81      1.0000 0.78930  0.05190  0.48780  Biso   1.000  C
  C82      1.0000 0.71070  0.44810  0.48780  Biso   1.000  C
  C83      1.0000 0.28930  0.94810  0.01220  Biso   1.000  C
  C84      1.0000 0.21070  0.55190  0.01220  Biso   1.000  C
  H81      1.0000 0.20970  0.91820  0.56290  Biso   1.000  H
  H82      1.0000 0.29030  0.58180  0.56290  Biso   1.000  H
  H83      1.0000 0.70970  0.08180  0.93710  Biso   1.000  H
  H84      1.0000 0.79030  0.41820  0.93710  Biso   1.000  H
  H85      1.0000 0.79030  0.08180  0.43710  Biso   1.000  H
  H86      1.0000 0.70970  0.41820  0.43710  Biso   1.000  H
  H87      1.0000 0.29030  0.91820  0.06290  Biso   1.000  H
  H88      1.0000 0.20970  0.58180  0.06290  Biso   1.000  H
  H89      1.0000 0.18450  0.94460  0.41110  Biso   1.000  H
  H90      1.0000 0.31550  0.55540  0.41110  Biso   1.000  H
  H91      1.0000 0.68450  0.05540  0.08890  Biso   1.000  H
  H92      1.0000 0.81550  0.44460  0.08890  Biso   1.000  H
  H93      1.0000 0.81550  0.05540  0.58890  Biso   1.000  H
  H94      1.0000 0.68450  0.44460  0.58890  Biso   1.000  H
  H95      1.0000 0.31550  0.94460  0.91110  Biso   1.000  H
  H96      1.0000 0.18450  0.55540  0.91110  Biso   1.000  H
  H97      1.0000 0.16870  0.97010  0.56700  Biso   1.000  H
  H98      1.0000 0.33130  0.52990  0.56700  Biso   1.000  H
  H99      1.0000 0.66870  0.02990  0.93300  Biso   1.000  H
  H100     1.0000 0.83130  0.47010  0.93300  Biso   1.000  H
  H101     1.0000 0.83130  0.02990  0.43300  Biso   1.000  H
  H102     1.0000 0.66870  0.47010  0.43300  Biso   1.000  H
  H103     1.0000 0.33130  0.97010  0.06700  Biso   1.000  H
  H104     1.0000 0.16870  0.52990  0.06700  Biso   1.000  H
  O33      1.0000 0.61600  0.31470  0.20550  Biso   1.000  O
  O34      1.0000 0.88400  0.18530  0.20550  Biso   1.000  O
  O35      1.0000 0.11600  0.68530  0.29450  Biso   1.000  O
  O36      1.0000 0.38400  0.81470  0.29450  Biso   1.000  O
  O37      1.0000 0.38400  0.68530  0.79450  Biso   1.000  O
  O38      1.0000 0.11600  0.81470  0.79450  Biso   1.000  O
  O39      1.0000 0.88400  0.31470  0.70550  Biso   1.000  O
  O40      1.0000 0.61600  0.18530  0.70550  Biso   1.000  O
  H105     1.0000 0.55440  0.31820  0.17570  Biso   1.000  H
  H106     1.0000 0.94560  0.18180  0.17570  Biso   1.000  H
  H107     1.0000 0.05440  0.68180  0.32430  Biso   1.000  H
  H108     1.0000 0.44560  0.81820  0.32430  Biso   1.000  H
  H109     1.0000 0.44560  0.68180  0.82430  Biso   1.000  H
  H110     1.0000 0.05440  0.81820  0.82430  Biso   1.000  H
  H111     1.0000 0.94560  0.31820  0.67570  Biso   1.000  H
  H112     1.0000 0.55440  0.18180  0.67570  Biso   1.000  H
  H113     1.0000 0.58900  0.29550  0.26760  Biso   1.000  H
  H114     1.0000 0.91100  0.20450  0.26760  Biso   1.000  H
  H115     1.0000 0.08900  0.70450  0.23240  Biso   1.000  H
  H116     1.0000 0.41100  0.79550  0.23240  Biso   1.000  H
  H117     1.0000 0.41100  0.70450  0.73240  Biso   1.000  H
  H118     1.0000 0.08900  0.79550  0.73240  Biso   1.000  H
  H119     1.0000 0.91100  0.29550  0.76760  Biso   1.000  H
  H120     1.0000 0.58900  0.20450  0.76760  Biso   1.000  H
