data_image0
_cell_length_a       9.6366
_cell_length_b       7.1292
_cell_length_c       10.7018
_cell_angle_alpha    90
_cell_angle_beta     99.603
_cell_angle_gamma    90

_symmetry_space_group_name_H-M    "P 1"
_symmetry_int_tables_number       1

loop_
  _symmetry_equiv_pos_as_xyz
  'x, y, z'

loop_
  _atom_site_label
  _atom_site_occupancy
  _atom_site_fract_x
  _atom_site_fract_y
  _atom_site_fract_z
  _atom_site_thermal_displace_type
  _atom_site_B_iso_or_equiv
  _atom_site_type_symbol
  Cu1      1.0000 0.50000  0.50000  0.50000  Biso   1.000  Cu
  Cu2      1.0000 0.50000  0.00000  0.00000  Biso   1.000  Cu
  O1       1.0000 0.22760  0.57210  0.99170  Biso   1.000  O
  O2       1.0000 0.77240  0.07210  0.50830  Biso   1.000  O
  O3       1.0000 0.77240  0.42790  0.00830  Biso   1.000  O
  O4       1.0000 0.22760  0.92790  0.49170  Biso   1.000  O
  N1       1.0000 0.30670  0.56220  0.33930  Biso   1.000  N
  N2       1.0000 0.69330  0.06220  0.16070  Biso   1.000  N
  N3       1.0000 0.69330  0.43780  0.66070  Biso   1.000  N
  N4       1.0000 0.30670  0.93780  0.83930  Biso   1.000  N
  N5       1.0000 0.85410  0.56810  0.36380  Biso   1.000  N
  N6       1.0000 0.14590  0.06810  0.13620  Biso   1.000  N
  N7       1.0000 0.14590  0.43190  0.63620  Biso   1.000  N
  N8       1.0000 0.85410  0.93190  0.86380  Biso   1.000  N
  C1       1.0000 0.10270  0.53090  0.99580  Biso   1.000  C
  C2       1.0000 0.89730  0.03090  0.50420  Biso   1.000  C
  C3       1.0000 0.89730  0.46910  0.00420  Biso   1.000  C
  C4       1.0000 0.10270  0.96910  0.49580  Biso   1.000  C
  C5       1.0000 0.01910  0.52070  0.09720  Biso   1.000  C
  C6       1.0000 0.98090  0.02070  0.40280  Biso   1.000  C
  C7       1.0000 0.98090  0.47930  0.90280  Biso   1.000  C
  C8       1.0000 0.01910  0.97930  0.59720  Biso   1.000  C
  C9       1.0000 0.04950  0.54570  0.22790  Biso   1.000  C
  C10      1.0000 0.95050  0.04570  0.27210  Biso   1.000  C
  C11      1.0000 0.95050  0.45430  0.77210  Biso   1.000  C
  C12      1.0000 0.04950  0.95430  0.72790  Biso   1.000  C
  C13      1.0000 0.19160  0.55700  0.29020  Biso   1.000  C
  C14      1.0000 0.80840  0.05700  0.20980  Biso   1.000  C
  C15      1.0000 0.80840  0.44300  0.70980  Biso   1.000  C
  C16      1.0000 0.19160  0.94300  0.79020  Biso   1.000  C
  C17      1.0000 0.94120  0.55550  0.30370  Biso   1.000  C
  C18      1.0000 0.05880  0.05550  0.19630  Biso   1.000  C
  C19      1.0000 0.05880  0.44450  0.69630  Biso   1.000  C
  C20      1.0000 0.94120  0.94450  0.80370  Biso   1.000  C
  O5       1.0000 0.57820  0.31500  0.38740  Biso   1.000  O
  O6       1.0000 0.42180  0.81500  0.11260  Biso   1.000  O
  O7       1.0000 0.42180  0.68500  0.61260  Biso   1.000  O
  O8       1.0000 0.57820  0.18500  0.88740  Biso   1.000  O
  O9       1.0000 0.39030  0.29700  0.55410  Biso   1.000  O
  O10      1.0000 0.60970  0.79700  0.94590  Biso   1.000  O
  O11      1.0000 0.60970  0.70300  0.44590  Biso   1.000  O
  O12      1.0000 0.39030  0.20300  0.05410  Biso   1.000  O
  O13      1.0000 0.57070  0.47360  0.15980  Biso   1.000  O
  O14      1.0000 0.42930  0.97360  0.34020  Biso   1.000  O
  O15      1.0000 0.42930  0.52640  0.84020  Biso   1.000  O
  O16      1.0000 0.57070  0.02640  0.65980  Biso   1.000  O
  H1       1.0000 0.58600  0.36600  0.33100  Biso   1.000  H
  H2       1.0000 0.41400  0.86600  0.16900  Biso   1.000  H
  H3       1.0000 0.41400  0.63400  0.66900  Biso   1.000  H
  H4       1.0000 0.58600  0.13400  0.83100  Biso   1.000  H
  H5       1.0000 0.63800  0.26700  0.41800  Biso   1.000  H
  H6       1.0000 0.36200  0.76700  0.08200  Biso   1.000  H
  H7       1.0000 0.36200  0.73300  0.58200  Biso   1.000  H
  H8       1.0000 0.63800  0.23300  0.91800  Biso   1.000  H
  H9       1.0000 0.33400  0.32100  0.58100  Biso   1.000  H
  H10      1.0000 0.66600  0.82100  0.91900  Biso   1.000  H
  H11      1.0000 0.66600  0.67900  0.41900  Biso   1.000  H
  H12      1.0000 0.33400  0.17900  0.08100  Biso   1.000  H
  H13      1.0000 0.42600  0.21100  0.59100  Biso   1.000  H
  H14      1.0000 0.57400  0.71100  0.90900  Biso   1.000  H
  H15      1.0000 0.57400  0.78900  0.40900  Biso   1.000  H
  H16      1.0000 0.42600  0.28900  0.09100  Biso   1.000  H
  H17      1.0000 0.54400  0.57000  0.15100  Biso   1.000  H
  H18      1.0000 0.45600  0.07000  0.34900  Biso   1.000  H
  H19      1.0000 0.45600  0.43000  0.84900  Biso   1.000  H
  H20      1.0000 0.54400  0.93000  0.65100  Biso   1.000  H
  H21      1.0000 0.63000  0.46600  0.12400  Biso   1.000  H
  H22      1.0000 0.37000  0.96600  0.37600  Biso   1.000  H
  H23      1.0000 0.37000  0.53400  0.87600  Biso   1.000  H
  H24      1.0000 0.63000  0.03400  0.62400  Biso   1.000  H
