data_image0
_cell_length_a       10.349
_cell_length_b       17.019
_cell_length_c       11.155
_cell_angle_alpha    90
_cell_angle_beta     90
_cell_angle_gamma    99.2

_symmetry_space_group_name_H-M    "P 1"
_symmetry_int_tables_number       1

loop_
  _symmetry_equiv_pos_as_xyz
  'x, y, z'

loop_
  _atom_site_label
  _atom_site_occupancy
  _atom_site_fract_x
  _atom_site_fract_y
  _atom_site_fract_z
  _atom_site_thermal_displace_type
  _atom_site_B_iso_or_equiv
  _atom_site_type_symbol
  C1       1.0000 0.50000  0.00000  0.93200  Biso   1.000  C
  C2       1.0000 0.00000  0.00000  0.43200  Biso   1.000  C
  C3       1.0000 0.50000  0.00000  0.06800  Biso   1.000  C
  C4       1.0000 0.00000  0.00000  0.56800  Biso   1.000  C
  Cu1      1.0000 0.50000  0.00000  0.50000  Biso   1.000  Cu
  Cu2      1.0000 0.00000  0.00000  0.00000  Biso   1.000  Cu
  O1       1.0000 0.38400  0.10200  0.50000  Biso   1.000  O
  O2       1.0000 0.88400  0.10200  0.00000  Biso   1.000  O
  O3       1.0000 0.61600  0.89800  0.50000  Biso   1.000  O
  O4       1.0000 0.11600  0.89800  0.00000  Biso   1.000  O
  O5       1.0000 0.64600  0.09300  0.50000  Biso   1.000  O
  O6       1.0000 0.14600  0.09300  0.00000  Biso   1.000  O
  O7       1.0000 0.35400  0.90700  0.50000  Biso   1.000  O
  O8       1.0000 0.85400  0.90700  0.00000  Biso   1.000  O
  N1       1.0000 0.50000  0.00000  0.68400  Biso   1.000  N
  N2       1.0000 0.00000  0.00000  0.18400  Biso   1.000  N
  N3       1.0000 0.50000  0.00000  0.31600  Biso   1.000  N
  N4       1.0000 0.00000  0.00000  0.81600  Biso   1.000  N
  C5       1.0000 0.46800  0.16600  0.50000  Biso   1.000  C
  C6       1.0000 0.96800  0.16600  0.00000  Biso   1.000  C
  C7       1.0000 0.53200  0.83400  0.50000  Biso   1.000  C
  C8       1.0000 0.03200  0.83400  0.00000  Biso   1.000  C
  C9       1.0000 0.43000  0.24600  0.50000  Biso   1.000  C
  C10      1.0000 0.93000  0.24600  0.00000  Biso   1.000  C
  C11      1.0000 0.57000  0.75400  0.50000  Biso   1.000  C
  C12      1.0000 0.07000  0.75400  0.00000  Biso   1.000  C
  C13      1.0000 0.52700  0.31100  0.50000  Biso   1.000  C
  C14      1.0000 0.02700  0.31100  0.00000  Biso   1.000  C
  C15      1.0000 0.47300  0.68900  0.50000  Biso   1.000  C
  C16      1.0000 0.97300  0.68900  0.00000  Biso   1.000  C
  C17      1.0000 0.66500  0.30500  0.50000  Biso   1.000  C
  C18      1.0000 0.16500  0.30500  0.00000  Biso   1.000  C
  C19      1.0000 0.33500  0.69500  0.50000  Biso   1.000  C
  C20      1.0000 0.83500  0.69500  0.00000  Biso   1.000  C
  C21      1.0000 0.70600  0.23000  0.50000  Biso   1.000  C
  C22      1.0000 0.20600  0.23000  0.00000  Biso   1.000  C
  C23      1.0000 0.29400  0.77000  0.50000  Biso   1.000  C
  C24      1.0000 0.79400  0.77000  0.00000  Biso   1.000  C
  C25      1.0000 0.61000  0.16300  0.50000  Biso   1.000  C
  C26      1.0000 0.11000  0.16300  0.00000  Biso   1.000  C
  C27      1.0000 0.39000  0.83700  0.50000  Biso   1.000  C
  C28      1.0000 0.89000  0.83700  0.00000  Biso   1.000  C
  C29      1.0000 0.27500  0.25100  0.50000  Biso   1.000  C
  C30      1.0000 0.77500  0.25100  0.00000  Biso   1.000  C
  C31      1.0000 0.72500  0.74900  0.50000  Biso   1.000  C
  C32      1.0000 0.22500  0.74900  0.00000  Biso   1.000  C
  C33      1.0000 0.21500  0.21600  0.38400  Biso   1.000  C
  C34      1.0000 0.71500  0.21600  0.88400  Biso   1.000  C
  C35      1.0000 0.78500  0.78400  0.38400  Biso   1.000  C
  C36      1.0000 0.28500  0.78400  0.88400  Biso   1.000  C
  C37      1.0000 0.78500  0.78400  0.61600  Biso   1.000  C
  C38      1.0000 0.28500  0.78400  0.11600  Biso   1.000  C
  C39      1.0000 0.21500  0.21600  0.61600  Biso   1.000  C
  C40      1.0000 0.71500  0.21600  0.11600  Biso   1.000  C
  C41      1.0000 0.26900  0.34800  0.50000  Biso   1.000  C
  C42      1.0000 0.76900  0.34800  0.00000  Biso   1.000  C
  C43      1.0000 0.73100  0.65200  0.50000  Biso   1.000  C
  C44      1.0000 0.23100  0.65200  0.00000  Biso   1.000  C
  C45      1.0000 0.76700  0.38600  0.50000  Biso   1.000  C
  C46      1.0000 0.26700  0.38600  0.00000  Biso   1.000  C
  C47      1.0000 0.23300  0.61400  0.50000  Biso   1.000  C
  C48      1.0000 0.73300  0.61400  0.00000  Biso   1.000  C
  C49      1.0000 0.73700  0.43400  0.38600  Biso   1.000  C
  C50      1.0000 0.23700  0.43400  0.88600  Biso   1.000  C
  C51      1.0000 0.26300  0.56600  0.38600  Biso   1.000  C
  C52      1.0000 0.76300  0.56600  0.88600  Biso   1.000  C
  C53      1.0000 0.26300  0.56600  0.61400  Biso   1.000  C
  C54      1.0000 0.76300  0.56600  0.11400  Biso   1.000  C
  C55      1.0000 0.73700  0.43400  0.61400  Biso   1.000  C
  C56      1.0000 0.23700  0.43400  0.11400  Biso   1.000  C
  C57      1.0000 0.90200  0.37000  0.50000  Biso   1.000  C
  C58      1.0000 0.40200  0.37000  0.00000  Biso   1.000  C
  C59      1.0000 0.09800  0.63000  0.50000  Biso   1.000  C
  C60      1.0000 0.59800  0.63000  0.00000  Biso   1.000  C
  C61      1.0000 0.41400  0.03700  0.74400  Biso   1.000  C
  C62      1.0000 0.91400  0.03700  0.24400  Biso   1.000  C
  C63      1.0000 0.58600  0.96300  0.74400  Biso   1.000  C
  C64      1.0000 0.08600  0.96300  0.24400  Biso   1.000  C
  C65      1.0000 0.58600  0.96300  0.25600  Biso   1.000  C
  C66      1.0000 0.08600  0.96300  0.75600  Biso   1.000  C
  C67      1.0000 0.41400  0.03700  0.25600  Biso   1.000  C
  C68      1.0000 0.91400  0.03700  0.75600  Biso   1.000  C
  C69      1.0000 0.40900  0.03700  0.86900  Biso   1.000  C
  C70      1.0000 0.90900  0.03700  0.36900  Biso   1.000  C
  C71      1.0000 0.59100  0.96300  0.86900  Biso   1.000  C
  C72      1.0000 0.09100  0.96300  0.36900  Biso   1.000  C
  C73      1.0000 0.59100  0.96300  0.13100  Biso   1.000  C
  C74      1.0000 0.09100  0.96300  0.63100  Biso   1.000  C
  C75      1.0000 0.40900  0.03700  0.13100  Biso   1.000  C
  C76      1.0000 0.90900  0.03700  0.63100  Biso   1.000  C
