data_image0
_cell_length_a       19.7502
_cell_length_b       14.0656
_cell_length_c       11.1977
_cell_angle_alpha    90
_cell_angle_beta     104.159
_cell_angle_gamma    90

_symmetry_space_group_name_H-M    "P 1"
_symmetry_int_tables_number       1

loop_
  _symmetry_equiv_pos_as_xyz
  'x, y, z'

loop_
  _atom_site_label
  _atom_site_occupancy
  _atom_site_fract_x
  _atom_site_fract_y
  _atom_site_fract_z
  _atom_site_thermal_displace_type
  _atom_site_B_iso_or_equiv
  _atom_site_type_symbol
  Cu1      1.0000 0.57620  0.91992  0.36751  Biso   1.000  Cu
  Cu2      1.0000 0.42380  0.91992  0.13249  Biso   1.000  Cu
  Cu3      1.0000 0.07620  0.41992  0.36751  Biso   1.000  Cu
  Cu4      1.0000 0.92380  0.41992  0.13249  Biso   1.000  Cu
  Cu5      1.0000 0.42380  0.08008  0.63249  Biso   1.000  Cu
  Cu6      1.0000 0.57620  0.08008  0.86751  Biso   1.000  Cu
  Cu7      1.0000 0.92380  0.58008  0.63249  Biso   1.000  Cu
  Cu8      1.0000 0.07620  0.58008  0.86751  Biso   1.000  Cu
  Se1      1.0000 0.44423  0.05480  0.35577  Biso   1.000  Se
  Se2      1.0000 0.55577  0.05480  0.14423  Biso   1.000  Se
  Se3      1.0000 0.94423  0.55480  0.35577  Biso   1.000  Se
  Se4      1.0000 0.05577  0.55480  0.14423  Biso   1.000  Se
  Se5      1.0000 0.55577  0.94520  0.64423  Biso   1.000  Se
  Se6      1.0000 0.44423  0.94520  0.85577  Biso   1.000  Se
  Se7      1.0000 0.05577  0.44520  0.64423  Biso   1.000  Se
  Se8      1.0000 0.94423  0.44520  0.85577  Biso   1.000  Se
  O1       1.0000 0.48143  0.94510  0.37710  Biso   1.000  O
  O2       1.0000 0.51857  0.94510  0.12290  Biso   1.000  O
  O3       1.0000 0.98143  0.44510  0.37710  Biso   1.000  O
  O4       1.0000 0.01857  0.44510  0.12290  Biso   1.000  O
  O5       1.0000 0.51857  0.05490  0.62290  Biso   1.000  O
  O6       1.0000 0.48143  0.05490  0.87710  Biso   1.000  O
  O7       1.0000 0.01857  0.55490  0.62290  Biso   1.000  O
  O8       1.0000 0.98143  0.55490  0.87710  Biso   1.000  O
  O9       1.0000 0.40500  0.04460  0.20110  Biso   1.000  O
  O10      1.0000 0.59500  0.04460  0.29890  Biso   1.000  O
  O11      1.0000 0.90500  0.54460  0.20110  Biso   1.000  O
  O12      1.0000 0.09500  0.54460  0.29890  Biso   1.000  O
  O13      1.0000 0.59500  0.95540  0.79890  Biso   1.000  O
  O14      1.0000 0.40500  0.95540  0.70110  Biso   1.000  O
  O15      1.0000 0.09500  0.45540  0.79890  Biso   1.000  O
  O16      1.0000 0.90500  0.45540  0.70110  Biso   1.000  O
  O17      1.0000 0.37842  0.04290  0.42370  Biso   1.000  O
  O18      1.0000 0.62158  0.04290  0.07630  Biso   1.000  O
  O19      1.0000 0.87842  0.54290  0.42370  Biso   1.000  O
  O20      1.0000 0.12158  0.54290  0.07630  Biso   1.000  O
  O21      1.0000 0.62158  0.95710  0.57630  Biso   1.000  O
  O22      1.0000 0.37842  0.95710  0.92370  Biso   1.000  O
  O23      1.0000 0.12158  0.45710  0.57630  Biso   1.000  O
  O24      1.0000 0.87842  0.45710  0.92370  Biso   1.000  O
  N1       1.0000 0.55430  0.78100  0.39460  Biso   1.000  N
  N2       1.0000 0.44570  0.78100  0.10540  Biso   1.000  N
  N3       1.0000 0.05430  0.28100  0.39460  Biso   1.000  N
  N4       1.0000 0.94570  0.28100  0.10540  Biso   1.000  N
  N5       1.0000 0.44570  0.21900  0.60540  Biso   1.000  N
  N6       1.0000 0.55430  0.21900  0.89460  Biso   1.000  N
  N7       1.0000 0.94570  0.71900  0.60540  Biso   1.000  N
  N8       1.0000 0.05430  0.71900  0.89460  Biso   1.000  N
  N9       1.0000 0.66570  0.86010  0.34670  Biso   1.000  N
  N10      1.0000 0.33430  0.86010  0.15330  Biso   1.000  N
  N11      1.0000 0.16570  0.36010  0.34670  Biso   1.000  N
  N12      1.0000 0.83430  0.36010  0.15330  Biso   1.000  N
  N13      1.0000 0.33430  0.13990  0.65330  Biso   1.000  N
  N14      1.0000 0.66570  0.13990  0.84670  Biso   1.000  N
  N15      1.0000 0.83430  0.63990  0.65330  Biso   1.000  N
  N16      1.0000 0.16570  0.63990  0.84670  Biso   1.000  N
  C1       1.0000 0.49620  0.74300  0.41690  Biso   1.000  C
  C2       1.0000 0.50380  0.74300  0.08310  Biso   1.000  C
  C3       1.0000 0.99620  0.24300  0.41690  Biso   1.000  C
  C4       1.0000 0.00380  0.24300  0.08310  Biso   1.000  C
  C5       1.0000 0.50380  0.25700  0.58310  Biso   1.000  C
  C6       1.0000 0.49620  0.25700  0.91690  Biso   1.000  C
  C7       1.0000 0.00380  0.75700  0.58310  Biso   1.000  C
  C8       1.0000 0.99620  0.75700  0.91690  Biso   1.000  C
  H1       1.0000 0.46100  0.78340  0.42810  Biso   1.000  H
  H2       1.0000 0.53900  0.78340  0.07190  Biso   1.000  H
  H3       1.0000 0.96100  0.28340  0.42810  Biso   1.000  H
  H4       1.0000 0.03900  0.28340  0.07190  Biso   1.000  H
  H5       1.0000 0.53900  0.21660  0.57190  Biso   1.000  H
  H6       1.0000 0.46100  0.21660  0.92810  Biso   1.000  H
  H7       1.0000 0.03900  0.71660  0.57190  Biso   1.000  H
  H8       1.0000 0.96100  0.71660  0.92810  Biso   1.000  H
  C9       1.0000 0.48700  0.64480  0.42390  Biso   1.000  C
  C10      1.0000 0.51300  0.64480  0.07610  Biso   1.000  C
  C11      1.0000 0.98700  0.14480  0.42390  Biso   1.000  C
  C12      1.0000 0.01300  0.14480  0.07610  Biso   1.000  C
  C13      1.0000 0.51300  0.35520  0.57610  Biso   1.000  C
  C14      1.0000 0.48700  0.35520  0.92390  Biso   1.000  C
  C15      1.0000 0.01300  0.85520  0.57610  Biso   1.000  C
  C16      1.0000 0.98700  0.85520  0.92390  Biso   1.000  C
  H9       1.0000 0.44580  0.62040  0.43780  Biso   1.000  H
  H10      1.0000 0.55420  0.62040  0.06220  Biso   1.000  H
  H11      1.0000 0.94580  0.12040  0.43780  Biso   1.000  H
  H12      1.0000 0.05420  0.12040  0.06220  Biso   1.000  H
  H13      1.0000 0.55420  0.37960  0.56220  Biso   1.000  H
  H14      1.0000 0.44580  0.37960  0.93780  Biso   1.000  H
  H15      1.0000 0.05420  0.87960  0.56220  Biso   1.000  H
  H16      1.0000 0.94580  0.87960  0.93780  Biso   1.000  H
  C17      1.0000 0.53950  0.58450  0.40990  Biso   1.000  C
  C18      1.0000 0.46050  0.58450  0.09010  Biso   1.000  C
  C19      1.0000 0.03950  0.08450  0.40990  Biso   1.000  C
  C20      1.0000 0.96050  0.08450  0.09010  Biso   1.000  C
  C21      1.0000 0.46050  0.41550  0.59010  Biso   1.000  C
  C22      1.0000 0.53950  0.41550  0.90990  Biso   1.000  C
  C23      1.0000 0.96050  0.91550  0.59010  Biso   1.000  C
  C24      1.0000 0.03950  0.91550  0.90990  Biso   1.000  C
  H17      1.0000 0.53370  0.51910  0.41380  Biso   1.000  H
  H18      1.0000 0.46630  0.51910  0.08620  Biso   1.000  H
  H19      1.0000 0.03370  0.01910  0.41380  Biso   1.000  H
  H20      1.0000 0.96630  0.01910  0.08620  Biso   1.000  H
  H21      1.0000 0.46630  0.48090  0.58620  Biso   1.000  H
  H22      1.0000 0.53370  0.48090  0.91380  Biso   1.000  H
  H23      1.0000 0.96630  0.98090  0.58620  Biso   1.000  H
  H24      1.0000 0.03370  0.98090  0.91380  Biso   1.000  H
  C25      1.0000 0.60150  0.62160  0.38980  Biso   1.000  C
  C26      1.0000 0.39850  0.62160  0.11020  Biso   1.000  C
  C27      1.0000 0.10150  0.12160  0.38980  Biso   1.000  C
  C28      1.0000 0.89850  0.12160  0.11020  Biso   1.000  C
  C29      1.0000 0.39850  0.37840  0.61020  Biso   1.000  C
  C30      1.0000 0.60150  0.37840  0.88980  Biso   1.000  C
  C31      1.0000 0.89850  0.87840  0.61020  Biso   1.000  C
  C32      1.0000 0.10150  0.87840  0.88980  Biso   1.000  C
  C33      1.0000 0.60530  0.72030  0.38060  Biso   1.000  C
  C34      1.0000 0.39470  0.72030  0.11940  Biso   1.000  C
  C35      1.0000 0.10530  0.22030  0.38060  Biso   1.000  C
  C36      1.0000 0.89470  0.22030  0.11940  Biso   1.000  C
  C37      1.0000 0.39470  0.27970  0.61940  Biso   1.000  C
  C38      1.0000 0.60530  0.27970  0.88060  Biso   1.000  C
  C39      1.0000 0.89470  0.77970  0.61940  Biso   1.000  C
  C40      1.0000 0.10530  0.77970  0.88060  Biso   1.000  C
  C41      1.0000 0.66610  0.76380  0.35680  Biso   1.000  C
  C42      1.0000 0.33390  0.76380  0.14320  Biso   1.000  C
  C43      1.0000 0.16610  0.26380  0.35680  Biso   1.000  C
  C44      1.0000 0.83390  0.26380  0.14320  Biso   1.000  C
  C45      1.0000 0.33390  0.23620  0.64320  Biso   1.000  C
  C46      1.0000 0.66610  0.23620  0.85680  Biso   1.000  C
  C47      1.0000 0.83390  0.73620  0.64320  Biso   1.000  C
  C48      1.0000 0.16610  0.73620  0.85680  Biso   1.000  C
  C49      1.0000 0.72220  0.70740  0.34210  Biso   1.000  C
  C50      1.0000 0.27780  0.70740  0.15790  Biso   1.000  C
  C51      1.0000 0.22220  0.20740  0.34210  Biso   1.000  C
  C52      1.0000 0.77780  0.20740  0.15790  Biso   1.000  C
  C53      1.0000 0.27780  0.29260  0.65790  Biso   1.000  C
  C54      1.0000 0.72220  0.29260  0.84210  Biso   1.000  C
  C55      1.0000 0.77780  0.79260  0.65790  Biso   1.000  C
  C56      1.0000 0.22220  0.79260  0.84210  Biso   1.000  C
  C57      1.0000 0.78030  0.75450  0.32120  Biso   1.000  C
  C58      1.0000 0.21970  0.75450  0.17880  Biso   1.000  C
  C59      1.0000 0.28030  0.25450  0.32120  Biso   1.000  C
  C60      1.0000 0.71970  0.25450  0.17880  Biso   1.000  C
  C61      1.0000 0.21970  0.24550  0.67880  Biso   1.000  C
  C62      1.0000 0.78030  0.24550  0.82120  Biso   1.000  C
  C63      1.0000 0.71970  0.74550  0.67880  Biso   1.000  C
  C64      1.0000 0.28030  0.74550  0.82120  Biso   1.000  C
  H25      1.0000 0.81880  0.71970  0.31220  Biso   1.000  H
  H26      1.0000 0.18120  0.71970  0.18780  Biso   1.000  H
  H27      1.0000 0.31880  0.21970  0.31220  Biso   1.000  H
  H28      1.0000 0.68120  0.21970  0.18780  Biso   1.000  H
  H29      1.0000 0.18120  0.28030  0.68780  Biso   1.000  H
  H30      1.0000 0.81880  0.28030  0.81220  Biso   1.000  H
  H31      1.0000 0.68120  0.78030  0.68780  Biso   1.000  H
  H32      1.0000 0.31880  0.78030  0.81220  Biso   1.000  H
  C65      1.0000 0.78090  0.85100  0.31410  Biso   1.000  C
  C66      1.0000 0.21910  0.85100  0.18590  Biso   1.000  C
  C67      1.0000 0.28090  0.35100  0.31410  Biso   1.000  C
  C68      1.0000 0.71910  0.35100  0.18590  Biso   1.000  C
  C69      1.0000 0.21910  0.14900  0.68590  Biso   1.000  C
  C70      1.0000 0.78090  0.14900  0.81410  Biso   1.000  C
  C71      1.0000 0.71910  0.64900  0.68590  Biso   1.000  C
  C72      1.0000 0.28090  0.64900  0.81410  Biso   1.000  C
  H33      1.0000 0.81970  0.88240  0.30040  Biso   1.000  H
  H34      1.0000 0.18030  0.88240  0.19960  Biso   1.000  H
  H35      1.0000 0.31970  0.38240  0.30040  Biso   1.000  H
  H36      1.0000 0.68030  0.38240  0.19960  Biso   1.000  H
  H37      1.0000 0.18030  0.11760  0.69960  Biso   1.000  H
  H38      1.0000 0.81970  0.11760  0.80040  Biso   1.000  H
  H39      1.0000 0.68030  0.61760  0.69960  Biso   1.000  H
  H40      1.0000 0.31970  0.61760  0.80040  Biso   1.000  H
  C73      1.0000 0.72110  0.90430  0.32790  Biso   1.000  C
  C74      1.0000 0.27890  0.90430  0.17210  Biso   1.000  C
  C75      1.0000 0.22110  0.40430  0.32790  Biso   1.000  C
  C76      1.0000 0.77890  0.40430  0.17210  Biso   1.000  C
  C77      1.0000 0.27890  0.09570  0.67210  Biso   1.000  C
  C78      1.0000 0.72110  0.09570  0.82790  Biso   1.000  C
  C79      1.0000 0.77890  0.59570  0.67210  Biso   1.000  C
  C80      1.0000 0.22110  0.59570  0.82790  Biso   1.000  C
  H41      1.0000 0.72150  0.97030  0.32340  Biso   1.000  H
  H42      1.0000 0.27850  0.97030  0.17660  Biso   1.000  H
  H43      1.0000 0.22150  0.47030  0.32340  Biso   1.000  H
  H44      1.0000 0.77850  0.47030  0.17660  Biso   1.000  H
  H45      1.0000 0.27850  0.02970  0.67660  Biso   1.000  H
  H46      1.0000 0.72150  0.02970  0.82340  Biso   1.000  H
  H47      1.0000 0.77850  0.52970  0.67660  Biso   1.000  H
  H48      1.0000 0.22150  0.52970  0.82340  Biso   1.000  H
  C81      1.0000 0.65970  0.56710  0.37390  Biso   1.000  C
  C82      1.0000 0.34030  0.56710  0.12610  Biso   1.000  C
  C83      1.0000 0.15970  0.06710  0.37390  Biso   1.000  C
  C84      1.0000 0.84030  0.06710  0.12610  Biso   1.000  C
  C85      1.0000 0.34030  0.43290  0.62610  Biso   1.000  C
  C86      1.0000 0.65970  0.43290  0.87390  Biso   1.000  C
  C87      1.0000 0.84030  0.93290  0.62610  Biso   1.000  C
  C88      1.0000 0.15970  0.93290  0.87390  Biso   1.000  C
  H49      1.0000 0.65770  0.50120  0.37810  Biso   1.000  H
  H50      1.0000 0.34230  0.50120  0.12190  Biso   1.000  H
  H51      1.0000 0.15770  0.00120  0.37810  Biso   1.000  H
  H52      1.0000 0.84230  0.00120  0.12190  Biso   1.000  H
  H53      1.0000 0.34230  0.49880  0.62190  Biso   1.000  H
  H54      1.0000 0.65770  0.49880  0.87810  Biso   1.000  H
  H55      1.0000 0.84230  0.99880  0.62190  Biso   1.000  H
  H56      1.0000 0.15770  0.99880  0.87810  Biso   1.000  H
  C89      1.0000 0.71650  0.60720  0.35350  Biso   1.000  C
  C90      1.0000 0.28350  0.60720  0.14650  Biso   1.000  C
  C91      1.0000 0.21650  0.10720  0.35350  Biso   1.000  C
  C92      1.0000 0.78350  0.10720  0.14650  Biso   1.000  C
  C93      1.0000 0.28350  0.39280  0.64650  Biso   1.000  C
  C94      1.0000 0.71650  0.39280  0.85350  Biso   1.000  C
  C95      1.0000 0.78350  0.89280  0.64650  Biso   1.000  C
  C96      1.0000 0.21650  0.89280  0.85350  Biso   1.000  C
  H57      1.0000 0.75360  0.56880  0.34650  Biso   1.000  H
  H58      1.0000 0.24640  0.56880  0.15350  Biso   1.000  H
  H59      1.0000 0.25360  0.06880  0.34650  Biso   1.000  H
  H60      1.0000 0.74640  0.06880  0.15350  Biso   1.000  H
  H61      1.0000 0.24640  0.43120  0.65350  Biso   1.000  H
  H62      1.0000 0.75360  0.43120  0.84650  Biso   1.000  H
  H63      1.0000 0.74640  0.93120  0.65350  Biso   1.000  H
  H64      1.0000 0.25360  0.93120  0.84650  Biso   1.000  H
  O25      1.0000 0.32210  0.12610  0.99640  Biso   1.000  O
  O26      1.0000 0.67790  0.12610  0.50360  Biso   1.000  O
  O27      1.0000 0.82210  0.62610  0.99640  Biso   1.000  O
  O28      1.0000 0.17790  0.62610  0.50360  Biso   1.000  O
  O29      1.0000 0.67790  0.87390  0.00360  Biso   1.000  O
  O30      1.0000 0.32210  0.87390  0.49640  Biso   1.000  O
  O31      1.0000 0.17790  0.37390  0.00360  Biso   1.000  O
  O32      1.0000 0.82210  0.37390  0.49640  Biso   1.000  O
  H65      1.0000 0.31000  0.08300  0.94900  Biso   1.000  H
  H66      1.0000 0.69000  0.08300  0.55100  Biso   1.000  H
  H67      1.0000 0.81000  0.58300  0.94900  Biso   1.000  H
  H68      1.0000 0.19000  0.58300  0.55100  Biso   1.000  H
  H69      1.0000 0.69000  0.91700  0.05100  Biso   1.000  H
  H70      1.0000 0.31000  0.91700  0.44900  Biso   1.000  H
  H71      1.0000 0.19000  0.41700  0.05100  Biso   1.000  H
  H72      1.0000 0.81000  0.41700  0.44900  Biso   1.000  H
  H73      1.0000 0.33500  0.10500  0.06500  Biso   1.000  H
  H74      1.0000 0.66500  0.10500  0.43500  Biso   1.000  H
  H75      1.0000 0.83500  0.60500  0.06500  Biso   1.000  H
  H76      1.0000 0.16500  0.60500  0.43500  Biso   1.000  H
  H77      1.0000 0.66500  0.89500  0.93500  Biso   1.000  H
  H78      1.0000 0.33500  0.89500  0.56500  Biso   1.000  H
  H79      1.0000 0.16500  0.39500  0.93500  Biso   1.000  H
  H80      1.0000 0.83500  0.39500  0.56500  Biso   1.000  H
  O33      1.0000 0.17480  0.16990  0.99820  Biso   1.000  O
  O34      1.0000 0.82520  0.16990  0.50180  Biso   1.000  O
  O35      1.0000 0.67480  0.66990  0.99820  Biso   1.000  O
  O36      1.0000 0.32520  0.66990  0.50180  Biso   1.000  O
  O37      1.0000 0.82520  0.83010  0.00180  Biso   1.000  O
  O38      1.0000 0.17480  0.83010  0.49820  Biso   1.000  O
  O39      1.0000 0.32520  0.33010  0.00180  Biso   1.000  O
  O40      1.0000 0.67480  0.33010  0.49820  Biso   1.000  O
  H81      1.0000 0.20600  0.15500  0.96700  Biso   1.000  H
  H82      1.0000 0.79400  0.15500  0.53300  Biso   1.000  H
  H83      1.0000 0.70600  0.65500  0.96700  Biso   1.000  H
  H84      1.0000 0.29400  0.65500  0.53300  Biso   1.000  H
  H85      1.0000 0.79400  0.84500  0.03300  Biso   1.000  H
  H86      1.0000 0.20600  0.84500  0.46700  Biso   1.000  H
  H87      1.0000 0.29400  0.34500  0.03300  Biso   1.000  H
  H88      1.0000 0.70600  0.34500  0.46700  Biso   1.000  H
  H89      1.0000 0.18700  0.22200  0.02600  Biso   1.000  H
  H90      1.0000 0.81300  0.22200  0.47400  Biso   1.000  H
  H91      1.0000 0.68700  0.72200  0.02600  Biso   1.000  H
  H92      1.0000 0.31300  0.72200  0.47400  Biso   1.000  H
  H93      1.0000 0.81300  0.77800  0.97400  Biso   1.000  H
  H94      1.0000 0.18700  0.77800  0.52600  Biso   1.000  H
  H95      1.0000 0.31300  0.27800  0.97400  Biso   1.000  H
  H96      1.0000 0.68700  0.27800  0.52600  Biso   1.000  H
