data_image0
_cell_length_a       16.634
_cell_length_b       13.812
_cell_length_c       11.169
_cell_angle_alpha    90
_cell_angle_beta     102.494
_cell_angle_gamma    90

_symmetry_space_group_name_H-M    "P 1"
_symmetry_int_tables_number       1

loop_
  _symmetry_equiv_pos_as_xyz
  'x, y, z'

loop_
  _atom_site_label
  _atom_site_occupancy
  _atom_site_fract_x
  _atom_site_fract_y
  _atom_site_fract_z
  _atom_site_thermal_displace_type
  _atom_site_B_iso_or_equiv
  _atom_site_type_symbol
  Cu1      1.0000 0.90601  0.92723  0.14190  Biso   1.000  Cu
  Cu2      1.0000 0.09399  0.92723  0.35810  Biso   1.000  Cu
  Cu3      1.0000 0.40601  0.42723  0.14190  Biso   1.000  Cu
  Cu4      1.0000 0.59399  0.42723  0.35810  Biso   1.000  Cu
  Cu5      1.0000 0.09399  0.07277  0.85810  Biso   1.000  Cu
  Cu6      1.0000 0.90601  0.07277  0.64190  Biso   1.000  Cu
  Cu7      1.0000 0.59399  0.57277  0.85810  Biso   1.000  Cu
  Cu8      1.0000 0.40601  0.57277  0.64190  Biso   1.000  Cu
  Se1      1.0000 0.05985  0.05911  0.13358  Biso   1.000  Se
  Se2      1.0000 0.94015  0.05911  0.36642  Biso   1.000  Se
  Se3      1.0000 0.55985  0.55911  0.13358  Biso   1.000  Se
  Se4      1.0000 0.44015  0.55911  0.36642  Biso   1.000  Se
  Se5      1.0000 0.94015  0.94089  0.86642  Biso   1.000  Se
  Se6      1.0000 0.05985  0.94089  0.63358  Biso   1.000  Se
  Se7      1.0000 0.44015  0.44089  0.86642  Biso   1.000  Se
  Se8      1.0000 0.55985  0.44089  0.63358  Biso   1.000  Se
  O1       1.0000 0.01860  0.94510  0.12280  Biso   1.000  O
  O2       1.0000 0.98140  0.94510  0.37720  Biso   1.000  O
  O3       1.0000 0.51860  0.44510  0.12280  Biso   1.000  O
  O4       1.0000 0.48140  0.44510  0.37720  Biso   1.000  O
  O5       1.0000 0.98140  0.05490  0.87720  Biso   1.000  O
  O6       1.0000 0.01860  0.05490  0.62280  Biso   1.000  O
  O7       1.0000 0.48140  0.55490  0.87720  Biso   1.000  O
  O8       1.0000 0.51860  0.55490  0.62280  Biso   1.000  O
  O9       1.0000 0.10260  0.05760  0.28700  Biso   1.000  O
  O10      1.0000 0.89740  0.05760  0.21300  Biso   1.000  O
  O11      1.0000 0.60260  0.55760  0.28700  Biso   1.000  O
  O12      1.0000 0.39740  0.55760  0.21300  Biso   1.000  O
  O13      1.0000 0.89740  0.94240  0.71300  Biso   1.000  O
  O14      1.0000 0.10260  0.94240  0.78700  Biso   1.000  O
  O15      1.0000 0.39740  0.44240  0.71300  Biso   1.000  O
  O16      1.0000 0.60260  0.44240  0.78700  Biso   1.000  O
  O17      1.0000 0.14050  0.04200  0.06900  Biso   1.000  O
  O18      1.0000 0.85950  0.04200  0.43100  Biso   1.000  O
  O19      1.0000 0.64050  0.54200  0.06900  Biso   1.000  O
  O20      1.0000 0.35950  0.54200  0.43100  Biso   1.000  O
  O21      1.0000 0.85950  0.95800  0.93100  Biso   1.000  O
  O22      1.0000 0.14050  0.95800  0.56900  Biso   1.000  O
  O23      1.0000 0.35950  0.45800  0.93100  Biso   1.000  O
  O24      1.0000 0.64050  0.45800  0.56900  Biso   1.000  O
  N1       1.0000 0.91650  0.78280  0.12120  Biso   1.000  N
  N2       1.0000 0.08350  0.78280  0.37880  Biso   1.000  N
  N3       1.0000 0.41650  0.28280  0.12120  Biso   1.000  N
  N4       1.0000 0.58350  0.28280  0.37880  Biso   1.000  N
  N5       1.0000 0.08350  0.21720  0.87880  Biso   1.000  N
  N6       1.0000 0.91650  0.21720  0.62120  Biso   1.000  N
  N7       1.0000 0.58350  0.71720  0.87880  Biso   1.000  N
  N8       1.0000 0.41650  0.71720  0.62120  Biso   1.000  N
  N9       1.0000 0.79580  0.88610  0.16590  Biso   1.000  N
  N10      1.0000 0.20420  0.88610  0.33410  Biso   1.000  N
  N11      1.0000 0.29580  0.38610  0.16590  Biso   1.000  N
  N12      1.0000 0.70420  0.38610  0.33410  Biso   1.000  N
  N13      1.0000 0.20420  0.11390  0.83410  Biso   1.000  N
  N14      1.0000 0.79580  0.11390  0.66590  Biso   1.000  N
  N15      1.0000 0.70420  0.61390  0.83410  Biso   1.000  N
  N16      1.0000 0.29580  0.61390  0.66590  Biso   1.000  N
  C1       1.0000 0.98130  0.73670  0.09500  Biso   1.000  C
  C2       1.0000 0.01870  0.73670  0.40500  Biso   1.000  C
  C3       1.0000 0.48130  0.23670  0.09500  Biso   1.000  C
  C4       1.0000 0.51870  0.23670  0.40500  Biso   1.000  C
  C5       1.0000 0.01870  0.26330  0.90500  Biso   1.000  C
  C6       1.0000 0.98130  0.26330  0.59500  Biso   1.000  C
  C7       1.0000 0.51870  0.76330  0.90500  Biso   1.000  C
  C8       1.0000 0.48130  0.76330  0.59500  Biso   1.000  C
  H1       1.0000 0.02830  0.77340  0.08770  Biso   1.000  H
  H2       1.0000 0.97170  0.77340  0.41230  Biso   1.000  H
  H3       1.0000 0.52830  0.27340  0.08770  Biso   1.000  H
  H4       1.0000 0.47170  0.27340  0.41230  Biso   1.000  H
  H5       1.0000 0.97170  0.22660  0.91230  Biso   1.000  H
  H6       1.0000 0.02830  0.22660  0.58770  Biso   1.000  H
  H7       1.0000 0.47170  0.72660  0.91230  Biso   1.000  H
  H8       1.0000 0.52830  0.72660  0.58770  Biso   1.000  H
  C9       1.0000 0.98230  0.63730  0.07800  Biso   1.000  C
  C10      1.0000 0.01770  0.63730  0.42200  Biso   1.000  C
  C11      1.0000 0.48230  0.13730  0.07800  Biso   1.000  C
  C12      1.0000 0.51770  0.13730  0.42200  Biso   1.000  C
  C13      1.0000 0.01770  0.36270  0.92200  Biso   1.000  C
  C14      1.0000 0.98230  0.36270  0.57800  Biso   1.000  C
  C15      1.0000 0.51770  0.86270  0.92200  Biso   1.000  C
  C16      1.0000 0.48230  0.86270  0.57800  Biso   1.000  C
  H9       1.0000 0.02990  0.60610  0.06240  Biso   1.000  H
  H10      1.0000 0.97010  0.60610  0.43760  Biso   1.000  H
  H11      1.0000 0.52990  0.10610  0.06240  Biso   1.000  H
  H12      1.0000 0.47010  0.10610  0.43760  Biso   1.000  H
  H13      1.0000 0.97010  0.39390  0.93760  Biso   1.000  H
  H14      1.0000 0.02990  0.39390  0.56240  Biso   1.000  H
  H15      1.0000 0.47010  0.89390  0.93760  Biso   1.000  H
  H16      1.0000 0.52990  0.89390  0.56240  Biso   1.000  H
  C17      1.0000 0.91090  0.58300  0.08420  Biso   1.000  C
  C18      1.0000 0.08910  0.58300  0.41580  Biso   1.000  C
  C19      1.0000 0.41090  0.08300  0.08420  Biso   1.000  C
  C20      1.0000 0.58910  0.08300  0.41580  Biso   1.000  C
  C21      1.0000 0.08910  0.41700  0.91580  Biso   1.000  C
  C22      1.0000 0.91090  0.41700  0.58420  Biso   1.000  C
  C23      1.0000 0.58910  0.91700  0.91580  Biso   1.000  C
  C24      1.0000 0.41090  0.91700  0.58420  Biso   1.000  C
  H17      1.0000 0.90850  0.51520  0.06910  Biso   1.000  H
  H18      1.0000 0.09150  0.51520  0.43090  Biso   1.000  H
  H19      1.0000 0.40850  0.01520  0.06910  Biso   1.000  H
  H20      1.0000 0.59150  0.01520  0.43090  Biso   1.000  H
  H21      1.0000 0.09150  0.48480  0.93090  Biso   1.000  H
  H22      1.0000 0.90850  0.48480  0.56910  Biso   1.000  H
  H23      1.0000 0.59150  0.98480  0.93090  Biso   1.000  H
  H24      1.0000 0.40850  0.98480  0.56910  Biso   1.000  H
  C25      1.0000 0.84590  0.63120  0.11250  Biso   1.000  C
  C26      1.0000 0.15410  0.63120  0.38750  Biso   1.000  C
  C27      1.0000 0.34590  0.13120  0.11250  Biso   1.000  C
  C28      1.0000 0.65410  0.13120  0.38750  Biso   1.000  C
  C29      1.0000 0.15410  0.36880  0.88750  Biso   1.000  C
  C30      1.0000 0.84590  0.36880  0.61250  Biso   1.000  C
  C31      1.0000 0.65410  0.86880  0.88750  Biso   1.000  C
  C32      1.0000 0.34590  0.86880  0.61250  Biso   1.000  C
  H25      1.0000 0.79760  0.59670  0.11910  Biso   1.000  H
  H26      1.0000 0.20240  0.59670  0.38090  Biso   1.000  H
  H27      1.0000 0.29760  0.09670  0.11910  Biso   1.000  H
  H28      1.0000 0.70240  0.09670  0.38090  Biso   1.000  H
  H29      1.0000 0.20240  0.40330  0.88090  Biso   1.000  H
  H30      1.0000 0.79760  0.40330  0.61910  Biso   1.000  H
  H31      1.0000 0.70240  0.90330  0.88090  Biso   1.000  H
  H32      1.0000 0.29760  0.90330  0.61910  Biso   1.000  H
  C33      1.0000 0.85000  0.73170  0.13200  Biso   1.000  C
  C34      1.0000 0.15000  0.73170  0.36800  Biso   1.000  C
  C35      1.0000 0.35000  0.23170  0.13200  Biso   1.000  C
  C36      1.0000 0.65000  0.23170  0.36800  Biso   1.000  C
  C37      1.0000 0.15000  0.26830  0.86800  Biso   1.000  C
  C38      1.0000 0.85000  0.26830  0.63200  Biso   1.000  C
  C39      1.0000 0.65000  0.76830  0.86800  Biso   1.000  C
  C40      1.0000 0.35000  0.76830  0.63200  Biso   1.000  C
  C41      1.0000 0.78370  0.78900  0.16500  Biso   1.000  C
  C42      1.0000 0.21630  0.78900  0.33500  Biso   1.000  C
  C43      1.0000 0.28370  0.28900  0.16500  Biso   1.000  C
  C44      1.0000 0.71630  0.28900  0.33500  Biso   1.000  C
  C45      1.0000 0.21630  0.21100  0.83500  Biso   1.000  C
  C46      1.0000 0.78370  0.21100  0.66500  Biso   1.000  C
  C47      1.0000 0.71630  0.71100  0.83500  Biso   1.000  C
  C48      1.0000 0.28370  0.71100  0.66500  Biso   1.000  C
  C49      1.0000 0.71220  0.75050  0.19140  Biso   1.000  C
  C50      1.0000 0.28780  0.75050  0.30860  Biso   1.000  C
  C51      1.0000 0.21220  0.25050  0.19140  Biso   1.000  C
  C52      1.0000 0.78780  0.25050  0.30860  Biso   1.000  C
  C53      1.0000 0.28780  0.24950  0.80860  Biso   1.000  C
  C54      1.0000 0.71220  0.24950  0.69140  Biso   1.000  C
  C55      1.0000 0.78780  0.74950  0.80860  Biso   1.000  C
  C56      1.0000 0.21220  0.74950  0.69140  Biso   1.000  C
  H33      1.0000 0.70390  0.68240  0.19010  Biso   1.000  H
  H34      1.0000 0.29610  0.68240  0.30990  Biso   1.000  H
  H35      1.0000 0.20390  0.18240  0.19010  Biso   1.000  H
  H36      1.0000 0.79610  0.18240  0.30990  Biso   1.000  H
  H37      1.0000 0.29610  0.31760  0.80990  Biso   1.000  H
  H38      1.0000 0.70390  0.31760  0.69010  Biso   1.000  H
  H39      1.0000 0.79610  0.81760  0.80990  Biso   1.000  H
  H40      1.0000 0.20390  0.81760  0.69010  Biso   1.000  H
  C57      1.0000 0.65360  0.81190  0.21930  Biso   1.000  C
  C58      1.0000 0.34640  0.81190  0.28070  Biso   1.000  C
  C59      1.0000 0.15360  0.31190  0.21930  Biso   1.000  C
  C60      1.0000 0.84640  0.31190  0.28070  Biso   1.000  C
  C61      1.0000 0.34640  0.18810  0.78070  Biso   1.000  C
  C62      1.0000 0.65360  0.18810  0.71930  Biso   1.000  C
  C63      1.0000 0.84640  0.68810  0.78070  Biso   1.000  C
  C64      1.0000 0.15360  0.68810  0.71930  Biso   1.000  C
  H41      1.0000 0.60500  0.78700  0.23990  Biso   1.000  H
  H42      1.0000 0.39500  0.78700  0.26010  Biso   1.000  H
  H43      1.0000 0.10500  0.28700  0.23990  Biso   1.000  H
  H44      1.0000 0.89500  0.28700  0.26010  Biso   1.000  H
  H45      1.0000 0.39500  0.21300  0.76010  Biso   1.000  H
  H46      1.0000 0.60500  0.21300  0.73990  Biso   1.000  H
  H47      1.0000 0.89500  0.71300  0.76010  Biso   1.000  H
  H48      1.0000 0.10500  0.71300  0.73990  Biso   1.000  H
  C65      1.0000 0.66680  0.90900  0.21680  Biso   1.000  C
  C66      1.0000 0.33320  0.90900  0.28320  Biso   1.000  C
  C67      1.0000 0.16680  0.40900  0.21680  Biso   1.000  C
  C68      1.0000 0.83320  0.40900  0.28320  Biso   1.000  C
  C69      1.0000 0.33320  0.09100  0.78320  Biso   1.000  C
  C70      1.0000 0.66680  0.09100  0.71680  Biso   1.000  C
  C71      1.0000 0.83320  0.59100  0.78320  Biso   1.000  C
  C72      1.0000 0.16680  0.59100  0.71680  Biso   1.000  C
  H49      1.0000 0.62620  0.95220  0.23380  Biso   1.000  H
  H50      1.0000 0.37380  0.95220  0.26620  Biso   1.000  H
  H51      1.0000 0.12620  0.45220  0.23380  Biso   1.000  H
  H52      1.0000 0.87380  0.45220  0.26620  Biso   1.000  H
  H53      1.0000 0.37380  0.04780  0.76620  Biso   1.000  H
  H54      1.0000 0.62620  0.04780  0.73380  Biso   1.000  H
  H55      1.0000 0.87380  0.54780  0.76620  Biso   1.000  H
  H56      1.0000 0.12620  0.54780  0.73380  Biso   1.000  H
  C73      1.0000 0.73780  0.94590  0.19010  Biso   1.000  C
  C74      1.0000 0.26220  0.94590  0.30990  Biso   1.000  C
  C75      1.0000 0.23780  0.44590  0.19010  Biso   1.000  C
  C76      1.0000 0.76220  0.44590  0.30990  Biso   1.000  C
  C77      1.0000 0.26220  0.05410  0.80990  Biso   1.000  C
  C78      1.0000 0.73780  0.05410  0.69010  Biso   1.000  C
  C79      1.0000 0.76220  0.55410  0.80990  Biso   1.000  C
  C80      1.0000 0.23780  0.55410  0.69010  Biso   1.000  C
  H57      1.0000 0.74580  0.01400  0.18880  Biso   1.000  H
  H58      1.0000 0.25420  0.01400  0.31120  Biso   1.000  H
  H59      1.0000 0.24580  0.51400  0.18880  Biso   1.000  H
  H60      1.0000 0.75420  0.51400  0.31120  Biso   1.000  H
  H61      1.0000 0.25420  0.98600  0.81120  Biso   1.000  H
  H62      1.0000 0.74580  0.98600  0.68880  Biso   1.000  H
  H63      1.0000 0.75420  0.48600  0.81120  Biso   1.000  H
  H64      1.0000 0.24580  0.48600  0.68880  Biso   1.000  H
  O25      1.0000 0.16850  0.14790  0.50500  Biso   1.000  O
  O26      1.0000 0.83150  0.14790  0.99500  Biso   1.000  O
  O27      1.0000 0.66850  0.64790  0.50500  Biso   1.000  O
  O28      1.0000 0.33150  0.64790  0.99500  Biso   1.000  O
  O29      1.0000 0.83150  0.85210  0.49500  Biso   1.000  O
  O30      1.0000 0.16850  0.85210  0.00500  Biso   1.000  O
  O31      1.0000 0.33150  0.35210  0.49500  Biso   1.000  O
  O32      1.0000 0.66850  0.35210  0.00500  Biso   1.000  O
  H65      1.0000 0.14200  0.14300  0.44200  Biso   1.000  H
  H66      1.0000 0.85800  0.14300  0.05800  Biso   1.000  H
  H67      1.0000 0.64200  0.64300  0.44200  Biso   1.000  H
  H68      1.0000 0.35800  0.64300  0.05800  Biso   1.000  H
  H69      1.0000 0.85800  0.85700  0.55800  Biso   1.000  H
  H70      1.0000 0.14200  0.85700  0.94200  Biso   1.000  H
  H71      1.0000 0.35800  0.35700  0.55800  Biso   1.000  H
  H72      1.0000 0.64200  0.35700  0.94200  Biso   1.000  H
  H73      1.0000 0.16600  0.09100  0.54700  Biso   1.000  H
  H74      1.0000 0.83400  0.09100  0.95300  Biso   1.000  H
  H75      1.0000 0.66600  0.59100  0.54700  Biso   1.000  H
  H76      1.0000 0.33400  0.59100  0.95300  Biso   1.000  H
  H77      1.0000 0.83400  0.90900  0.45300  Biso   1.000  H
  H78      1.0000 0.16600  0.90900  0.04700  Biso   1.000  H
  H79      1.0000 0.33400  0.40900  0.45300  Biso   1.000  H
  H80      1.0000 0.66600  0.40900  0.04700  Biso   1.000  H
  O33      1.0000 0.16560  0.35240  0.52850  Biso   1.000  O
  O34      1.0000 0.83440  0.35240  0.97150  Biso   1.000  O
  O35      1.0000 0.66560  0.85240  0.52850  Biso   1.000  O
  O36      1.0000 0.33440  0.85240  0.97150  Biso   1.000  O
  O37      1.0000 0.83440  0.64760  0.47150  Biso   1.000  O
  O38      1.0000 0.16560  0.64760  0.02850  Biso   1.000  O
  O39      1.0000 0.33440  0.14760  0.47150  Biso   1.000  O
  O40      1.0000 0.66560  0.14760  0.02850  Biso   1.000  O
  H81      1.0000 0.15400  0.29900  0.51300  Biso   1.000  H
  H82      1.0000 0.84600  0.29900  0.98700  Biso   1.000  H
  H83      1.0000 0.65400  0.79900  0.51300  Biso   1.000  H
  H84      1.0000 0.34600  0.79900  0.98700  Biso   1.000  H
  H85      1.0000 0.84600  0.70100  0.48700  Biso   1.000  H
  H86      1.0000 0.15400  0.70100  0.01300  Biso   1.000  H
  H87      1.0000 0.34600  0.20100  0.48700  Biso   1.000  H
  H88      1.0000 0.65400  0.20100  0.01300  Biso   1.000  H
  H89      1.0000 0.21300  0.36100  0.51400  Biso   1.000  H
  H90      1.0000 0.78700  0.36100  0.98600  Biso   1.000  H
  H91      1.0000 0.71300  0.86100  0.51400  Biso   1.000  H
  H92      1.0000 0.28700  0.86100  0.98600  Biso   1.000  H
  H93      1.0000 0.78700  0.63900  0.48600  Biso   1.000  H
  H94      1.0000 0.21300  0.63900  0.01400  Biso   1.000  H
  H95      1.0000 0.28700  0.13900  0.48600  Biso   1.000  H
  H96      1.0000 0.71300  0.13900  0.01400  Biso   1.000  H
