data_image0
_cell_length_a       17.375
_cell_length_b       7.3305
_cell_length_c       14.247
_cell_angle_alpha    90
_cell_angle_beta     111.409
_cell_angle_gamma    90

_symmetry_space_group_name_H-M    "P 1"
_symmetry_int_tables_number       1

loop_
  _symmetry_equiv_pos_as_xyz
  'x, y, z'

loop_
  _atom_site_label
  _atom_site_occupancy
  _atom_site_fract_x
  _atom_site_fract_y
  _atom_site_fract_z
  _atom_site_thermal_displace_type
  _atom_site_B_iso_or_equiv
  _atom_site_type_symbol
  C1       1.0000 0.30230  0.26680  0.85410  Biso   1.000  C
  C2       1.0000 0.19770  0.76680  0.64590  Biso   1.000  C
  C3       1.0000 0.69770  0.73320  0.14590  Biso   1.000  C
  C4       1.0000 0.80230  0.23320  0.35410  Biso   1.000  C
  C5       1.0000 0.38170  0.31120  0.94110  Biso   1.000  C
  C6       1.0000 0.11830  0.81120  0.55890  Biso   1.000  C
  C7       1.0000 0.61830  0.68880  0.05890  Biso   1.000  C
  C8       1.0000 0.88170  0.18880  0.44110  Biso   1.000  C
  C9       1.0000 0.45550  0.33400  0.90550  Biso   1.000  C
  C10      1.0000 0.04450  0.83400  0.59450  Biso   1.000  C
  C11      1.0000 0.54450  0.66600  0.09450  Biso   1.000  C
  C12      1.0000 0.95550  0.16600  0.40550  Biso   1.000  C
  C13      1.0000 0.40090  0.18830  0.03040  Biso   1.000  C
  C14      1.0000 0.09910  0.68830  0.46960  Biso   1.000  C
  C15      1.0000 0.59910  0.81170  0.96960  Biso   1.000  C
  C16      1.0000 0.90090  0.31170  0.53040  Biso   1.000  C
  C17      1.0000 0.36790  0.67450  0.55060  Biso   1.000  C
  C18      1.0000 0.13210  0.17450  0.94940  Biso   1.000  C
  C19      1.0000 0.63210  0.32550  0.44940  Biso   1.000  C
  C20      1.0000 0.86790  0.82550  0.05060  Biso   1.000  C
  C21      1.0000 0.40900  0.73020  0.48910  Biso   1.000  C
  C22      1.0000 0.09100  0.23020  0.01090  Biso   1.000  C
  C23      1.0000 0.59100  0.26980  0.51090  Biso   1.000  C
  C24      1.0000 0.90900  0.76980  0.98910  Biso   1.000  C
  C25      1.0000 0.49400  0.72890  0.52490  Biso   1.000  C
  C26      1.0000 0.00600  0.22890  0.97510  Biso   1.000  C
  C27      1.0000 0.50600  0.27110  0.47510  Biso   1.000  C
  C28      1.0000 0.99400  0.77110  0.02490  Biso   1.000  C
  C29      1.0000 0.53310  0.66870  0.62280  Biso   1.000  C
  C30      1.0000 0.96690  0.16870  0.87720  Biso   1.000  C
  C31      1.0000 0.46690  0.33130  0.37720  Biso   1.000  C
  C32      1.0000 0.03310  0.83130  0.12280  Biso   1.000  C
  C33      1.0000 0.48840  0.61770  0.67930  Biso   1.000  C
  C34      1.0000 0.01160  0.11770  0.82070  Biso   1.000  C
  C35      1.0000 0.51160  0.38230  0.32070  Biso   1.000  C
  C36      1.0000 0.98840  0.88230  0.17930  Biso   1.000  C
  C37      1.0000 0.54070  0.79020  0.46130  Biso   1.000  C
  C38      1.0000 0.95930  0.29020  0.03870  Biso   1.000  C
  C39      1.0000 0.45930  0.20980  0.53870  Biso   1.000  C
  C40      1.0000 0.04070  0.70980  0.96130  Biso   1.000  C
  C41      1.0000 0.62650  0.78010  0.49620  Biso   1.000  C
  C42      1.0000 0.87350  0.28010  0.00380  Biso   1.000  C
  C43      1.0000 0.37350  0.21990  0.50380  Biso   1.000  C
  C44      1.0000 0.12650  0.71990  0.99620  Biso   1.000  C
  C45      1.0000 0.66670  0.84080  0.43410  Biso   1.000  C
  C46      1.0000 0.83330  0.34080  0.06590  Biso   1.000  C
  C47      1.0000 0.33330  0.15920  0.56590  Biso   1.000  C
  C48      1.0000 0.16670  0.65920  0.93410  Biso   1.000  C
  C49      1.0000 0.62230  0.90630  0.34140  Biso   1.000  C
  C50      1.0000 0.87770  0.40630  0.15860  Biso   1.000  C
  C51      1.0000 0.37770  0.09370  0.65860  Biso   1.000  C
  C52      1.0000 0.12230  0.59370  0.84140  Biso   1.000  C
  C53      1.0000 0.53810  0.91170  0.31290  Biso   1.000  C
  C54      1.0000 0.96190  0.41170  0.18710  Biso   1.000  C
  C55      1.0000 0.46190  0.08830  0.68710  Biso   1.000  C
  C56      1.0000 0.03810  0.58830  0.81290  Biso   1.000  C
  N1       1.0000 0.40550  0.61940  0.64490  Biso   1.000  N
  N2       1.0000 0.09450  0.11940  0.85510  Biso   1.000  N
  N3       1.0000 0.59450  0.38060  0.35510  Biso   1.000  N
  N4       1.0000 0.90550  0.88060  0.14490  Biso   1.000  N
  N5       1.0000 0.49700  0.85660  0.36930  Biso   1.000  N
  N6       1.0000 0.00300  0.35660  0.13070  Biso   1.000  N
  N7       1.0000 0.50300  0.14340  0.63070  Biso   1.000  N
  N8       1.0000 0.99700  0.64340  0.86930  Biso   1.000  N
  O1       1.0000 0.26103  0.13060  0.86140  Biso   1.000  O
  O2       1.0000 0.23897  0.63060  0.63860  Biso   1.000  O
  O3       1.0000 0.73897  0.86940  0.13860  Biso   1.000  O
  O4       1.0000 0.76103  0.36940  0.36140  Biso   1.000  O
  O5       1.0000 0.27823  0.37430  0.78050  Biso   1.000  O
  O6       1.0000 0.22177  0.87430  0.71950  Biso   1.000  O
  O7       1.0000 0.72177  0.62570  0.21950  Biso   1.000  O
  O8       1.0000 0.77823  0.12570  0.28050  Biso   1.000  O
  O9       1.0000 0.37710  0.77720  0.84450  Biso   1.000  O
  O10      1.0000 0.12290  0.27720  0.65550  Biso   1.000  O
  O11      1.0000 0.62290  0.22280  0.15550  Biso   1.000  O
  O12      1.0000 0.87710  0.72280  0.34450  Biso   1.000  O
  O13      1.0000 0.52370  0.27300  0.95690  Biso   1.000  O
  O14      1.0000 0.97630  0.77300  0.54310  Biso   1.000  O
  O15      1.0000 0.47630  0.72700  0.04310  Biso   1.000  O
  O16      1.0000 0.02370  0.22700  0.45690  Biso   1.000  O
  O17      1.0000 0.83110  0.54190  0.74090  Biso   1.000  O
  O18      1.0000 0.66890  0.04190  0.75910  Biso   1.000  O
  O19      1.0000 0.16890  0.45810  0.25910  Biso   1.000  O
  O20      1.0000 0.33110  0.95810  0.24090  Biso   1.000  O
  O21      1.0000 0.44355  0.42280  0.82540  Biso   1.000  O
  O22      1.0000 0.05645  0.92280  0.67460  Biso   1.000  O
  O23      1.0000 0.55645  0.57720  0.17460  Biso   1.000  O
  O24      1.0000 0.94355  0.07720  0.32540  Biso   1.000  O
  O25      1.0000 0.85290  0.85370  0.62520  Biso   1.000  O
  O26      1.0000 0.64710  0.35370  0.87480  Biso   1.000  O
  O27      1.0000 0.14710  0.14630  0.37480  Biso   1.000  O
  O28      1.0000 0.35290  0.64630  0.12520  Biso   1.000  O
  O29      1.0000 0.78850  0.17240  0.68270  Biso   1.000  O
  O30      1.0000 0.71150  0.67240  0.81730  Biso   1.000  O
  O31      1.0000 0.21150  0.82760  0.31730  Biso   1.000  O
  O32      1.0000 0.28850  0.32760  0.18270  Biso   1.000  O
  Cu1      1.0000 0.34524  0.54300  0.73684  Biso   1.000  Cu
  Cu2      1.0000 0.15476  0.04300  0.76316  Biso   1.000  Cu
  Cu3      1.0000 0.65476  0.45700  0.26316  Biso   1.000  Cu
  Cu4      1.0000 0.84524  0.95700  0.23684  Biso   1.000  Cu
  H1       1.0000 0.37900  0.42400  0.97900  Biso   1.000  H
  H2       1.0000 0.12100  0.92400  0.52100  Biso   1.000  H
  H3       1.0000 0.62100  0.57600  0.02100  Biso   1.000  H
  H4       1.0000 0.87900  0.07600  0.47900  Biso   1.000  H
  H5       1.0000 0.39600  0.74200  0.90000  Biso   1.000  H
  H6       1.0000 0.10400  0.24200  0.60000  Biso   1.000  H
  H7       1.0000 0.60400  0.25800  0.10000  Biso   1.000  H
  H8       1.0000 0.89600  0.75800  0.40000  Biso   1.000  H
  H9       1.0000 0.33900  0.81100  0.84100  Biso   1.000  H
  H10      1.0000 0.16100  0.31100  0.65900  Biso   1.000  H
  H11      1.0000 0.66100  0.18900  0.15900  Biso   1.000  H
  H12      1.0000 0.83900  0.68900  0.34100  Biso   1.000  H
  H13      1.0000 0.81300  0.42600  0.70200  Biso   1.000  H
  H14      1.0000 0.68700  0.92600  0.79800  Biso   1.000  H
  H15      1.0000 0.18700  0.57400  0.29800  Biso   1.000  H
  H16      1.0000 0.31300  0.07400  0.20200  Biso   1.000  H
  H17      1.0000 0.76900  0.54800  0.67400  Biso   1.000  H
  H18      1.0000 0.73100  0.04800  0.82600  Biso   1.000  H
  H19      1.0000 0.23100  0.45200  0.32600  Biso   1.000  H
  H20      1.0000 0.26900  0.95200  0.17400  Biso   1.000  H
  H21      1.0000 0.42000  0.05800  0.01000  Biso   1.000  H
  H22      1.0000 0.08000  0.55800  0.49000  Biso   1.000  H
  H23      1.0000 0.58000  0.94200  0.99000  Biso   1.000  H
  H24      1.0000 0.92000  0.44200  0.51000  Biso   1.000  H
  H25      1.0000 0.44100  0.24400  0.07800  Biso   1.000  H
  H26      1.0000 0.05900  0.74400  0.42200  Biso   1.000  H
  H27      1.0000 0.55900  0.75600  0.92200  Biso   1.000  H
  H28      1.0000 0.94100  0.25600  0.57800  Biso   1.000  H
  H29      1.0000 0.88800  0.81900  0.60300  Biso   1.000  H
  H30      1.0000 0.61200  0.31900  0.89700  Biso   1.000  H
  H31      1.0000 0.11200  0.18100  0.39700  Biso   1.000  H
  H32      1.0000 0.38800  0.68100  0.10300  Biso   1.000  H
  H33      1.0000 0.85500  0.76600  0.66500  Biso   1.000  H
  H34      1.0000 0.64500  0.26600  0.83500  Biso   1.000  H
  H35      1.0000 0.14500  0.23400  0.33500  Biso   1.000  H
  H36      1.0000 0.35500  0.73400  0.16500  Biso   1.000  H
  H37      1.0000 0.35200  0.18200  0.05300  Biso   1.000  H
  H38      1.0000 0.14800  0.68200  0.44700  Biso   1.000  H
  H39      1.0000 0.64800  0.81800  0.94700  Biso   1.000  H
  H40      1.0000 0.85200  0.31800  0.55300  Biso   1.000  H
  H41      1.0000 0.31700  0.68400  0.53600  Biso   1.000  H
  H42      1.0000 0.18300  0.18400  0.96400  Biso   1.000  H
  H43      1.0000 0.68300  0.31600  0.46400  Biso   1.000  H
  H44      1.0000 0.81700  0.81600  0.03600  Biso   1.000  H
  H45      1.0000 0.81000  0.06200  0.66600  Biso   1.000  H
  H46      1.0000 0.69000  0.56200  0.83400  Biso   1.000  H
  H47      1.0000 0.19000  0.93800  0.33400  Biso   1.000  H
  H48      1.0000 0.31000  0.43800  0.16600  Biso   1.000  H
  H49      1.0000 0.76800  0.12500  0.70800  Biso   1.000  H
  H50      1.0000 0.73200  0.62500  0.79200  Biso   1.000  H
  H51      1.0000 0.23200  0.87500  0.29200  Biso   1.000  H
  H52      1.0000 0.26800  0.37500  0.20800  Biso   1.000  H
  H53      1.0000 0.37700  0.75800  0.42200  Biso   1.000  H
  H54      1.0000 0.12300  0.25800  0.07800  Biso   1.000  H
  H55      1.0000 0.62300  0.24200  0.57800  Biso   1.000  H
  H56      1.0000 0.87700  0.74200  0.92200  Biso   1.000  H
  H57      1.0000 0.58600  0.67200  0.64500  Biso   1.000  H
  H58      1.0000 0.91400  0.17200  0.85500  Biso   1.000  H
  H59      1.0000 0.41400  0.32800  0.35500  Biso   1.000  H
  H60      1.0000 0.08600  0.82800  0.14500  Biso   1.000  H
  H61      1.0000 0.51600  0.57800  0.74300  Biso   1.000  H
  H62      1.0000 0.98400  0.07800  0.75700  Biso   1.000  H
  H63      1.0000 0.48400  0.42200  0.25700  Biso   1.000  H
  H64      1.0000 0.01600  0.92200  0.24300  Biso   1.000  H
  H65      1.0000 0.64700  0.73300  0.55700  Biso   1.000  H
  H66      1.0000 0.85300  0.23300  0.94300  Biso   1.000  H
  H67      1.0000 0.35300  0.26700  0.44300  Biso   1.000  H
  H68      1.0000 0.14700  0.76700  0.05700  Biso   1.000  H
  H69      1.0000 0.72600  0.82100  0.46300  Biso   1.000  H
  H70      1.0000 0.77400  0.32100  0.03700  Biso   1.000  H
  H71      1.0000 0.27400  0.17900  0.53700  Biso   1.000  H
  H72      1.0000 0.22600  0.67900  0.96300  Biso   1.000  H
  H73      1.0000 0.65000  0.95800  0.29700  Biso   1.000  H
  H74      1.0000 0.85000  0.45800  0.20300  Biso   1.000  H
  H75      1.0000 0.35000  0.04200  0.70300  Biso   1.000  H
  H76      1.0000 0.15000  0.54200  0.79700  Biso   1.000  H
  H77      1.0000 0.50800  0.95900  0.25100  Biso   1.000  H
  H78      1.0000 0.99200  0.45900  0.24900  Biso   1.000  H
  H79      1.0000 0.49200  0.04100  0.74900  Biso   1.000  H
  H80      1.0000 0.00800  0.54100  0.75100  Biso   1.000  H
