data_image0
_cell_length_a       8.5874
_cell_length_b       7.1738
_cell_length_c       19.093
_cell_angle_alpha    90
_cell_angle_beta     99.509
_cell_angle_gamma    90

_symmetry_space_group_name_H-M    "P 1"
_symmetry_int_tables_number       1

loop_
  _symmetry_equiv_pos_as_xyz
  'x, y, z'

loop_
  _atom_site_label
  _atom_site_occupancy
  _atom_site_fract_x
  _atom_site_fract_y
  _atom_site_fract_z
  _atom_site_thermal_displace_type
  _atom_site_B_iso_or_equiv
  _atom_site_type_symbol
  C1       1.0000 0.64180  0.90510  0.28720  Biso   1.000  C
  C2       1.0000 0.85820  0.40510  0.21280  Biso   1.000  C
  C3       1.0000 0.35820  0.09490  0.71280  Biso   1.000  C
  C4       1.0000 0.14180  0.59490  0.78720  Biso   1.000  C
  C5       1.0000 0.54680  0.91910  0.21290  Biso   1.000  C
  C6       1.0000 0.95320  0.41910  0.28710  Biso   1.000  C
  C7       1.0000 0.45320  0.08090  0.78710  Biso   1.000  C
  C8       1.0000 0.04680  0.58090  0.71290  Biso   1.000  C
  H1       1.0000 0.55030  0.05120  0.20020  Biso   1.000  H
  H2       1.0000 0.94970  0.55120  0.29980  Biso   1.000  H
  H3       1.0000 0.44970  0.94880  0.79980  Biso   1.000  H
  H4       1.0000 0.05030  0.44880  0.70020  Biso   1.000  H
  C9       1.0000 0.37230  0.87740  0.21410  Biso   1.000  C
  C10      1.0000 0.12770  0.37740  0.28590  Biso   1.000  C
  C11      1.0000 0.62770  0.12260  0.78590  Biso   1.000  C
  C12      1.0000 0.87230  0.62260  0.71410  Biso   1.000  C
  C13      1.0000 0.61140  0.81750  0.15630  Biso   1.000  C
  C14      1.0000 0.88860  0.31750  0.34370  Biso   1.000  C
  C15      1.0000 0.38860  0.18250  0.84370  Biso   1.000  C
  C16      1.0000 0.11140  0.68250  0.65630  Biso   1.000  C
  H5       1.0000 0.54370  0.83670  0.11160  Biso   1.000  H
  H6       1.0000 0.95630  0.33670  0.38840  Biso   1.000  H
  H7       1.0000 0.45630  0.16330  0.88840  Biso   1.000  H
  H8       1.0000 0.04370  0.66330  0.61160  Biso   1.000  H
  H9       1.0000 0.61690  0.68670  0.16710  Biso   1.000  H
  H10      1.0000 0.88310  0.18670  0.33290  Biso   1.000  H
  H11      1.0000 0.38310  0.31330  0.83290  Biso   1.000  H
  H12      1.0000 0.11690  0.81330  0.66710  Biso   1.000  H
  H13      1.0000 0.71520  0.86330  0.15350  Biso   1.000  H
  H14      1.0000 0.78480  0.36330  0.34650  Biso   1.000  H
  H15      1.0000 0.28480  0.13670  0.84650  Biso   1.000  H
  H16      1.0000 0.21520  0.63670  0.65350  Biso   1.000  H
  C17      1.0000 0.61620  0.18770  0.46700  Biso   1.000  C
  C18      1.0000 0.88380  0.68770  0.03300  Biso   1.000  C
  C19      1.0000 0.38380  0.81230  0.53300  Biso   1.000  C
  C20      1.0000 0.11620  0.31230  0.96700  Biso   1.000  C
  H17      1.0000 0.68950  0.14240  0.44050  Biso   1.000  H
  H18      1.0000 0.81050  0.64240  0.05950  Biso   1.000  H
  H19      1.0000 0.31050  0.85760  0.55950  Biso   1.000  H
  H20      1.0000 0.18950  0.35760  0.94050  Biso   1.000  H
  C21      1.0000 0.66590  0.23520  0.53690  Biso   1.000  C
  C22      1.0000 0.83410  0.73520  0.96310  Biso   1.000  C
  C23      1.0000 0.33410  0.76480  0.46310  Biso   1.000  C
  C24      1.0000 0.16590  0.26480  0.03690  Biso   1.000  C
  C25      1.0000 0.55900  0.30620  0.57740  Biso   1.000  C
  C26      1.0000 0.94100  0.80620  0.92260  Biso   1.000  C
  C27      1.0000 0.44100  0.69380  0.42260  Biso   1.000  C
  C28      1.0000 0.05900  0.19380  0.07740  Biso   1.000  C
  H21      1.0000 0.59170  0.34200  0.62430  Biso   1.000  H
  H22      1.0000 0.90830  0.84200  0.87570  Biso   1.000  H
  H23      1.0000 0.40830  0.65800  0.37570  Biso   1.000  H
  H24      1.0000 0.09170  0.15800  0.12430  Biso   1.000  H
  C29      1.0000 0.40470  0.32180  0.54630  Biso   1.000  C
  C30      1.0000 0.09530  0.82180  0.95370  Biso   1.000  C
  C31      1.0000 0.59530  0.67820  0.45370  Biso   1.000  C
  C32      1.0000 0.90470  0.17820  0.04630  Biso   1.000  C
  H25      1.0000 0.32980  0.36660  0.57210  Biso   1.000  H
  H26      1.0000 0.17020  0.86660  0.92790  Biso   1.000  H
  H27      1.0000 0.67020  0.63340  0.42790  Biso   1.000  H
  H28      1.0000 0.82980  0.13340  0.07210  Biso   1.000  H
  C33      1.0000 0.36070  0.27020  0.47600  Biso   1.000  C
  C34      1.0000 0.13930  0.77020  0.02400  Biso   1.000  C
  C35      1.0000 0.63930  0.72980  0.52400  Biso   1.000  C
  C36      1.0000 0.86070  0.22980  0.97600  Biso   1.000  C
  H29      1.0000 0.25510  0.28110  0.45540  Biso   1.000  H
  H30      1.0000 0.24490  0.78110  0.04460  Biso   1.000  H
  H31      1.0000 0.74490  0.71890  0.54460  Biso   1.000  H
  H32      1.0000 0.75510  0.21890  0.95540  Biso   1.000  H
  Cu1      1.0000 0.40219  0.13561  0.33135  Biso   1.000  Cu
  Cu2      1.0000 0.09781  0.63561  0.16865  Biso   1.000  Cu
  Cu3      1.0000 0.59781  0.86439  0.66865  Biso   1.000  Cu
  Cu4      1.0000 0.90219  0.36439  0.83135  Biso   1.000  Cu
  O1       1.0000 0.77080  0.82330  0.29670  Biso   1.000  O
  O2       1.0000 0.72920  0.32330  0.20330  Biso   1.000  O
  O3       1.0000 0.22920  0.17670  0.70330  Biso   1.000  O
  O4       1.0000 0.27080  0.67670  0.79670  Biso   1.000  O
  O5       1.0000 0.59180  0.98750  0.33780  Biso   1.000  O
  O6       1.0000 0.90820  0.48750  0.16220  Biso   1.000  O
  O7       1.0000 0.40820  0.01250  0.66220  Biso   1.000  O
  O8       1.0000 0.09180  0.51250  0.83780  Biso   1.000  O
  O9       1.0000 0.50330  0.38170  0.28610  Biso   1.000  O
  O10      1.0000 0.99670  0.88170  0.21390  Biso   1.000  O
  O11      1.0000 0.49670  0.61830  0.71390  Biso   1.000  O
  O12      1.0000 0.00330  0.11830  0.78610  Biso   1.000  O
  O13      1.0000 0.30580  0.75350  0.17260  Biso   1.000  O
  O14      1.0000 0.19420  0.25350  0.32740  Biso   1.000  O
  O15      1.0000 0.69420  0.24650  0.82740  Biso   1.000  O
  O16      1.0000 0.80580  0.74650  0.67260  Biso   1.000  O
  O17      1.0000 0.30010  0.97560  0.25400  Biso   1.000  O
  O18      1.0000 0.19990  0.47560  0.24600  Biso   1.000  O
  O19      1.0000 0.69990  0.02440  0.74600  Biso   1.000  O
  O20      1.0000 0.80010  0.52440  0.75400  Biso   1.000  O
  I1       1.0000 0.90408  0.19583  0.58070  Biso   1.000  I
  I2       1.0000 0.59592  0.69583  0.91930  Biso   1.000  I
  I3       1.0000 0.09592  0.80417  0.41930  Biso   1.000  I
  I4       1.0000 0.40408  0.30417  0.08070  Biso   1.000  I
  N1       1.0000 0.46410  0.20490  0.43590  Biso   1.000  N
  N2       1.0000 0.03590  0.70490  0.06410  Biso   1.000  N
  N3       1.0000 0.53590  0.79510  0.56410  Biso   1.000  N
  N4       1.0000 0.96410  0.29510  0.93590  Biso   1.000  N
