data_image0
_cell_length_a       12.01
_cell_length_b       14.233
_cell_length_c       11.483
_cell_angle_alpha    90
_cell_angle_beta     90
_cell_angle_gamma    90

_symmetry_space_group_name_H-M    "P 1"
_symmetry_int_tables_number       1

loop_
  _symmetry_equiv_pos_as_xyz
  'x, y, z'

loop_
  _atom_site_label
  _atom_site_occupancy
  _atom_site_fract_x
  _atom_site_fract_y
  _atom_site_fract_z
  _atom_site_thermal_displace_type
  _atom_site_B_iso_or_equiv
  _atom_site_type_symbol
  Cu1      1.0000 0.19181  0.23299  0.85888  Biso   1.000  Cu
  Cu2      1.0000 0.69181  0.26701  0.14112  Biso   1.000  Cu
  Cu3      1.0000 0.30819  0.73299  0.14112  Biso   1.000  Cu
  Cu4      1.0000 0.80819  0.76701  0.85888  Biso   1.000  Cu
  N1       1.0000 0.28830  0.30320  0.73970  Biso   1.000  N
  N2       1.0000 0.78830  0.19680  0.26030  Biso   1.000  N
  N3       1.0000 0.21170  0.80320  0.26030  Biso   1.000  N
  N4       1.0000 0.71170  0.69680  0.73970  Biso   1.000  N
  N5       1.0000 0.25130  0.11810  0.78210  Biso   1.000  N
  N6       1.0000 0.75130  0.38190  0.21790  Biso   1.000  N
  N7       1.0000 0.24870  0.61810  0.21790  Biso   1.000  N
  N8       1.0000 0.74870  0.88190  0.78210  Biso   1.000  N
  O1       1.0000 0.13760  0.35020  0.93020  Biso   1.000  O
  O2       1.0000 0.63760  0.14980  0.06980  Biso   1.000  O
  O3       1.0000 0.36240  0.85020  0.06980  Biso   1.000  O
  O4       1.0000 0.86240  0.64980  0.93020  Biso   1.000  O
  O5       1.0000 0.16460  0.46840  0.05240  Biso   1.000  O
  O6       1.0000 0.66460  0.03160  0.94760  Biso   1.000  O
  O7       1.0000 0.33540  0.96840  0.94760  Biso   1.000  O
  O8       1.0000 0.83540  0.53160  0.05240  Biso   1.000  O
  O9       1.0000 0.30240  0.25120  0.01290  Biso   1.000  O
  O10      1.0000 0.80240  0.24880  0.98710  Biso   1.000  O
  O11      1.0000 0.19760  0.75120  0.98710  Biso   1.000  O
  O12      1.0000 0.69760  0.74880  0.01290  Biso   1.000  O
  O13      1.0000 0.07240  0.15820  0.93940  Biso   1.000  O
  O14      1.0000 0.57240  0.34180  0.06060  Biso   1.000  O
  O15      1.0000 0.42760  0.65820  0.06060  Biso   1.000  O
  O16      1.0000 0.92760  0.84180  0.93940  Biso   1.000  O
  O17      1.0000 0.98250  0.19260  0.77710  Biso   1.000  O
  O18      1.0000 0.48250  0.30740  0.22290  Biso   1.000  O
  O19      1.0000 0.51750  0.69260  0.22290  Biso   1.000  O
  O20      1.0000 0.01750  0.80740  0.77710  Biso   1.000  O
  O21      1.0000 0.89090  0.81670  0.38260  Biso   1.000  O
  O22      1.0000 0.39090  0.68330  0.61740  Biso   1.000  O
  O23      1.0000 0.60910  0.31670  0.61740  Biso   1.000  O
  O24      1.0000 0.10910  0.18330  0.38260  Biso   1.000  O
  O25      1.0000 0.09060  0.60240  0.89340  Biso   1.000  O
  O26      1.0000 0.59060  0.89760  0.10660  Biso   1.000  O
  O27      1.0000 0.40940  0.10240  0.10660  Biso   1.000  O
  O28      1.0000 0.90940  0.39760  0.89340  Biso   1.000  O
  O29      1.0000 0.06140  0.08400  0.59270  Biso   1.000  O
  O30      1.0000 0.56140  0.41600  0.40730  Biso   1.000  O
  O31      1.0000 0.43860  0.58400  0.40730  Biso   1.000  O
  O32      1.0000 0.93860  0.91600  0.59270  Biso   1.000  O
  O33      1.0000 0.02690  0.09850  0.17600  Biso   1.000  O
  O34      1.0000 0.52690  0.40150  0.82400  Biso   1.000  O
  O35      1.0000 0.47310  0.59850  0.82400  Biso   1.000  O
  O36      1.0000 0.97310  0.90150  0.17600  Biso   1.000  O
  O37      1.0000 0.83500  0.32600  0.67080  Biso   1.000  O
  O38      1.0000 0.33500  0.17400  0.32920  Biso   1.000  O
  O39      1.0000 0.66500  0.82600  0.32920  Biso   1.000  O
  O40      1.0000 0.16500  0.67400  0.67080  Biso   1.000  O
  C1       1.0000 0.32350  0.23360  0.64930  Biso   1.000  C
  C2       1.0000 0.82350  0.26640  0.35070  Biso   1.000  C
  C3       1.0000 0.17650  0.73360  0.35070  Biso   1.000  C
  C4       1.0000 0.67650  0.76640  0.64930  Biso   1.000  C
  C5       1.0000 0.34980  0.14080  0.70960  Biso   1.000  C
  C6       1.0000 0.84980  0.35920  0.29040  Biso   1.000  C
  C7       1.0000 0.15020  0.64080  0.29040  Biso   1.000  C
  C8       1.0000 0.65020  0.85920  0.70960  Biso   1.000  C
  C9       1.0000 0.36710  0.06530  0.61450  Biso   1.000  C
  C10      1.0000 0.86710  0.43470  0.38550  Biso   1.000  C
  C11      1.0000 0.13290  0.56530  0.38550  Biso   1.000  C
  C12      1.0000 0.63290  0.93470  0.61450  Biso   1.000  C
  C13      1.0000 0.45270  0.14650  0.78650  Biso   1.000  C
  C14      1.0000 0.95270  0.35350  0.21350  Biso   1.000  C
  C15      1.0000 0.04730  0.64650  0.21350  Biso   1.000  C
  C16      1.0000 0.54730  0.85350  0.78650  Biso   1.000  C
  C17      1.0000 0.24160  0.39350  0.69010  Biso   1.000  C
  C18      1.0000 0.74160  0.10650  0.30990  Biso   1.000  C
  C19      1.0000 0.25840  0.89350  0.30990  Biso   1.000  C
  C20      1.0000 0.75840  0.60650  0.69010  Biso   1.000  C
  C21      1.0000 0.32140  0.44010  0.60750  Biso   1.000  C
  C22      1.0000 0.82140  0.05990  0.39250  Biso   1.000  C
  C23      1.0000 0.17860  0.94010  0.39250  Biso   1.000  C
  C24      1.0000 0.67860  0.55990  0.60750  Biso   1.000  C
  C25      1.0000 0.12960  0.37910  0.63770  Biso   1.000  C
  C26      1.0000 0.62960  0.12090  0.36230  Biso   1.000  C
  C27      1.0000 0.37040  0.87910  0.36230  Biso   1.000  C
  C28      1.0000 0.87040  0.62090  0.63770  Biso   1.000  C
  C29      1.0000 0.18700  0.38840  0.01580  Biso   1.000  C
  C30      1.0000 0.68700  0.11160  0.98420  Biso   1.000  C
  C31      1.0000 0.31300  0.88840  0.98420  Biso   1.000  C
  C32      1.0000 0.81300  0.61160  0.01580  Biso   1.000  C
  C33      1.0000 0.28210  0.33510  0.07620  Biso   1.000  C
  C34      1.0000 0.78210  0.16490  0.92380  Biso   1.000  C
  C35      1.0000 0.21790  0.83510  0.92380  Biso   1.000  C
  C36      1.0000 0.71790  0.66490  0.07620  Biso   1.000  C
  C37      1.0000 0.38540  0.39730  0.07860  Biso   1.000  C
  C38      1.0000 0.88540  0.10270  0.92140  Biso   1.000  C
  C39      1.0000 0.11460  0.89730  0.92140  Biso   1.000  C
  C40      1.0000 0.61460  0.60270  0.07860  Biso   1.000  C
  C41      1.0000 0.98720  0.15520  0.87610  Biso   1.000  C
  C42      1.0000 0.48720  0.34480  0.12390  Biso   1.000  C
  C43      1.0000 0.51280  0.65520  0.12390  Biso   1.000  C
  C44      1.0000 0.01280  0.84480  0.87610  Biso   1.000  C
  H1       1.0000 0.34400  0.32000  0.75400  Biso   1.000  H
  H2       1.0000 0.84400  0.18000  0.24600  Biso   1.000  H
  H3       1.0000 0.15600  0.82000  0.24600  Biso   1.000  H
  H4       1.0000 0.65600  0.68000  0.75400  Biso   1.000  H
  H5       1.0000 0.19400  0.09700  0.73700  Biso   1.000  H
  H6       1.0000 0.69400  0.40300  0.26300  Biso   1.000  H
  H7       1.0000 0.30600  0.59700  0.26300  Biso   1.000  H
  H8       1.0000 0.80600  0.90300  0.73700  Biso   1.000  H
  H9       1.0000 0.27300  0.07100  0.82900  Biso   1.000  H
  H10      1.0000 0.77300  0.42900  0.17100  Biso   1.000  H
  H11      1.0000 0.22700  0.57100  0.17100  Biso   1.000  H
  H12      1.0000 0.72700  0.92900  0.82900  Biso   1.000  H
  H13      1.0000 0.39800  0.26700  0.59400  Biso   1.000  H
  H14      1.0000 0.89800  0.23300  0.40600  Biso   1.000  H
  H15      1.0000 0.10200  0.76700  0.40600  Biso   1.000  H
  H16      1.0000 0.60200  0.73300  0.59400  Biso   1.000  H
  H17      1.0000 0.26500  0.23700  0.60600  Biso   1.000  H
  H18      1.0000 0.76500  0.26300  0.39400  Biso   1.000  H
  H19      1.0000 0.23500  0.73700  0.39400  Biso   1.000  H
  H20      1.0000 0.73500  0.76300  0.60600  Biso   1.000  H
  H21      1.0000 0.32300  0.06200  0.59200  Biso   1.000  H
  H22      1.0000 0.82300  0.43800  0.40800  Biso   1.000  H
  H23      1.0000 0.17700  0.56200  0.40800  Biso   1.000  H
  H24      1.0000 0.67700  0.93800  0.59200  Biso   1.000  H
  H25      1.0000 0.38200  0.00100  0.65300  Biso   1.000  H
  H26      1.0000 0.88200  0.49900  0.34700  Biso   1.000  H
  H27      1.0000 0.11800  0.50100  0.34700  Biso   1.000  H
  H28      1.0000 0.61800  0.99900  0.65300  Biso   1.000  H
  H29      1.0000 0.43700  0.07400  0.56500  Biso   1.000  H
  H30      1.0000 0.93700  0.42600  0.43500  Biso   1.000  H
  H31      1.0000 0.06300  0.57400  0.43500  Biso   1.000  H
  H32      1.0000 0.56300  0.92600  0.56500  Biso   1.000  H
  H33      1.0000 0.44700  0.17800  0.82100  Biso   1.000  H
  H34      1.0000 0.94700  0.32200  0.17900  Biso   1.000  H
  H35      1.0000 0.05300  0.67800  0.17900  Biso   1.000  H
  H36      1.0000 0.55300  0.82200  0.82100  Biso   1.000  H
  H37      1.0000 0.51700  0.15200  0.73100  Biso   1.000  H
  H38      1.0000 0.01700  0.34800  0.26900  Biso   1.000  H
  H39      1.0000 0.98300  0.65200  0.26900  Biso   1.000  H
  H40      1.0000 0.48300  0.84800  0.73100  Biso   1.000  H
  H41      1.0000 0.47300  0.08800  0.81300  Biso   1.000  H
  H42      1.0000 0.97300  0.41200  0.18700  Biso   1.000  H
  H43      1.0000 0.02700  0.58800  0.18700  Biso   1.000  H
  H44      1.0000 0.52700  0.91200  0.81300  Biso   1.000  H
  H45      1.0000 0.22800  0.44000  0.76100  Biso   1.000  H
  H46      1.0000 0.72800  0.06000  0.23900  Biso   1.000  H
  H47      1.0000 0.27200  0.94000  0.23900  Biso   1.000  H
  H48      1.0000 0.77200  0.56000  0.76100  Biso   1.000  H
  H49      1.0000 0.37400  0.43500  0.62000  Biso   1.000  H
  H50      1.0000 0.87400  0.06500  0.38000  Biso   1.000  H
  H51      1.0000 0.12600  0.93500  0.38000  Biso   1.000  H
  H52      1.0000 0.62600  0.56500  0.62000  Biso   1.000  H
  H53      1.0000 0.32500  0.40300  0.53600  Biso   1.000  H
  H54      1.0000 0.82500  0.09700  0.46400  Biso   1.000  H
  H55      1.0000 0.17500  0.90300  0.46400  Biso   1.000  H
  H56      1.0000 0.67500  0.59700  0.53600  Biso   1.000  H
  H57      1.0000 0.29100  0.51600  0.58800  Biso   1.000  H
  H58      1.0000 0.79100  0.98400  0.41200  Biso   1.000  H
  H59      1.0000 0.20900  0.01600  0.41200  Biso   1.000  H
  H60      1.0000 0.70900  0.48400  0.58800  Biso   1.000  H
  H61      1.0000 0.08500  0.33600  0.67300  Biso   1.000  H
  H62      1.0000 0.58500  0.16400  0.32700  Biso   1.000  H
  H63      1.0000 0.41500  0.83600  0.32700  Biso   1.000  H
  H64      1.0000 0.91500  0.66400  0.67300  Biso   1.000  H
  H65      1.0000 0.11800  0.35100  0.55700  Biso   1.000  H
  H66      1.0000 0.61800  0.14900  0.44300  Biso   1.000  H
  H67      1.0000 0.38200  0.85100  0.44300  Biso   1.000  H
  H68      1.0000 0.88200  0.64900  0.55700  Biso   1.000  H
  H69      1.0000 0.11300  0.43900  0.59900  Biso   1.000  H
  H70      1.0000 0.61300  0.06100  0.40100  Biso   1.000  H
  H71      1.0000 0.38700  0.93900  0.40100  Biso   1.000  H
  H72      1.0000 0.88700  0.56100  0.59900  Biso   1.000  H
  H73      1.0000 0.25600  0.32300  0.16300  Biso   1.000  H
  H74      1.0000 0.75600  0.17700  0.83700  Biso   1.000  H
  H75      1.0000 0.24400  0.82300  0.83700  Biso   1.000  H
  H76      1.0000 0.74400  0.67700  0.16300  Biso   1.000  H
  H77      1.0000 0.41800  0.40100  0.01200  Biso   1.000  H
  H78      1.0000 0.91800  0.09900  0.98800  Biso   1.000  H
  H79      1.0000 0.08200  0.90100  0.98800  Biso   1.000  H
  H80      1.0000 0.58200  0.59900  0.01200  Biso   1.000  H
  H81      1.0000 0.38100  0.45700  0.07400  Biso   1.000  H
  H82      1.0000 0.88100  0.04300  0.92600  Biso   1.000  H
  H83      1.0000 0.11900  0.95700  0.92600  Biso   1.000  H
  H84      1.0000 0.61900  0.54300  0.07400  Biso   1.000  H
  H85      1.0000 0.34700  0.20500  0.04700  Biso   1.000  H
  H86      1.0000 0.84700  0.29500  0.95300  Biso   1.000  H
  H87      1.0000 0.15300  0.70500  0.95300  Biso   1.000  H
  H88      1.0000 0.65300  0.79500  0.04700  Biso   1.000  H
  H89      1.0000 0.82600  0.82700  0.37100  Biso   1.000  H
  H90      1.0000 0.32600  0.67300  0.62900  Biso   1.000  H
  H91      1.0000 0.67400  0.32700  0.62900  Biso   1.000  H
  H92      1.0000 0.17400  0.17300  0.37100  Biso   1.000  H
  H93      1.0000 0.95100  0.83600  0.44100  Biso   1.000  H
  H94      1.0000 0.45100  0.66400  0.55900  Biso   1.000  H
  H95      1.0000 0.54900  0.33600  0.55900  Biso   1.000  H
  H96      1.0000 0.04900  0.16400  0.44100  Biso   1.000  H
  H97      1.0000 0.09700  0.57800  0.93300  Biso   1.000  H
  H98      1.0000 0.59700  0.92200  0.06700  Biso   1.000  H
  H99      1.0000 0.40300  0.07800  0.06700  Biso   1.000  H
  H100     1.0000 0.90300  0.42200  0.93300  Biso   1.000  H
  H101     1.0000 0.02300  0.62400  0.88200  Biso   1.000  H
  H102     1.0000 0.52300  0.87600  0.11800  Biso   1.000  H
  H103     1.0000 0.47700  0.12400  0.11800  Biso   1.000  H
  H104     1.0000 0.97700  0.37600  0.88200  Biso   1.000  H
  H105     1.0000 0.05100  0.13800  0.64700  Biso   1.000  H
  H106     1.0000 0.55100  0.36200  0.35300  Biso   1.000  H
  H107     1.0000 0.44900  0.63800  0.35300  Biso   1.000  H
  H108     1.0000 0.94900  0.86200  0.64700  Biso   1.000  H
  H109     1.0000 0.04500  0.11400  0.53100  Biso   1.000  H
  H110     1.0000 0.54500  0.38600  0.46900  Biso   1.000  H
  H111     1.0000 0.45500  0.61400  0.46900  Biso   1.000  H
  H112     1.0000 0.95500  0.88600  0.53100  Biso   1.000  H
  H113     1.0000 0.08800  0.11300  0.08800  Biso   1.000  H
  H114     1.0000 0.58800  0.38700  0.91200  Biso   1.000  H
  H115     1.0000 0.41200  0.61300  0.91200  Biso   1.000  H
  H116     1.0000 0.91200  0.88700  0.08800  Biso   1.000  H
  H117     1.0000 0.06800  0.12800  0.26500  Biso   1.000  H
  H118     1.0000 0.56800  0.37200  0.73500  Biso   1.000  H
  H119     1.0000 0.43200  0.62800  0.73500  Biso   1.000  H
  H120     1.0000 0.93200  0.87200  0.26500  Biso   1.000  H
  H121     1.0000 0.86700  0.27600  0.70600  Biso   1.000  H
  H122     1.0000 0.36700  0.22400  0.29400  Biso   1.000  H
  H123     1.0000 0.63300  0.77600  0.29400  Biso   1.000  H
  H124     1.0000 0.13300  0.72400  0.70600  Biso   1.000  H
  H125     1.0000 0.83600  0.33900  0.72900  Biso   1.000  H
  H126     1.0000 0.33600  0.16100  0.27100  Biso   1.000  H
  H127     1.0000 0.66400  0.83900  0.27100  Biso   1.000  H
  H128     1.0000 0.16400  0.66100  0.72900  Biso   1.000  H
