data_image0
_cell_length_a       17.58
_cell_length_b       15.73
_cell_length_c       17.456
_cell_angle_alpha    90
_cell_angle_beta     92.433
_cell_angle_gamma    90

_symmetry_space_group_name_H-M    "P 1"
_symmetry_int_tables_number       1

loop_
  _symmetry_equiv_pos_as_xyz
  'x, y, z'

loop_
  _atom_site_label
  _atom_site_occupancy
  _atom_site_fract_x
  _atom_site_fract_y
  _atom_site_fract_z
  _atom_site_thermal_displace_type
  _atom_site_B_iso_or_equiv
  _atom_site_type_symbol
  Cu1      1.0000 0.19942  0.99603  0.27807  Biso   1.000  Cu
  Cu2      1.0000 0.80058  0.99603  0.22193  Biso   1.000  Cu
  Cu3      1.0000 0.69942  0.49603  0.27807  Biso   1.000  Cu
  Cu4      1.0000 0.30058  0.49603  0.22193  Biso   1.000  Cu
  Cu5      1.0000 0.80058  0.00397  0.72193  Biso   1.000  Cu
  Cu6      1.0000 0.19942  0.00397  0.77807  Biso   1.000  Cu
  Cu7      1.0000 0.30058  0.50397  0.72193  Biso   1.000  Cu
  Cu8      1.0000 0.69942  0.50397  0.77807  Biso   1.000  Cu
  N1       1.0000 0.16380  0.24530  0.05820  Biso   1.000  N
  N2       1.0000 0.83620  0.24530  0.44180  Biso   1.000  N
  N3       1.0000 0.66380  0.74530  0.05820  Biso   1.000  N
  N4       1.0000 0.33620  0.74530  0.44180  Biso   1.000  N
  N5       1.0000 0.83620  0.75470  0.94180  Biso   1.000  N
  N6       1.0000 0.16380  0.75470  0.55820  Biso   1.000  N
  N7       1.0000 0.33620  0.25470  0.94180  Biso   1.000  N
  N8       1.0000 0.66380  0.25470  0.55820  Biso   1.000  N
  O1       1.0000 0.16367  0.10800  0.30258  Biso   1.000  O
  O2       1.0000 0.83633  0.10800  0.19742  Biso   1.000  O
  O3       1.0000 0.66367  0.60800  0.30258  Biso   1.000  O
  O4       1.0000 0.33633  0.60800  0.19742  Biso   1.000  O
  O5       1.0000 0.83633  0.89200  0.69742  Biso   1.000  O
  O6       1.0000 0.16367  0.89200  0.80258  Biso   1.000  O
  O7       1.0000 0.33633  0.39200  0.69742  Biso   1.000  O
  O8       1.0000 0.66367  0.39200  0.80258  Biso   1.000  O
  O9       1.0000 0.24234  0.39860  0.25707  Biso   1.000  O
  O10      1.0000 0.75766  0.39860  0.24293  Biso   1.000  O
  O11      1.0000 0.74234  0.89860  0.25707  Biso   1.000  O
  O12      1.0000 0.25766  0.89860  0.24293  Biso   1.000  O
  O13      1.0000 0.75766  0.60140  0.74293  Biso   1.000  O
  O14      1.0000 0.24234  0.60140  0.75707  Biso   1.000  O
  O15      1.0000 0.25766  0.10140  0.74293  Biso   1.000  O
  O16      1.0000 0.74234  0.10140  0.75707  Biso   1.000  O
  N9       1.0000 0.11930  0.18830  0.94780  Biso   1.000  N
  N10      1.0000 0.88070  0.18830  0.55220  Biso   1.000  N
  N11      1.0000 0.61930  0.68830  0.94780  Biso   1.000  N
  N12      1.0000 0.38070  0.68830  0.55220  Biso   1.000  N
  N13      1.0000 0.88070  0.81170  0.05220  Biso   1.000  N
  N14      1.0000 0.11930  0.81170  0.44780  Biso   1.000  N
  N15      1.0000 0.38070  0.31170  0.05220  Biso   1.000  N
  N16      1.0000 0.61930  0.31170  0.44780  Biso   1.000  N
  O17      1.0000 0.16950  0.50620  0.28790  Biso   1.000  O
  O18      1.0000 0.83050  0.50620  0.21210  Biso   1.000  O
  O19      1.0000 0.66950  0.00620  0.28790  Biso   1.000  O
  O20      1.0000 0.33050  0.00620  0.21210  Biso   1.000  O
  O21      1.0000 0.83050  0.49380  0.71210  Biso   1.000  O
  O22      1.0000 0.16950  0.49380  0.78790  Biso   1.000  O
  O23      1.0000 0.33050  0.99380  0.71210  Biso   1.000  O
  O24      1.0000 0.66950  0.99380  0.78790  Biso   1.000  O
  C1       1.0000 0.13840  0.28100  0.30890  Biso   1.000  C
  C2       1.0000 0.86160  0.28100  0.19110  Biso   1.000  C
  C3       1.0000 0.63840  0.78100  0.30890  Biso   1.000  C
  C4       1.0000 0.36160  0.78100  0.19110  Biso   1.000  C
  C5       1.0000 0.86160  0.71900  0.69110  Biso   1.000  C
  C6       1.0000 0.13840  0.71900  0.80890  Biso   1.000  C
  C7       1.0000 0.36160  0.21900  0.69110  Biso   1.000  C
  C8       1.0000 0.63840  0.21900  0.80890  Biso   1.000  C
  H1       1.0000 0.18460  0.26180  0.29140  Biso   1.000  H
  H2       1.0000 0.81540  0.26180  0.20860  Biso   1.000  H
  H3       1.0000 0.68460  0.76180  0.29140  Biso   1.000  H
  H4       1.0000 0.31540  0.76180  0.20860  Biso   1.000  H
  H5       1.0000 0.81540  0.73820  0.70860  Biso   1.000  H
  H6       1.0000 0.18460  0.73820  0.79140  Biso   1.000  H
  H7       1.0000 0.31540  0.23820  0.70860  Biso   1.000  H
  H8       1.0000 0.68460  0.23820  0.79140  Biso   1.000  H
  C9       1.0000 0.13150  0.09290  0.05810  Biso   1.000  C
  C10      1.0000 0.86850  0.09290  0.44190  Biso   1.000  C
  C11      1.0000 0.63150  0.59290  0.05810  Biso   1.000  C
  C12      1.0000 0.36850  0.59290  0.44190  Biso   1.000  C
  C13      1.0000 0.86850  0.90710  0.94190  Biso   1.000  C
  C14      1.0000 0.13150  0.90710  0.55810  Biso   1.000  C
  C15      1.0000 0.36850  0.40710  0.94190  Biso   1.000  C
  C16      1.0000 0.63150  0.40710  0.55810  Biso   1.000  C
  C17      1.0000 0.18230  0.39440  0.02220  Biso   1.000  C
  C18      1.0000 0.81770  0.39440  0.47780  Biso   1.000  C
  C19      1.0000 0.68230  0.89440  0.02220  Biso   1.000  C
  C20      1.0000 0.31770  0.89440  0.47780  Biso   1.000  C
  C21      1.0000 0.81770  0.60560  0.97780  Biso   1.000  C
  C22      1.0000 0.18230  0.60560  0.52220  Biso   1.000  C
  C23      1.0000 0.31770  0.10560  0.97780  Biso   1.000  C
  C24      1.0000 0.68230  0.10560  0.52220  Biso   1.000  C
  N17      1.0000 0.15300  0.00790  0.16980  Biso   1.000  N
  N18      1.0000 0.84700  0.00790  0.33020  Biso   1.000  N
  N19      1.0000 0.65300  0.50790  0.16980  Biso   1.000  N
  N20      1.0000 0.34700  0.50790  0.33020  Biso   1.000  N
  N21      1.0000 0.84700  0.99210  0.83020  Biso   1.000  N
  N22      1.0000 0.15300  0.99210  0.66980  Biso   1.000  N
  N23      1.0000 0.34700  0.49210  0.83020  Biso   1.000  N
  N24      1.0000 0.65300  0.49210  0.66980  Biso   1.000  N
  N25      1.0000 0.13450  0.27270  0.93850  Biso   1.000  N
  N26      1.0000 0.86550  0.27270  0.56150  Biso   1.000  N
  N27      1.0000 0.63450  0.77270  0.93850  Biso   1.000  N
  N28      1.0000 0.36550  0.77270  0.56150  Biso   1.000  N
  N29      1.0000 0.86550  0.72730  0.06150  Biso   1.000  N
  N30      1.0000 0.13450  0.72730  0.43850  Biso   1.000  N
  N31      1.0000 0.36550  0.22730  0.06150  Biso   1.000  N
  N32      1.0000 0.63450  0.22730  0.43850  Biso   1.000  N
  N33      1.0000 0.24740  0.48430  0.11490  Biso   1.000  N
  N34      1.0000 0.75260  0.48430  0.38510  Biso   1.000  N
  N35      1.0000 0.74740  0.98430  0.11490  Biso   1.000  N
  N36      1.0000 0.25260  0.98430  0.38510  Biso   1.000  N
  N37      1.0000 0.75260  0.51570  0.88510  Biso   1.000  N
  N38      1.0000 0.24740  0.51570  0.61490  Biso   1.000  N
  N39      1.0000 0.25260  0.01570  0.88510  Biso   1.000  N
  N40      1.0000 0.74740  0.01570  0.61490  Biso   1.000  N
  O25      1.0000 0.05170  0.07780  0.35000  Biso   1.000  O
  O26      1.0000 0.94830  0.07780  0.15000  Biso   1.000  O
  O27      1.0000 0.55170  0.57780  0.35000  Biso   1.000  O
  O28      1.0000 0.44830  0.57780  0.15000  Biso   1.000  O
  O29      1.0000 0.94830  0.92220  0.65000  Biso   1.000  O
  O30      1.0000 0.05170  0.92220  0.85000  Biso   1.000  O
  O31      1.0000 0.44830  0.42220  0.65000  Biso   1.000  O
  O32      1.0000 0.55170  0.42220  0.85000  Biso   1.000  O
  C25      1.0000 0.08550  0.22200  0.33200  Biso   1.000  C
  C26      1.0000 0.91450  0.22200  0.16800  Biso   1.000  C
  C27      1.0000 0.58550  0.72200  0.33200  Biso   1.000  C
  C28      1.0000 0.41450  0.72200  0.16800  Biso   1.000  C
  C29      1.0000 0.91450  0.77800  0.66800  Biso   1.000  C
  C30      1.0000 0.08550  0.77800  0.83200  Biso   1.000  C
  C31      1.0000 0.41450  0.27800  0.66800  Biso   1.000  C
  C32      1.0000 0.58550  0.27800  0.83200  Biso   1.000  C
  C33      1.0000 0.15910  0.30610  0.00620  Biso   1.000  C
  C34      1.0000 0.84090  0.30610  0.49380  Biso   1.000  C
  C35      1.0000 0.65910  0.80610  0.00620  Biso   1.000  C
  C36      1.0000 0.34090  0.80610  0.49380  Biso   1.000  C
  C37      1.0000 0.84090  0.69390  0.99380  Biso   1.000  C
  C38      1.0000 0.15910  0.69390  0.50620  Biso   1.000  C
  C39      1.0000 0.34090  0.19390  0.99380  Biso   1.000  C
  C40      1.0000 0.65910  0.19390  0.50620  Biso   1.000  C
  C41      1.0000 0.13750  0.17580  0.02150  Biso   1.000  C
  C42      1.0000 0.86250  0.17580  0.47850  Biso   1.000  C
  C43      1.0000 0.63750  0.67580  0.02150  Biso   1.000  C
  C44      1.0000 0.36250  0.67580  0.47850  Biso   1.000  C
  C45      1.0000 0.86250  0.82420  0.97850  Biso   1.000  C
  C46      1.0000 0.13750  0.82420  0.52150  Biso   1.000  C
  C47      1.0000 0.36250  0.32420  0.97850  Biso   1.000  C
  C48      1.0000 0.63750  0.32420  0.52150  Biso   1.000  C
  C49      1.0000 0.10240  0.02140  0.02040  Biso   1.000  C
  C50      1.0000 0.89760  0.02140  0.47960  Biso   1.000  C
  C51      1.0000 0.60240  0.52140  0.02040  Biso   1.000  C
  C52      1.0000 0.39760  0.52140  0.47960  Biso   1.000  C
  C53      1.0000 0.89760  0.97860  0.97960  Biso   1.000  C
  C54      1.0000 0.10240  0.97860  0.52040  Biso   1.000  C
  C55      1.0000 0.39760  0.47860  0.97960  Biso   1.000  C
  C56      1.0000 0.60240  0.47860  0.52040  Biso   1.000  C
  H9       1.0000 0.08440  0.02540  0.96970  Biso   1.000  H
  H10      1.0000 0.91560  0.02540  0.53030  Biso   1.000  H
  H11      1.0000 0.58440  0.52540  0.96970  Biso   1.000  H
  H12      1.0000 0.41560  0.52540  0.53030  Biso   1.000  H
  H13      1.0000 0.91560  0.97460  0.03030  Biso   1.000  H
  H14      1.0000 0.08440  0.97460  0.46970  Biso   1.000  H
  H15      1.0000 0.41560  0.47460  0.03030  Biso   1.000  H
  H16      1.0000 0.58440  0.47460  0.46970  Biso   1.000  H
  C57      1.0000 0.05540  0.39580  0.33660  Biso   1.000  C
  C58      1.0000 0.94460  0.39580  0.16340  Biso   1.000  C
  C59      1.0000 0.55540  0.89580  0.33660  Biso   1.000  C
  C60      1.0000 0.44460  0.89580  0.16340  Biso   1.000  C
  C61      1.0000 0.94460  0.60420  0.66340  Biso   1.000  C
  C62      1.0000 0.05540  0.60420  0.83660  Biso   1.000  C
  C63      1.0000 0.44460  0.10420  0.66340  Biso   1.000  C
  C64      1.0000 0.55540  0.10420  0.83660  Biso   1.000  C
  H17      1.0000 0.04520  0.45370  0.33800  Biso   1.000  H
  H18      1.0000 0.95480  0.45370  0.16200  Biso   1.000  H
  H19      1.0000 0.54520  0.95370  0.33800  Biso   1.000  H
  H20      1.0000 0.45480  0.95370  0.16200  Biso   1.000  H
  H21      1.0000 0.95480  0.54630  0.66200  Biso   1.000  H
  H22      1.0000 0.04520  0.54630  0.83800  Biso   1.000  H
  H23      1.0000 0.45480  0.04630  0.66200  Biso   1.000  H
  H24      1.0000 0.54520  0.04630  0.83800  Biso   1.000  H
  C65      1.0000 0.10000  0.12860  0.32810  Biso   1.000  C
  C66      1.0000 0.90000  0.12860  0.17190  Biso   1.000  C
  C67      1.0000 0.60000  0.62860  0.32810  Biso   1.000  C
  C68      1.0000 0.40000  0.62860  0.17190  Biso   1.000  C
  C69      1.0000 0.90000  0.87140  0.67190  Biso   1.000  C
  C70      1.0000 0.10000  0.87140  0.82810  Biso   1.000  C
  C71      1.0000 0.40000  0.37140  0.67190  Biso   1.000  C
  C72      1.0000 0.60000  0.37140  0.82810  Biso   1.000  C
  C73      1.0000 0.18170  0.42920  0.28340  Biso   1.000  C
  C74      1.0000 0.81830  0.42920  0.21660  Biso   1.000  C
  C75      1.0000 0.68170  0.92920  0.28340  Biso   1.000  C
  C76      1.0000 0.31830  0.92920  0.21660  Biso   1.000  C
  C77      1.0000 0.81830  0.57080  0.71660  Biso   1.000  C
  C78      1.0000 0.18170  0.57080  0.78340  Biso   1.000  C
  C79      1.0000 0.31830  0.07080  0.71660  Biso   1.000  C
  C80      1.0000 0.68170  0.07080  0.78340  Biso   1.000  C
  C81      1.0000 0.12470  0.36670  0.31100  Biso   1.000  C
  C82      1.0000 0.87530  0.36670  0.18900  Biso   1.000  C
  C83      1.0000 0.62470  0.86670  0.31100  Biso   1.000  C
  C84      1.0000 0.37530  0.86670  0.18900  Biso   1.000  C
  C85      1.0000 0.87530  0.63330  0.68900  Biso   1.000  C
  C86      1.0000 0.12470  0.63330  0.81100  Biso   1.000  C
  C87      1.0000 0.37530  0.13330  0.68900  Biso   1.000  C
  C88      1.0000 0.62470  0.13330  0.81100  Biso   1.000  C
  C89      1.0000 0.22330  0.40820  0.09100  Biso   1.000  C
  C90      1.0000 0.77670  0.40820  0.40900  Biso   1.000  C
  C91      1.0000 0.72330  0.90820  0.09100  Biso   1.000  C
  C92      1.0000 0.27670  0.90820  0.40900  Biso   1.000  C
  C93      1.0000 0.77670  0.59180  0.90900  Biso   1.000  C
  C94      1.0000 0.22330  0.59180  0.59100  Biso   1.000  C
  C95      1.0000 0.27670  0.09180  0.90900  Biso   1.000  C
  C96      1.0000 0.72330  0.09180  0.59100  Biso   1.000  C
  H25      1.0000 0.23460  0.36150  0.12210  Biso   1.000  H
  H26      1.0000 0.76540  0.36150  0.37790  Biso   1.000  H
  H27      1.0000 0.73460  0.86150  0.12210  Biso   1.000  H
  H28      1.0000 0.26540  0.86150  0.37790  Biso   1.000  H
  H29      1.0000 0.76540  0.63850  0.87790  Biso   1.000  H
  H30      1.0000 0.23460  0.63850  0.62210  Biso   1.000  H
  H31      1.0000 0.26540  0.13850  0.87790  Biso   1.000  H
  H32      1.0000 0.73460  0.13850  0.62210  Biso   1.000  H
  C97      1.0000 0.15600  0.08250  0.13300  Biso   1.000  C
  C98      1.0000 0.84400  0.08250  0.36700  Biso   1.000  C
  C99      1.0000 0.65600  0.58250  0.13300  Biso   1.000  C
  C100     1.0000 0.34400  0.58250  0.36700  Biso   1.000  C
  C101     1.0000 0.84400  0.91750  0.86700  Biso   1.000  C
  C102     1.0000 0.15600  0.91750  0.63300  Biso   1.000  C
  C103     1.0000 0.34400  0.41750  0.86700  Biso   1.000  C
  C104     1.0000 0.65600  0.41750  0.63300  Biso   1.000  C
  H33      1.0000 0.17570  0.12940  0.15960  Biso   1.000  H
  H34      1.0000 0.82430  0.12940  0.34040  Biso   1.000  H
  H35      1.0000 0.67570  0.62940  0.15960  Biso   1.000  H
  H36      1.0000 0.32430  0.62940  0.34040  Biso   1.000  H
  H37      1.0000 0.82430  0.87060  0.84040  Biso   1.000  H
  H38      1.0000 0.17570  0.87060  0.65960  Biso   1.000  H
  H39      1.0000 0.32430  0.37060  0.84040  Biso   1.000  H
  H40      1.0000 0.67570  0.37060  0.65960  Biso   1.000  H
  C105     1.0000 0.19160  0.54210  0.00050  Biso   1.000  C
  C106     1.0000 0.80840  0.54210  0.49950  Biso   1.000  C
  C107     1.0000 0.69160  0.04210  0.00050  Biso   1.000  C
  C108     1.0000 0.30840  0.04210  0.49950  Biso   1.000  C
  C109     1.0000 0.80840  0.45790  0.99950  Biso   1.000  C
  C110     1.0000 0.19160  0.45790  0.50050  Biso   1.000  C
  C111     1.0000 0.30840  0.95790  0.99950  Biso   1.000  C
  C112     1.0000 0.69160  0.95790  0.50050  Biso   1.000  C
  H41      1.0000 0.18180  0.58950  0.96980  Biso   1.000  H
  H42      1.0000 0.81820  0.58950  0.53020  Biso   1.000  H
  H43      1.0000 0.68180  0.08950  0.96980  Biso   1.000  H
  H44      1.0000 0.31820  0.08950  0.53020  Biso   1.000  H
  H45      1.0000 0.81820  0.41050  0.03020  Biso   1.000  H
  H46      1.0000 0.18180  0.41050  0.46980  Biso   1.000  H
  H47      1.0000 0.31820  0.91050  0.03020  Biso   1.000  H
  H48      1.0000 0.68180  0.91050  0.46980  Biso   1.000  H
  C113     1.0000 0.10000  0.94530  0.05760  Biso   1.000  C
  C114     1.0000 0.90000  0.94530  0.44240  Biso   1.000  C
  C115     1.0000 0.60000  0.44530  0.05760  Biso   1.000  C
  C116     1.0000 0.40000  0.44530  0.44240  Biso   1.000  C
  C117     1.0000 0.90000  0.05470  0.94240  Biso   1.000  C
  C118     1.0000 0.10000  0.05470  0.55760  Biso   1.000  C
  C119     1.0000 0.40000  0.55470  0.94240  Biso   1.000  C
  C120     1.0000 0.60000  0.55470  0.55760  Biso   1.000  C
  H49      1.0000 0.08100  0.89720  0.03230  Biso   1.000  H
  H50      1.0000 0.91900  0.89720  0.46770  Biso   1.000  H
  H51      1.0000 0.58100  0.39720  0.03230  Biso   1.000  H
  H52      1.0000 0.41900  0.39720  0.46770  Biso   1.000  H
  H53      1.0000 0.91900  0.10280  0.96770  Biso   1.000  H
  H54      1.0000 0.08100  0.10280  0.53230  Biso   1.000  H
  H55      1.0000 0.41900  0.60280  0.96770  Biso   1.000  H
  H56      1.0000 0.58100  0.60280  0.53230  Biso   1.000  H
  C121     1.0000 0.23310  0.55090  0.06980  Biso   1.000  C
  C122     1.0000 0.76690  0.55090  0.43020  Biso   1.000  C
  C123     1.0000 0.73310  0.05090  0.06980  Biso   1.000  C
  C124     1.0000 0.26690  0.05090  0.43020  Biso   1.000  C
  C125     1.0000 0.76690  0.44910  0.93020  Biso   1.000  C
  C126     1.0000 0.23310  0.44910  0.56980  Biso   1.000  C
  C127     1.0000 0.26690  0.94910  0.93020  Biso   1.000  C
  C128     1.0000 0.73310  0.94910  0.56980  Biso   1.000  C
  H57      1.0000 0.25100  0.60420  0.08470  Biso   1.000  H
  H58      1.0000 0.74900  0.60420  0.41530  Biso   1.000  H
  H59      1.0000 0.75100  0.10420  0.08470  Biso   1.000  H
  H60      1.0000 0.24900  0.10420  0.41530  Biso   1.000  H
  H61      1.0000 0.74900  0.39580  0.91530  Biso   1.000  H
  H62      1.0000 0.25100  0.39580  0.58470  Biso   1.000  H
  H63      1.0000 0.24900  0.89580  0.91530  Biso   1.000  H
  H64      1.0000 0.75100  0.89580  0.58470  Biso   1.000  H
  C129     1.0000 0.12570  0.94020  0.13240  Biso   1.000  C
  C130     1.0000 0.87430  0.94020  0.36760  Biso   1.000  C
  C131     1.0000 0.62570  0.44020  0.13240  Biso   1.000  C
  C132     1.0000 0.37430  0.44020  0.36760  Biso   1.000  C
  C133     1.0000 0.87430  0.05980  0.86760  Biso   1.000  C
  C134     1.0000 0.12570  0.05980  0.63240  Biso   1.000  C
  C135     1.0000 0.37430  0.55980  0.86760  Biso   1.000  C
  C136     1.0000 0.62570  0.55980  0.63240  Biso   1.000  C
  H65      1.0000 0.12420  0.88820  0.15770  Biso   1.000  H
  H66      1.0000 0.87580  0.88820  0.34230  Biso   1.000  H
  H67      1.0000 0.62420  0.38820  0.15770  Biso   1.000  H
  H68      1.0000 0.37580  0.38820  0.34230  Biso   1.000  H
  H69      1.0000 0.87580  0.11180  0.84230  Biso   1.000  H
  H70      1.0000 0.12420  0.11180  0.65770  Biso   1.000  H
  H71      1.0000 0.37580  0.61180  0.84230  Biso   1.000  H
  H72      1.0000 0.62420  0.61180  0.65770  Biso   1.000  H
  C137     1.0000 0.00230  0.33810  0.35970  Biso   1.000  C
  C138     1.0000 0.99770  0.33810  0.14030  Biso   1.000  C
  C139     1.0000 0.50230  0.83810  0.35970  Biso   1.000  C
  C140     1.0000 0.49770  0.83810  0.14030  Biso   1.000  C
  C141     1.0000 0.99770  0.66190  0.64030  Biso   1.000  C
  C142     1.0000 0.00230  0.66190  0.85970  Biso   1.000  C
  C143     1.0000 0.49770  0.16190  0.64030  Biso   1.000  C
  C144     1.0000 0.50230  0.16190  0.85970  Biso   1.000  C
  H73      1.0000 0.95610  0.35770  0.37690  Biso   1.000  H
  H74      1.0000 0.04390  0.35770  0.12310  Biso   1.000  H
  H75      1.0000 0.45610  0.85770  0.37690  Biso   1.000  H
  H76      1.0000 0.54390  0.85770  0.12310  Biso   1.000  H
  H77      1.0000 0.04390  0.64230  0.62310  Biso   1.000  H
  H78      1.0000 0.95610  0.64230  0.87690  Biso   1.000  H
  H79      1.0000 0.54390  0.14230  0.62310  Biso   1.000  H
  H80      1.0000 0.45610  0.14230  0.87690  Biso   1.000  H
  C145     1.0000 0.01610  0.25290  0.35790  Biso   1.000  C
  C146     1.0000 0.98390  0.25290  0.14210  Biso   1.000  C
  C147     1.0000 0.51610  0.75290  0.35790  Biso   1.000  C
  C148     1.0000 0.48390  0.75290  0.14210  Biso   1.000  C
  C149     1.0000 0.98390  0.74710  0.64210  Biso   1.000  C
  C150     1.0000 0.01610  0.74710  0.85790  Biso   1.000  C
  C151     1.0000 0.48390  0.24710  0.64210  Biso   1.000  C
  C152     1.0000 0.51610  0.24710  0.85790  Biso   1.000  C
  H81      1.0000 0.97940  0.21500  0.37380  Biso   1.000  H
  H82      1.0000 0.02060  0.21500  0.12620  Biso   1.000  H
  H83      1.0000 0.47940  0.71500  0.37380  Biso   1.000  H
  H84      1.0000 0.52060  0.71500  0.12620  Biso   1.000  H
  H85      1.0000 0.02060  0.78500  0.62620  Biso   1.000  H
  H86      1.0000 0.97940  0.78500  0.87380  Biso   1.000  H
  H87      1.0000 0.52060  0.28500  0.62620  Biso   1.000  H
  H88      1.0000 0.47940  0.28500  0.87380  Biso   1.000  H
  C153     1.0000 0.16550  0.46420  0.97760  Biso   1.000  C
  C154     1.0000 0.83450  0.46420  0.52240  Biso   1.000  C
  C155     1.0000 0.66550  0.96420  0.97760  Biso   1.000  C
  C156     1.0000 0.33450  0.96420  0.52240  Biso   1.000  C
  C157     1.0000 0.83450  0.53580  0.02240  Biso   1.000  C
  C158     1.0000 0.16550  0.53580  0.47760  Biso   1.000  C
  C159     1.0000 0.33450  0.03580  0.02240  Biso   1.000  C
  C160     1.0000 0.66550  0.03580  0.47760  Biso   1.000  C
  H89      1.0000 0.13650  0.45850  0.93210  Biso   1.000  H
  H90      1.0000 0.86350  0.45850  0.56790  Biso   1.000  H
  H91      1.0000 0.63650  0.95850  0.93210  Biso   1.000  H
  H92      1.0000 0.36350  0.95850  0.56790  Biso   1.000  H
  H93      1.0000 0.86350  0.54150  0.06790  Biso   1.000  H
  H94      1.0000 0.13650  0.54150  0.43210  Biso   1.000  H
  H95      1.0000 0.36350  0.04150  0.06790  Biso   1.000  H
  H96      1.0000 0.63650  0.04150  0.43210  Biso   1.000  H
  N41      1.0000 0.03750  0.31770  0.85060  Biso   1.000  N
  N42      1.0000 0.96250  0.31770  0.64940  Biso   1.000  N
  N43      1.0000 0.53750  0.81770  0.85060  Biso   1.000  N
  N44      1.0000 0.46250  0.81770  0.64940  Biso   1.000  N
  N45      1.0000 0.96250  0.68230  0.14940  Biso   1.000  N
  N46      1.0000 0.03750  0.68230  0.35060  Biso   1.000  N
  N47      1.0000 0.46250  0.18230  0.14940  Biso   1.000  N
  N48      1.0000 0.53750  0.18230  0.35060  Biso   1.000  N
  C161     1.0000 0.11530  0.30680  0.85770  Biso   1.000  C
  C162     1.0000 0.88470  0.30680  0.64230  Biso   1.000  C
  C163     1.0000 0.61530  0.80680  0.85770  Biso   1.000  C
  C164     1.0000 0.38470  0.80680  0.64230  Biso   1.000  C
  C165     1.0000 0.88470  0.69320  0.14230  Biso   1.000  C
  C166     1.0000 0.11530  0.69320  0.35770  Biso   1.000  C
  C167     1.0000 0.38470  0.19320  0.14230  Biso   1.000  C
  C168     1.0000 0.61530  0.19320  0.35770  Biso   1.000  C
  H97      1.0000 0.14100  0.36050  0.85020  Biso   1.000  H
  H98      1.0000 0.85900  0.36050  0.64980  Biso   1.000  H
  H99      1.0000 0.64100  0.86050  0.85020  Biso   1.000  H
  H100     1.0000 0.35900  0.86050  0.64980  Biso   1.000  H
  H101     1.0000 0.85900  0.63950  0.14980  Biso   1.000  H
  H102     1.0000 0.14100  0.63950  0.35020  Biso   1.000  H
  H103     1.0000 0.35900  0.13950  0.14980  Biso   1.000  H
  H104     1.0000 0.64100  0.13950  0.35020  Biso   1.000  H
  H105     1.0000 0.13190  0.26680  0.81950  Biso   1.000  H
  H106     1.0000 0.86810  0.26680  0.68050  Biso   1.000  H
  H107     1.0000 0.63190  0.76680  0.81950  Biso   1.000  H
  H108     1.0000 0.36810  0.76680  0.68050  Biso   1.000  H
  H109     1.0000 0.86810  0.73320  0.18050  Biso   1.000  H
  H110     1.0000 0.13190  0.73320  0.31950  Biso   1.000  H
  H111     1.0000 0.36810  0.23320  0.18050  Biso   1.000  H
  H112     1.0000 0.63190  0.23320  0.31950  Biso   1.000  H
  N49      1.0000 0.00470  0.39270  0.85790  Biso   1.000  N
  N50      1.0000 0.99530  0.39270  0.64210  Biso   1.000  N
  N51      1.0000 0.50470  0.89270  0.85790  Biso   1.000  N
  N52      1.0000 0.49530  0.89270  0.64210  Biso   1.000  N
  N53      1.0000 0.99530  0.60730  0.14210  Biso   1.000  N
  N54      1.0000 0.00470  0.60730  0.35790  Biso   1.000  N
  N55      1.0000 0.49530  0.10730  0.14210  Biso   1.000  N
  N56      1.0000 0.50470  0.10730  0.35790  Biso   1.000  N
  C169     1.0000 0.93130  0.37680  0.84110  Biso   1.000  C
  C170     1.0000 0.06870  0.37680  0.65890  Biso   1.000  C
  C171     1.0000 0.43130  0.87680  0.84110  Biso   1.000  C
  C172     1.0000 0.56870  0.87680  0.65890  Biso   1.000  C
  C173     1.0000 0.06870  0.62320  0.15890  Biso   1.000  C
  C174     1.0000 0.93130  0.62320  0.34110  Biso   1.000  C
  C175     1.0000 0.56870  0.12320  0.15890  Biso   1.000  C
  C176     1.0000 0.43130  0.12320  0.34110  Biso   1.000  C
  H113     1.0000 0.89450  0.41920  0.83730  Biso   1.000  H
  H114     1.0000 0.10550  0.41920  0.66270  Biso   1.000  H
  H115     1.0000 0.39450  0.91920  0.83730  Biso   1.000  H
  H116     1.0000 0.60550  0.91920  0.66270  Biso   1.000  H
  H117     1.0000 0.10550  0.58080  0.16270  Biso   1.000  H
  H118     1.0000 0.89450  0.58080  0.33730  Biso   1.000  H
  H119     1.0000 0.60550  0.08080  0.16270  Biso   1.000  H
  H120     1.0000 0.39450  0.08080  0.33730  Biso   1.000  H
  N57      1.0000 0.91510  0.29240  0.82990  Biso   1.000  N
  N58      1.0000 0.08490  0.29240  0.67010  Biso   1.000  N
  N59      1.0000 0.41510  0.79240  0.82990  Biso   1.000  N
  N60      1.0000 0.58490  0.79240  0.67010  Biso   1.000  N
  N61      1.0000 0.08490  0.70760  0.17010  Biso   1.000  N
  N62      1.0000 0.91510  0.70760  0.32990  Biso   1.000  N
  N63      1.0000 0.58490  0.20760  0.17010  Biso   1.000  N
  N64      1.0000 0.41510  0.20760  0.32990  Biso   1.000  N
  C177     1.0000 0.98350  0.25910  0.83400  Biso   1.000  C
  C178     1.0000 0.01650  0.25910  0.66600  Biso   1.000  C
  C179     1.0000 0.48350  0.75910  0.83400  Biso   1.000  C
  C180     1.0000 0.51650  0.75910  0.66600  Biso   1.000  C
  C181     1.0000 0.01650  0.74090  0.16600  Biso   1.000  C
  C182     1.0000 0.98350  0.74090  0.33400  Biso   1.000  C
  C183     1.0000 0.51650  0.24090  0.16600  Biso   1.000  C
  C184     1.0000 0.48350  0.24090  0.33400  Biso   1.000  C
  H121     1.0000 0.99360  0.20180  0.82640  Biso   1.000  H
  H122     1.0000 0.00640  0.20180  0.67360  Biso   1.000  H
  H123     1.0000 0.49360  0.70180  0.82640  Biso   1.000  H
  H124     1.0000 0.50640  0.70180  0.67360  Biso   1.000  H
  H125     1.0000 0.00640  0.79820  0.17360  Biso   1.000  H
  H126     1.0000 0.99360  0.79820  0.32640  Biso   1.000  H
  H127     1.0000 0.50640  0.29820  0.17360  Biso   1.000  H
  H128     1.0000 0.49360  0.29820  0.32640  Biso   1.000  H
  O33      1.0000 0.08890  0.91710  0.31020  Biso   1.000  O
  O34      1.0000 0.91110  0.91710  0.18980  Biso   1.000  O
  O35      1.0000 0.58890  0.41710  0.31020  Biso   1.000  O
  O36      1.0000 0.41110  0.41710  0.18980  Biso   1.000  O
  O37      1.0000 0.91110  0.08290  0.68980  Biso   1.000  O
  O38      1.0000 0.08890  0.08290  0.81020  Biso   1.000  O
  O39      1.0000 0.41110  0.58290  0.68980  Biso   1.000  O
  O40      1.0000 0.58890  0.58290  0.81020  Biso   1.000  O
  H129     1.0000 0.06700  0.96400  0.31700  Biso   1.000  H
  H130     1.0000 0.93300  0.96400  0.18300  Biso   1.000  H
  H131     1.0000 0.56700  0.46400  0.31700  Biso   1.000  H
  H132     1.0000 0.43300  0.46400  0.18300  Biso   1.000  H
  H133     1.0000 0.93300  0.03600  0.68300  Biso   1.000  H
  H134     1.0000 0.06700  0.03600  0.81700  Biso   1.000  H
  H135     1.0000 0.43300  0.53600  0.68300  Biso   1.000  H
  H136     1.0000 0.56700  0.53600  0.81700  Biso   1.000  H
  H137     1.0000 0.09600  0.88600  0.35000  Biso   1.000  H
  H138     1.0000 0.90400  0.88600  0.15000  Biso   1.000  H
  H139     1.0000 0.59600  0.38600  0.35000  Biso   1.000  H
  H140     1.0000 0.40400  0.38600  0.15000  Biso   1.000  H
  H141     1.0000 0.90400  0.11400  0.65000  Biso   1.000  H
  H142     1.0000 0.09600  0.11400  0.85000  Biso   1.000  H
  H143     1.0000 0.40400  0.61400  0.65000  Biso   1.000  H
  H144     1.0000 0.59600  0.61400  0.85000  Biso   1.000  H
