data_image0
_cell_length_a       14.341
_cell_length_b       15.473
_cell_length_c       12.822
_cell_angle_alpha    90
_cell_angle_beta     114.11
_cell_angle_gamma    90

_symmetry_space_group_name_H-M    "P 1"
_symmetry_int_tables_number       1

loop_
  _symmetry_equiv_pos_as_xyz
  'x, y, z'

loop_
  _atom_site_label
  _atom_site_occupancy
  _atom_site_fract_x
  _atom_site_fract_y
  _atom_site_fract_z
  _atom_site_thermal_displace_type
  _atom_site_B_iso_or_equiv
  _atom_site_type_symbol
  Cu1      1.0000 0.16196  0.57160  0.44227  Biso   1.000  Cu
  Cu2      1.0000 0.83804  0.07160  0.05773  Biso   1.000  Cu
  Cu3      1.0000 0.83804  0.42840  0.55773  Biso   1.000  Cu
  Cu4      1.0000 0.16196  0.92840  0.94227  Biso   1.000  Cu
  Cu5      1.0000 0.21406  0.17934  0.46662  Biso   1.000  Cu
  Cu6      1.0000 0.78594  0.67934  0.03338  Biso   1.000  Cu
  Cu7      1.0000 0.78594  0.82066  0.53338  Biso   1.000  Cu
  Cu8      1.0000 0.21406  0.32066  0.96662  Biso   1.000  Cu
  N1       1.0000 0.14470  0.44130  0.40800  Biso   1.000  N
  N2       1.0000 0.85530  0.94130  0.09200  Biso   1.000  N
  N3       1.0000 0.85530  0.55870  0.59200  Biso   1.000  N
  N4       1.0000 0.14470  0.05870  0.90800  Biso   1.000  N
  C1       1.0000 0.20120  0.37310  0.46040  Biso   1.000  C
  C2       1.0000 0.79880  0.87310  0.03960  Biso   1.000  C
  C3       1.0000 0.79880  0.62690  0.53960  Biso   1.000  C
  C4       1.0000 0.20120  0.12690  0.96040  Biso   1.000  C
  N5       1.0000 0.16000  0.29680  0.41360  Biso   1.000  N
  N6       1.0000 0.84000  0.79680  0.08640  Biso   1.000  N
  N7       1.0000 0.84000  0.70320  0.58640  Biso   1.000  N
  N8       1.0000 0.16000  0.20320  0.91360  Biso   1.000  N
  C5       1.0000 0.07110  0.31800  0.32370  Biso   1.000  C
  C6       1.0000 0.92890  0.81800  0.17630  Biso   1.000  C
  C7       1.0000 0.92890  0.68200  0.67630  Biso   1.000  C
  C8       1.0000 0.07110  0.18200  0.82370  Biso   1.000  C
  C9       1.0000 0.06160  0.40550  0.32050  Biso   1.000  C
  C10      1.0000 0.93840  0.90550  0.17950  Biso   1.000  C
  C11      1.0000 0.93840  0.59450  0.67950  Biso   1.000  C
  C12      1.0000 0.06160  0.09450  0.82050  Biso   1.000  C
  N9       1.0000 0.87520  0.62200  0.18740  Biso   1.000  N
  N10      1.0000 0.12480  0.12200  0.31260  Biso   1.000  N
  N11      1.0000 0.12480  0.37800  0.81260  Biso   1.000  N
  N12      1.0000 0.87520  0.87800  0.68740  Biso   1.000  N
  C13      1.0000 0.97540  0.60900  0.22930  Biso   1.000  C
  C14      1.0000 0.02460  0.10900  0.27070  Biso   1.000  C
  C15      1.0000 0.02460  0.39100  0.77070  Biso   1.000  C
  C16      1.0000 0.97540  0.89100  0.72930  Biso   1.000  C
  N13      1.0000 0.01810  0.59660  0.34280  Biso   1.000  N
  N14      1.0000 0.98190  0.09660  0.15720  Biso   1.000  N
  N15      1.0000 0.98190  0.40340  0.65720  Biso   1.000  N
  N16      1.0000 0.01810  0.90340  0.84280  Biso   1.000  N
  C17      1.0000 0.93880  0.60150  0.37470  Biso   1.000  C
  C18      1.0000 0.06120  0.10150  0.12530  Biso   1.000  C
  C19      1.0000 0.06120  0.39850  0.62530  Biso   1.000  C
  C20      1.0000 0.93880  0.89850  0.87470  Biso   1.000  C
  C21      1.0000 0.85130  0.61720  0.27970  Biso   1.000  C
  C22      1.0000 0.14870  0.11720  0.22030  Biso   1.000  C
  C23      1.0000 0.14870  0.38280  0.72030  Biso   1.000  C
  C24      1.0000 0.85130  0.88280  0.77970  Biso   1.000  C
  N17      1.0000 0.21430  0.66440  0.35870  Biso   1.000  N
  N18      1.0000 0.78570  0.16440  0.14130  Biso   1.000  N
  N19      1.0000 0.78570  0.33560  0.64130  Biso   1.000  N
  N20      1.0000 0.21430  0.83560  0.85870  Biso   1.000  N
  C25      1.0000 0.32440  0.67780  0.41640  Biso   1.000  C
  C26      1.0000 0.67560  0.17780  0.08360  Biso   1.000  C
  C27      1.0000 0.67560  0.32220  0.58360  Biso   1.000  C
  C28      1.0000 0.32440  0.82220  0.91640  Biso   1.000  C
  C29      1.0000 0.37460  0.59700  0.48330  Biso   1.000  C
  C30      1.0000 0.62540  0.09700  0.01670  Biso   1.000  C
  C31      1.0000 0.62540  0.40300  0.51670  Biso   1.000  C
  C32      1.0000 0.37460  0.90300  0.98330  Biso   1.000  C
  N21      1.0000 0.31450  0.56680  0.54820  Biso   1.000  N
  N22      1.0000 0.68550  0.06680  0.95180  Biso   1.000  N
  N23      1.0000 0.68550  0.43320  0.45180  Biso   1.000  N
  N24      1.0000 0.31450  0.93320  0.04820  Biso   1.000  N
  C33      1.0000 0.33220  0.62110  0.65010  Biso   1.000  C
  C34      1.0000 0.66780  0.12110  0.84990  Biso   1.000  C
  C35      1.0000 0.66780  0.37890  0.34990  Biso   1.000  C
  C36      1.0000 0.33220  0.87890  0.15010  Biso   1.000  C
  C37      1.0000 0.25190  0.60060  0.69290  Biso   1.000  C
  C38      1.0000 0.74810  0.10060  0.80710  Biso   1.000  C
  C39      1.0000 0.74810  0.39940  0.30710  Biso   1.000  C
  C40      1.0000 0.25190  0.89940  0.19290  Biso   1.000  C
  N25      1.0000 0.15040  0.60920  0.59770  Biso   1.000  N
  N26      1.0000 0.84960  0.10920  0.90230  Biso   1.000  N
  N27      1.0000 0.84960  0.39080  0.40230  Biso   1.000  N
  N28      1.0000 0.15040  0.89080  0.09770  Biso   1.000  N
  N29      1.0000 0.36350  0.20480  0.46760  Biso   1.000  N
  N30      1.0000 0.63650  0.70480  0.03240  Biso   1.000  N
  N31      1.0000 0.63650  0.79520  0.53240  Biso   1.000  N
  N32      1.0000 0.36350  0.29520  0.96760  Biso   1.000  N
  C41      1.0000 0.43320  0.13470  0.53010  Biso   1.000  C
  C42      1.0000 0.56680  0.63470  0.96990  Biso   1.000  C
  C43      1.0000 0.56680  0.86530  0.46990  Biso   1.000  C
  C44      1.0000 0.43320  0.36530  0.03010  Biso   1.000  C
  C45      1.0000 0.37410  0.05270  0.51100  Biso   1.000  C
  C46      1.0000 0.62590  0.55270  0.98900  Biso   1.000  C
  C47      1.0000 0.62590  0.94730  0.48900  Biso   1.000  C
  C48      1.0000 0.37410  0.44730  0.01100  Biso   1.000  C
  N33      1.0000 0.28310  0.06520  0.53560  Biso   1.000  N
  N34      1.0000 0.71690  0.56520  0.96440  Biso   1.000  N
  N35      1.0000 0.71690  0.93480  0.46440  Biso   1.000  N
  N36      1.0000 0.28310  0.43480  0.03560  Biso   1.000  N
  C49      1.0000 0.30550  0.06740  0.66000  Biso   1.000  C
  C50      1.0000 0.69450  0.56740  0.84000  Biso   1.000  C
  C51      1.0000 0.69450  0.93260  0.34000  Biso   1.000  C
  C52      1.0000 0.30550  0.43260  0.16000  Biso   1.000  C
  C53      1.0000 0.21350  0.10200  0.67430  Biso   1.000  C
  C54      1.0000 0.78650  0.60200  0.82570  Biso   1.000  C
  C55      1.0000 0.78650  0.89800  0.32570  Biso   1.000  C
  C56      1.0000 0.21350  0.39800  0.17430  Biso   1.000  C
  N37      1.0000 0.18600  0.18500  0.61120  Biso   1.000  N
  N38      1.0000 0.81400  0.68500  0.88880  Biso   1.000  N
  N39      1.0000 0.81400  0.81500  0.38880  Biso   1.000  N
  N40      1.0000 0.18600  0.31500  0.11120  Biso   1.000  N
  Cl1      1.0000 0.53737  0.64386  0.26334  Biso   1.000  Cl
  Cl2      1.0000 0.46263  0.14386  0.23666  Biso   1.000  Cl
  Cl3      1.0000 0.46263  0.35614  0.73666  Biso   1.000  Cl
  Cl4      1.0000 0.53737  0.85614  0.76334  Biso   1.000  Cl
  O1       1.0000 0.58350  0.57100  0.23670  Biso   1.000  O
  O2       1.0000 0.41650  0.07100  0.26330  Biso   1.000  O
  O3       1.0000 0.41650  0.42900  0.76330  Biso   1.000  O
  O4       1.0000 0.58350  0.92900  0.73670  Biso   1.000  O
  O5       1.0000 0.60150  0.71470  0.26820  Biso   1.000  O
  O6       1.0000 0.39850  0.21470  0.23180  Biso   1.000  O
  O7       1.0000 0.39850  0.28530  0.73180  Biso   1.000  O
  O8       1.0000 0.60150  0.78530  0.76820  Biso   1.000  O
  O9       1.0000 0.44040  0.65440  0.18020  Biso   1.000  O
  O10      1.0000 0.55960  0.15440  0.31980  Biso   1.000  O
  O11      1.0000 0.55960  0.34560  0.81980  Biso   1.000  O
  O12      1.0000 0.44040  0.84560  0.68020  Biso   1.000  O
  O13      1.0000 0.53880  0.62820  0.37270  Biso   1.000  O
  O14      1.0000 0.46120  0.12820  0.12730  Biso   1.000  O
  O15      1.0000 0.46120  0.37180  0.62730  Biso   1.000  O
  O16      1.0000 0.53880  0.87180  0.87270  Biso   1.000  O
  Cl5      1.0000 0.12960  0.64537  0.00838  Biso   1.000  Cl
  Cl6      1.0000 0.87040  0.14537  0.49162  Biso   1.000  Cl
  Cl7      1.0000 0.87040  0.35463  0.99162  Biso   1.000  Cl
  Cl8      1.0000 0.12960  0.85463  0.50838  Biso   1.000  Cl
  O17      1.0000 0.05570  0.70850  0.97260  Biso   1.000  O
  O18      1.0000 0.94430  0.20850  0.52740  Biso   1.000  O
  O19      1.0000 0.94430  0.29150  0.02740  Biso   1.000  O
  O20      1.0000 0.05570  0.79150  0.47260  Biso   1.000  O
  O21      1.0000 0.17650  0.64050  0.93520  Biso   1.000  O
  O22      1.0000 0.82350  0.14050  0.56480  Biso   1.000  O
  O23      1.0000 0.82350  0.35950  0.06480  Biso   1.000  O
  O24      1.0000 0.17650  0.85950  0.43520  Biso   1.000  O
  O25      1.0000 0.07760  0.56890  0.99630  Biso   1.000  O
  O26      1.0000 0.92240  0.06890  0.50370  Biso   1.000  O
  O27      1.0000 0.92240  0.43110  0.00370  Biso   1.000  O
  O28      1.0000 0.07760  0.93110  0.49630  Biso   1.000  O
  O29      1.0000 0.19680  0.65730  0.11600  Biso   1.000  O
  O30      1.0000 0.80320  0.15730  0.38400  Biso   1.000  O
  O31      1.0000 0.80320  0.34270  0.88400  Biso   1.000  O
  O32      1.0000 0.19680  0.84270  0.61600  Biso   1.000  O
  H1       1.0000 0.26500  0.37700  0.52900  Biso   1.000  H
  H2       1.0000 0.73500  0.87700  0.97100  Biso   1.000  H
  H3       1.0000 0.73500  0.62300  0.47100  Biso   1.000  H
  H4       1.0000 0.26500  0.12300  0.02900  Biso   1.000  H
  H5       1.0000 0.02500  0.27800  0.27100  Biso   1.000  H
  H6       1.0000 0.97500  0.77800  0.22900  Biso   1.000  H
  H7       1.0000 0.97500  0.72200  0.72900  Biso   1.000  H
  H8       1.0000 0.02500  0.22200  0.77100  Biso   1.000  H
  H9       1.0000 0.00800  0.43700  0.26800  Biso   1.000  H
  H10      1.0000 0.99200  0.93700  0.23200  Biso   1.000  H
  H11      1.0000 0.99200  0.56300  0.73200  Biso   1.000  H
  H12      1.0000 0.00800  0.06300  0.76800  Biso   1.000  H
  H13      1.0000 0.01100  0.60500  0.17900  Biso   1.000  H
  H14      1.0000 0.98900  0.10500  0.32100  Biso   1.000  H
  H15      1.0000 0.98900  0.39500  0.82100  Biso   1.000  H
  H16      1.0000 0.01100  0.89500  0.67900  Biso   1.000  H
  H17      1.0000 0.94900  0.59400  0.44700  Biso   1.000  H
  H18      1.0000 0.05100  0.09400  0.05300  Biso   1.000  H
  H19      1.0000 0.05100  0.40600  0.55300  Biso   1.000  H
  H20      1.0000 0.94900  0.90600  0.94700  Biso   1.000  H
  H21      1.0000 0.78000  0.62500  0.27600  Biso   1.000  H
  H22      1.0000 0.22000  0.12500  0.22400  Biso   1.000  H
  H23      1.0000 0.22000  0.37500  0.72400  Biso   1.000  H
  H24      1.0000 0.78000  0.87500  0.77600  Biso   1.000  H
  H25      1.0000 0.18300  0.71200  0.34700  Biso   1.000  H
  H26      1.0000 0.81700  0.21200  0.15300  Biso   1.000  H
  H27      1.0000 0.81700  0.28800  0.65300  Biso   1.000  H
  H28      1.0000 0.18300  0.78800  0.84700  Biso   1.000  H
  H29      1.0000 0.20000  0.65100  0.28000  Biso   1.000  H
  H30      1.0000 0.80000  0.15100  0.22000  Biso   1.000  H
  H31      1.0000 0.80000  0.34900  0.72000  Biso   1.000  H
  H32      1.0000 0.20000  0.84900  0.78000  Biso   1.000  H
  H33      1.0000 0.34400  0.72800  0.46800  Biso   1.000  H
  H34      1.0000 0.65600  0.22800  0.03200  Biso   1.000  H
  H35      1.0000 0.65600  0.27200  0.53200  Biso   1.000  H
  H36      1.0000 0.34400  0.77200  0.96800  Biso   1.000  H
  H37      1.0000 0.35600  0.69000  0.36300  Biso   1.000  H
  H38      1.0000 0.64400  0.19000  0.13700  Biso   1.000  H
  H39      1.0000 0.64400  0.31000  0.63700  Biso   1.000  H
  H40      1.0000 0.35600  0.81000  0.86300  Biso   1.000  H
  H41      1.0000 0.44600  0.61200  0.53300  Biso   1.000  H
  H42      1.0000 0.55400  0.11200  0.96700  Biso   1.000  H
  H43      1.0000 0.55400  0.38800  0.46700  Biso   1.000  H
  H44      1.0000 0.44600  0.88800  0.03300  Biso   1.000  H
  H45      1.0000 0.36200  0.55700  0.42400  Biso   1.000  H
  H46      1.0000 0.63800  0.05700  0.07600  Biso   1.000  H
  H47      1.0000 0.63800  0.44300  0.57600  Biso   1.000  H
  H48      1.0000 0.36200  0.94300  0.92400  Biso   1.000  H
  H49      1.0000 0.32800  0.52400  0.57100  Biso   1.000  H
  H50      1.0000 0.67200  0.02400  0.92900  Biso   1.000  H
  H51      1.0000 0.67200  0.47600  0.42900  Biso   1.000  H
  H52      1.0000 0.32800  0.97600  0.07100  Biso   1.000  H
  H53      1.0000 0.33200  0.68600  0.62800  Biso   1.000  H
  H54      1.0000 0.66800  0.18600  0.87200  Biso   1.000  H
  H55      1.0000 0.66800  0.31400  0.37200  Biso   1.000  H
  H56      1.0000 0.33200  0.81400  0.12800  Biso   1.000  H
  H57      1.0000 0.39300  0.60100  0.71700  Biso   1.000  H
  H58      1.0000 0.60700  0.10100  0.78300  Biso   1.000  H
  H59      1.0000 0.60700  0.39900  0.28300  Biso   1.000  H
  H60      1.0000 0.39300  0.89900  0.21700  Biso   1.000  H
  H61      1.0000 0.25900  0.63300  0.76100  Biso   1.000  H
  H62      1.0000 0.74100  0.13300  0.73900  Biso   1.000  H
  H63      1.0000 0.74100  0.36700  0.23900  Biso   1.000  H
  H64      1.0000 0.25900  0.86700  0.26100  Biso   1.000  H
  H65      1.0000 0.25800  0.54200  0.71800  Biso   1.000  H
  H66      1.0000 0.74200  0.04200  0.78200  Biso   1.000  H
  H67      1.0000 0.74200  0.45800  0.28200  Biso   1.000  H
  H68      1.0000 0.25800  0.95800  0.21800  Biso   1.000  H
  H69      1.0000 0.12500  0.65300  0.59200  Biso   1.000  H
  H70      1.0000 0.87500  0.15300  0.90800  Biso   1.000  H
  H71      1.0000 0.87500  0.34700  0.40800  Biso   1.000  H
  H72      1.0000 0.12500  0.84700  0.09200  Biso   1.000  H
  H73      1.0000 0.10700  0.57800  0.60500  Biso   1.000  H
  H74      1.0000 0.89300  0.07800  0.89500  Biso   1.000  H
  H75      1.0000 0.89300  0.42200  0.39500  Biso   1.000  H
  H76      1.0000 0.10700  0.92200  0.10500  Biso   1.000  H
  H77      1.0000 0.39000  0.25600  0.50200  Biso   1.000  H
  H78      1.0000 0.61000  0.75600  0.99800  Biso   1.000  H
  H79      1.0000 0.61000  0.74400  0.49800  Biso   1.000  H
  H80      1.0000 0.39000  0.24400  0.00200  Biso   1.000  H
  H81      1.0000 0.36000  0.20700  0.39400  Biso   1.000  H
  H82      1.0000 0.64000  0.70700  0.10600  Biso   1.000  H
  H83      1.0000 0.64000  0.79300  0.60600  Biso   1.000  H
  H84      1.0000 0.36000  0.29300  0.89400  Biso   1.000  H
  H85      1.0000 0.46100  0.14500  0.61400  Biso   1.000  H
  H86      1.0000 0.53900  0.64500  0.88600  Biso   1.000  H
  H87      1.0000 0.53900  0.85500  0.38600  Biso   1.000  H
  H88      1.0000 0.46100  0.35500  0.11400  Biso   1.000  H
  H89      1.0000 0.49700  0.13200  0.50700  Biso   1.000  H
  H90      1.0000 0.50300  0.63200  0.99300  Biso   1.000  H
  H91      1.0000 0.50300  0.86800  0.49300  Biso   1.000  H
  H92      1.0000 0.49700  0.36800  0.00700  Biso   1.000  H
  H93      1.0000 0.41800  0.01400  0.56300  Biso   1.000  H
  H94      1.0000 0.58200  0.51400  0.93700  Biso   1.000  H
  H95      1.0000 0.58200  0.98600  0.43700  Biso   1.000  H
  H96      1.0000 0.41800  0.48600  0.06300  Biso   1.000  H
  H97      1.0000 0.35200  0.03800  0.42700  Biso   1.000  H
  H98      1.0000 0.64800  0.53800  0.07300  Biso   1.000  H
  H99      1.0000 0.64800  0.96200  0.57300  Biso   1.000  H
  H100     1.0000 0.35200  0.46200  0.92700  Biso   1.000  H
  H101     1.0000 0.24200  0.02800  0.51500  Biso   1.000  H
  H102     1.0000 0.75800  0.52800  0.98500  Biso   1.000  H
  H103     1.0000 0.75800  0.97200  0.48500  Biso   1.000  H
  H104     1.0000 0.24200  0.47200  0.01500  Biso   1.000  H
  H105     1.0000 0.36500  0.10000  0.70100  Biso   1.000  H
  H106     1.0000 0.63500  0.60000  0.79900  Biso   1.000  H
  H107     1.0000 0.63500  0.90000  0.29900  Biso   1.000  H
  H108     1.0000 0.36500  0.40000  0.20100  Biso   1.000  H
  H109     1.0000 0.31500  0.01300  0.69300  Biso   1.000  H
  H110     1.0000 0.68500  0.51300  0.80700  Biso   1.000  H
  H111     1.0000 0.68500  0.98700  0.30700  Biso   1.000  H
  H112     1.0000 0.31500  0.48700  0.19300  Biso   1.000  H
  H113     1.0000 0.23200  0.11500  0.75300  Biso   1.000  H
  H114     1.0000 0.76800  0.61500  0.74700  Biso   1.000  H
  H115     1.0000 0.76800  0.88500  0.24700  Biso   1.000  H
  H116     1.0000 0.23200  0.38500  0.25300  Biso   1.000  H
  H117     1.0000 0.15500  0.06700  0.63600  Biso   1.000  H
  H118     1.0000 0.84500  0.56700  0.86400  Biso   1.000  H
  H119     1.0000 0.84500  0.93300  0.36400  Biso   1.000  H
  H120     1.0000 0.15500  0.43300  0.13600  Biso   1.000  H
  H121     1.0000 0.22000  0.22300  0.65400  Biso   1.000  H
  H122     1.0000 0.78000  0.72300  0.84600  Biso   1.000  H
  H123     1.0000 0.78000  0.77700  0.34600  Biso   1.000  H
  H124     1.0000 0.22000  0.27700  0.15400  Biso   1.000  H
  H125     1.0000 0.12100  0.19600  0.59100  Biso   1.000  H
  H126     1.0000 0.87900  0.69600  0.90900  Biso   1.000  H
  H127     1.0000 0.87900  0.80400  0.40900  Biso   1.000  H
  H128     1.0000 0.12100  0.30400  0.09100  Biso   1.000  H
