data_image0
_cell_length_a       11.4549
_cell_length_b       11.0447
_cell_length_c       17.089
_cell_angle_alpha    90
_cell_angle_beta     92.738
_cell_angle_gamma    90

_symmetry_space_group_name_H-M    "P 1"
_symmetry_int_tables_number       1

loop_
  _symmetry_equiv_pos_as_xyz
  'x, y, z'

loop_
  _atom_site_label
  _atom_site_occupancy
  _atom_site_fract_x
  _atom_site_fract_y
  _atom_site_fract_z
  _atom_site_thermal_displace_type
  _atom_site_B_iso_or_equiv
  _atom_site_type_symbol
  C1       1.0000 0.77770  0.29230  0.80560  Biso   1.000  C
  C2       1.0000 0.22230  0.79230  0.69440  Biso   1.000  C
  C3       1.0000 0.22230  0.70770  0.19440  Biso   1.000  C
  C4       1.0000 0.77770  0.20770  0.30560  Biso   1.000  C
  C5       1.0000 0.70060  0.22540  0.84890  Biso   1.000  C
  C6       1.0000 0.29940  0.72540  0.65110  Biso   1.000  C
  C7       1.0000 0.29940  0.77460  0.15110  Biso   1.000  C
  C8       1.0000 0.70060  0.27460  0.34890  Biso   1.000  C
  H1       1.0000 0.64350  0.26560  0.87570  Biso   1.000  H
  H2       1.0000 0.35650  0.76560  0.62430  Biso   1.000  H
  H3       1.0000 0.35650  0.73440  0.12430  Biso   1.000  H
  H4       1.0000 0.64350  0.23440  0.37570  Biso   1.000  H
  C9       1.0000 0.70710  0.09890  0.85280  Biso   1.000  C
  C10      1.0000 0.29290  0.59890  0.64720  Biso   1.000  C
  C11      1.0000 0.29290  0.90110  0.14720  Biso   1.000  C
  C12      1.0000 0.70710  0.40110  0.35280  Biso   1.000  C
  C13      1.0000 0.79490  0.04490  0.81340  Biso   1.000  C
  C14      1.0000 0.20510  0.54490  0.68660  Biso   1.000  C
  C15      1.0000 0.20510  0.95510  0.18660  Biso   1.000  C
  C16      1.0000 0.79490  0.45510  0.31340  Biso   1.000  C
  C17      1.0000 0.87560  0.10900  0.77070  Biso   1.000  C
  C18      1.0000 0.12440  0.60900  0.72930  Biso   1.000  C
  C19      1.0000 0.12440  0.89100  0.22930  Biso   1.000  C
  C20      1.0000 0.87560  0.39100  0.27070  Biso   1.000  C
  H5       1.0000 0.93510  0.06920  0.74580  Biso   1.000  H
  H6       1.0000 0.06490  0.56920  0.75420  Biso   1.000  H
  H7       1.0000 0.06490  0.93080  0.25420  Biso   1.000  H
  H8       1.0000 0.93510  0.43080  0.24580  Biso   1.000  H
  C21      1.0000 0.86440  0.23380  0.76650  Biso   1.000  C
  C22      1.0000 0.13560  0.73380  0.73350  Biso   1.000  C
  C23      1.0000 0.13560  0.76620  0.23350  Biso   1.000  C
  C24      1.0000 0.86440  0.26620  0.26650  Biso   1.000  C
  H9       1.0000 0.91540  0.27860  0.73730  Biso   1.000  H
  H10      1.0000 0.08460  0.77860  0.76270  Biso   1.000  H
  H11      1.0000 0.08460  0.72140  0.26270  Biso   1.000  H
  H12      1.0000 0.91540  0.22140  0.23730  Biso   1.000  H
  C25      1.0000 0.61580  0.03380  0.89940  Biso   1.000  C
  C26      1.0000 0.38420  0.53380  0.60060  Biso   1.000  C
  C27      1.0000 0.38420  0.96620  0.10060  Biso   1.000  C
  C28      1.0000 0.61580  0.46620  0.39940  Biso   1.000  C
  C29      1.0000 0.56090  0.25110  0.65040  Biso   1.000  C
  C30      1.0000 0.43910  0.75110  0.84960  Biso   1.000  C
  C31      1.0000 0.43910  0.74890  0.34960  Biso   1.000  C
  C32      1.0000 0.56090  0.24890  0.15040  Biso   1.000  C
  H13      1.0000 0.51290  0.29360  0.68310  Biso   1.000  H
  H14      1.0000 0.48710  0.79360  0.81690  Biso   1.000  H
  H15      1.0000 0.48710  0.70640  0.31690  Biso   1.000  H
  H16      1.0000 0.51290  0.20640  0.18310  Biso   1.000  H
  C33      1.0000 0.55600  0.12620  0.65010  Biso   1.000  C
  C34      1.0000 0.44400  0.62620  0.84990  Biso   1.000  C
  C35      1.0000 0.44400  0.87380  0.34990  Biso   1.000  C
  C36      1.0000 0.55600  0.37380  0.15010  Biso   1.000  C
  H17      1.0000 0.50670  0.08600  0.68310  Biso   1.000  H
  H18      1.0000 0.49330  0.58600  0.81690  Biso   1.000  H
  H19      1.0000 0.49330  0.91400  0.31690  Biso   1.000  H
  H20      1.0000 0.50670  0.41400  0.18310  Biso   1.000  H
  C37      1.0000 0.62480  0.06070  0.60050  Biso   1.000  C
  C38      1.0000 0.37520  0.56070  0.89950  Biso   1.000  C
  C39      1.0000 0.37520  0.93930  0.39950  Biso   1.000  C
  C40      1.0000 0.62480  0.43930  0.10050  Biso   1.000  C
  C41      1.0000 0.69820  0.12660  0.55320  Biso   1.000  C
  C42      1.0000 0.30180  0.62660  0.94680  Biso   1.000  C
  C43      1.0000 0.30180  0.87340  0.44680  Biso   1.000  C
  C44      1.0000 0.69820  0.37340  0.05320  Biso   1.000  C
  H21      1.0000 0.74540  0.08690  0.51860  Biso   1.000  H
  H22      1.0000 0.25460  0.58690  0.98140  Biso   1.000  H
  H23      1.0000 0.25460  0.91310  0.48140  Biso   1.000  H
  H24      1.0000 0.74540  0.41310  0.01860  Biso   1.000  H
  C45      1.0000 0.69970  0.25010  0.55820  Biso   1.000  C
  C46      1.0000 0.30030  0.75010  0.94180  Biso   1.000  C
  C47      1.0000 0.30030  0.74990  0.44180  Biso   1.000  C
  C48      1.0000 0.69970  0.24990  0.05820  Biso   1.000  C
  H25      1.0000 0.75040  0.29240  0.52730  Biso   1.000  H
  H26      1.0000 0.24960  0.79240  0.97270  Biso   1.000  H
  H27      1.0000 0.24960  0.70760  0.47270  Biso   1.000  H
  H28      1.0000 0.75040  0.20760  0.02730  Biso   1.000  H
  C49      1.0000 0.62330  0.92680  0.59940  Biso   1.000  C
  C50      1.0000 0.37670  0.42680  0.90060  Biso   1.000  C
  C51      1.0000 0.37670  0.07320  0.40060  Biso   1.000  C
  C52      1.0000 0.62330  0.57320  0.09940  Biso   1.000  C
  C53      1.0000 0.60960  0.86100  0.66730  Biso   1.000  C
  C54      1.0000 0.39040  0.36100  0.83270  Biso   1.000  C
  C55      1.0000 0.39040  0.13900  0.33270  Biso   1.000  C
  C56      1.0000 0.60960  0.63900  0.16730  Biso   1.000  C
  H29      1.0000 0.59600  0.90080  0.71400  Biso   1.000  H
  H30      1.0000 0.40400  0.40080  0.78600  Biso   1.000  H
  H31      1.0000 0.40400  0.09920  0.28600  Biso   1.000  H
  H32      1.0000 0.59600  0.59920  0.21400  Biso   1.000  H
  C57      1.0000 0.61620  0.73680  0.66560  Biso   1.000  C
  C58      1.0000 0.38380  0.23680  0.83440  Biso   1.000  C
  C59      1.0000 0.38380  0.26320  0.33440  Biso   1.000  C
  C60      1.0000 0.61620  0.76320  0.16560  Biso   1.000  C
  H33      1.0000 0.60980  0.69430  0.71220  Biso   1.000  H
  H34      1.0000 0.39020  0.19430  0.78780  Biso   1.000  H
  H35      1.0000 0.39020  0.30570  0.28780  Biso   1.000  H
  H36      1.0000 0.60980  0.80570  0.21220  Biso   1.000  H
  C61      1.0000 0.64310  0.73720  0.53380  Biso   1.000  C
  C62      1.0000 0.35690  0.23720  0.96620  Biso   1.000  C
  C63      1.0000 0.35690  0.26280  0.46620  Biso   1.000  C
  C64      1.0000 0.64310  0.76280  0.03380  Biso   1.000  C
  H37      1.0000 0.65410  0.69460  0.48780  Biso   1.000  H
  H38      1.0000 0.34590  0.19460  0.01220  Biso   1.000  H
  H39      1.0000 0.34590  0.30540  0.51220  Biso   1.000  H
  H40      1.0000 0.65410  0.80540  0.98780  Biso   1.000  H
  C65      1.0000 0.63970  0.86250  0.53040  Biso   1.000  C
  C66      1.0000 0.36030  0.36250  0.96960  Biso   1.000  C
  C67      1.0000 0.36030  0.13750  0.46960  Biso   1.000  C
  C68      1.0000 0.63970  0.63750  0.03040  Biso   1.000  C
  H41      1.0000 0.64820  0.90290  0.48330  Biso   1.000  H
  H42      1.0000 0.35180  0.40290  0.01670  Biso   1.000  H
  H43      1.0000 0.35180  0.09710  0.51670  Biso   1.000  H
  H44      1.0000 0.64820  0.59710  0.98330  Biso   1.000  H
  C69      1.0000 0.03950  0.22550  0.02260  Biso   1.000  C
  C70      1.0000 0.96050  0.72550  0.47740  Biso   1.000  C
  C71      1.0000 0.96050  0.77450  0.97740  Biso   1.000  C
  C72      1.0000 0.03950  0.27450  0.52260  Biso   1.000  C
  H45      1.0000 0.03160  0.16410  0.05930  Biso   1.000  H
  H46      1.0000 0.96840  0.66410  0.44070  Biso   1.000  H
  H47      1.0000 0.96840  0.83590  0.94070  Biso   1.000  H
  H48      1.0000 0.03160  0.33590  0.55930  Biso   1.000  H
  C73      1.0000 0.01340  0.34310  0.04450  Biso   1.000  C
  C74      1.0000 0.98660  0.84310  0.45550  Biso   1.000  C
  C75      1.0000 0.98660  0.65690  0.95550  Biso   1.000  C
  C76      1.0000 0.01340  0.15690  0.54450  Biso   1.000  C
  H49      1.0000 0.99430  0.35970  0.09570  Biso   1.000  H
  H50      1.0000 0.00570  0.85970  0.40430  Biso   1.000  H
  H51      1.0000 0.00570  0.64030  0.90430  Biso   1.000  H
  H52      1.0000 0.99430  0.14030  0.59570  Biso   1.000  H
  C77      1.0000 0.01600  0.43600  0.99000  Biso   1.000  C
  C78      1.0000 0.98400  0.93600  0.51000  Biso   1.000  C
  C79      1.0000 0.98400  0.56400  0.01000  Biso   1.000  C
  C80      1.0000 0.01600  0.06400  0.49000  Biso   1.000  C
  C81      1.0000 0.04880  0.40420  0.91650  Biso   1.000  C
  C82      1.0000 0.95120  0.90420  0.58350  Biso   1.000  C
  C83      1.0000 0.95120  0.59580  0.08350  Biso   1.000  C
  C84      1.0000 0.04880  0.09580  0.41650  Biso   1.000  C
  H53      1.0000 0.05090  0.46290  0.87760  Biso   1.000  H
  H54      1.0000 0.94910  0.96290  0.62240  Biso   1.000  H
  H55      1.0000 0.94910  0.53710  0.12240  Biso   1.000  H
  H56      1.0000 0.05090  0.03710  0.37760  Biso   1.000  H
  C85      1.0000 0.07900  0.28550  0.89950  Biso   1.000  C
  C86      1.0000 0.92100  0.78550  0.60050  Biso   1.000  C
  C87      1.0000 0.92100  0.71450  0.10050  Biso   1.000  C
  C88      1.0000 0.07900  0.21450  0.39950  Biso   1.000  C
  H57      1.0000 0.10280  0.26770  0.84950  Biso   1.000  H
  H58      1.0000 0.89720  0.76770  0.65050  Biso   1.000  H
  H59      1.0000 0.89720  0.73230  0.15050  Biso   1.000  H
  H60      1.0000 0.10280  0.23230  0.34950  Biso   1.000  H
  N1       1.0000 0.80840  0.91210  0.81670  Biso   1.000  N
  N2       1.0000 0.19160  0.41210  0.68330  Biso   1.000  N
  N3       1.0000 0.19160  0.08790  0.18330  Biso   1.000  N
  N4       1.0000 0.80840  0.58790  0.31670  Biso   1.000  N
  N5       1.0000 0.63230  0.31360  0.60520  Biso   1.000  N
  N6       1.0000 0.36770  0.81360  0.89480  Biso   1.000  N
  N7       1.0000 0.36770  0.68640  0.39480  Biso   1.000  N
  N8       1.0000 0.63230  0.18640  0.10520  Biso   1.000  N
  N9       1.0000 0.63130  0.67470  0.59970  Biso   1.000  N
  N10      1.0000 0.36870  0.17470  0.90030  Biso   1.000  N
  N11      1.0000 0.36870  0.32530  0.40030  Biso   1.000  N
  N12      1.0000 0.63130  0.82530  0.09970  Biso   1.000  N
  N13      1.0000 0.07540  0.19540  0.95200  Biso   1.000  N
  N14      1.0000 0.92460  0.69540  0.54800  Biso   1.000  N
  N15      1.0000 0.92460  0.80460  0.04800  Biso   1.000  N
  N16      1.0000 0.07540  0.30460  0.45200  Biso   1.000  N
  O1       1.0000 0.86690  0.49570  0.76490  Biso   1.000  O
  O2       1.0000 0.13310  0.99570  0.73510  Biso   1.000  O
  O3       1.0000 0.13310  0.50430  0.23510  Biso   1.000  O
  O4       1.0000 0.86690  0.00430  0.26490  Biso   1.000  O
  O5       1.0000 0.65840  0.47550  0.75390  Biso   1.000  O
  O6       1.0000 0.34160  0.97550  0.74610  Biso   1.000  O
  O7       1.0000 0.34160  0.52450  0.24610  Biso   1.000  O
  O8       1.0000 0.65840  0.02450  0.25390  Biso   1.000  O
  O9       1.0000 0.75490  0.49100  0.88220  Biso   1.000  O
  O10      1.0000 0.24510  0.99100  0.61780  Biso   1.000  O
  O11      1.0000 0.24510  0.50900  0.11780  Biso   1.000  O
  O12      1.0000 0.75490  0.00900  0.38220  Biso   1.000  O
  O13      1.0000 0.52600  0.00460  0.85910  Biso   1.000  O
  O14      1.0000 0.47400  0.50460  0.64090  Biso   1.000  O
  O15      1.0000 0.47400  0.99540  0.14090  Biso   1.000  O
  O16      1.0000 0.52600  0.49540  0.35910  Biso   1.000  O
  O17      1.0000 0.63570  0.02310  0.97030  Biso   1.000  O
  O18      1.0000 0.36430  0.52310  0.52970  Biso   1.000  O
  O19      1.0000 0.36430  0.97690  0.02970  Biso   1.000  O
  O20      1.0000 0.63570  0.47690  0.47030  Biso   1.000  O
  O21      1.0000 0.81160  0.49170  0.60610  Biso   1.000  O
  O22      1.0000 0.18840  0.99170  0.89390  Biso   1.000  O
  O23      1.0000 0.18840  0.50830  0.39390  Biso   1.000  O
  O24      1.0000 0.81160  0.00830  0.10610  Biso   1.000  O
  O25      1.0000 0.73820  0.85190  0.85140  Biso   1.000  O
  O26      1.0000 0.26180  0.35190  0.64860  Biso   1.000  O
  O27      1.0000 0.26180  0.14810  0.14860  Biso   1.000  O
  O28      1.0000 0.73820  0.64810  0.35140  Biso   1.000  O
  O29      1.0000 0.88880  0.86620  0.78350  Biso   1.000  O
  O30      1.0000 0.11120  0.36620  0.71650  Biso   1.000  O
  O31      1.0000 0.11120  0.13380  0.21650  Biso   1.000  O
  O32      1.0000 0.88880  0.63380  0.28350  Biso   1.000  O
  S1       1.0000 0.76325  0.45326  0.80248  Biso   1.000  S
  S2       1.0000 0.23675  0.95326  0.69752  Biso   1.000  S
  S3       1.0000 0.23675  0.54674  0.19752  Biso   1.000  S
  S4       1.0000 0.76325  0.04674  0.30248  Biso   1.000  S
  Cu1      1.0000 0.63413  0.49342  0.60435  Biso   1.000  Cu
  Cu2      1.0000 0.36587  0.99342  0.89565  Biso   1.000  Cu
  Cu3      1.0000 0.36587  0.50658  0.39565  Biso   1.000  Cu
  Cu4      1.0000 0.63413  0.00658  0.10435  Biso   1.000  Cu
  H61      1.0000 0.83300  0.48600  0.65300  Biso   1.000  H
  H62      1.0000 0.16700  0.98600  0.84700  Biso   1.000  H
  H63      1.0000 0.16700  0.51400  0.34700  Biso   1.000  H
  H64      1.0000 0.83300  0.01400  0.15300  Biso   1.000  H
  H65      1.0000 0.84300  0.54300  0.57600  Biso   1.000  H
  H66      1.0000 0.15700  0.04300  0.92400  Biso   1.000  H
  H67      1.0000 0.15700  0.45700  0.42400  Biso   1.000  H
  H68      1.0000 0.84300  0.95700  0.07600  Biso   1.000  H
