data_image0
_cell_length_a       4.707
_cell_length_b       9.444
_cell_length_c       10.901
_cell_angle_alpha    72.569
_cell_angle_beta     82.956
_cell_angle_gamma    76.766

_symmetry_space_group_name_H-M    "P 1"
_symmetry_int_tables_number       1

loop_
  _symmetry_equiv_pos_as_xyz
  'x, y, z'

loop_
  _atom_site_label
  _atom_site_occupancy
  _atom_site_fract_x
  _atom_site_fract_y
  _atom_site_fract_z
  _atom_site_thermal_displace_type
  _atom_site_B_iso_or_equiv
  _atom_site_type_symbol
  O1       1.0000 0.65520  0.22220  0.70450  Biso   1.000  O
  O2       1.0000 0.34480  0.77780  0.29550  Biso   1.000  O
  O3       1.0000 0.77400  0.99000  0.93210  Biso   1.000  O
  O4       1.0000 0.22600  0.01000  0.06790  Biso   1.000  O
  H1       1.0000 0.77090  0.02850  0.99900  Biso   1.000  H
  H2       1.0000 0.22910  0.97150  0.00100  Biso   1.000  H
  H3       1.0000 0.73370  0.06380  0.86520  Biso   1.000  H
  H4       1.0000 0.26630  0.93620  0.13480  Biso   1.000  H
  Cu1      1.0000 0.50000  0.50000  0.50000  Biso   1.000  Cu
  C1       1.0000 0.37130  0.06090  0.66760  Biso   1.000  C
  C2       1.0000 0.62870  0.93910  0.33240  Biso   1.000  C
  H5       1.0000 0.53350  0.98460  0.65190  Biso   1.000  H
  H6       1.0000 0.46650  0.01540  0.34810  Biso   1.000  H
  H7       1.0000 0.21850  0.07310  0.61220  Biso   1.000  H
  H8       1.0000 0.78150  0.92690  0.38780  Biso   1.000  H
  H9       1.0000 0.29950  0.03070  0.75590  Biso   1.000  H
  H10      1.0000 0.70050  0.96930  0.24410  Biso   1.000  H
  C3       1.0000 0.46950  0.20910  0.64050  Biso   1.000  C
  C4       1.0000 0.53050  0.79090  0.35950  Biso   1.000  C
  C5       1.0000 0.21410  0.70700  0.66310  Biso   1.000  C
  C6       1.0000 0.78590  0.29300  0.33690  Biso   1.000  C
  H11      1.0000 0.32490  0.77970  0.62210  Biso   1.000  H
  H12      1.0000 0.67510  0.22030  0.37790  Biso   1.000  H
  C7       1.0000 0.01880  0.71510  0.76220  Biso   1.000  C
  C8       1.0000 0.98120  0.28490  0.23780  Biso   1.000  C
  H13      1.0000 0.96990  0.79280  0.80170  Biso   1.000  H
  H14      1.0000 0.03010  0.20720  0.19830  Biso   1.000  H
  C9       1.0000 0.03730  0.50610  0.71140  Biso   1.000  C
  C10      1.0000 0.96270  0.49390  0.28860  Biso   1.000  C
  H15      1.0000 0.99940  0.41360  0.71160  Biso   1.000  H
  H16      1.0000 0.00060  0.58640  0.28840  Biso   1.000  H
  C11      1.0000 0.59710  0.63280  0.98000  Biso   1.000  C
  C12      1.0000 0.40290  0.36720  0.02000  Biso   1.000  C
  H17      1.0000 0.66210  0.72250  0.96660  Biso   1.000  H
  H18      1.0000 0.33790  0.27750  0.03340  Biso   1.000  H
  C13      1.0000 0.60060  0.41030  0.91890  Biso   1.000  C
  C14      1.0000 0.39940  0.58970  0.08110  Biso   1.000  C
  H19      1.0000 0.66830  0.34950  0.86400  Biso   1.000  H
  H20      1.0000 0.33170  0.65050  0.13600  Biso   1.000  H
  C15      1.0000 0.69860  0.54230  0.89840  Biso   1.000  C
  C16      1.0000 0.30140  0.45770  0.10160  Biso   1.000  C
  N1       1.0000 0.22680  0.57560  0.63100  Biso   1.000  N
  N2       1.0000 0.77320  0.42440  0.36900  Biso   1.000  N
  N3       1.0000 0.90430  0.58660  0.79410  Biso   1.000  N
  N4       1.0000 0.09570  0.41340  0.20590  Biso   1.000  N
  O5       1.0000 0.35070  0.31540  0.54760  Biso   1.000  O
  O6       1.0000 0.64930  0.68460  0.45240  Biso   1.000  O
