data_image0
_cell_length_a       11.1936
_cell_length_b       11.292
_cell_length_c       12.8844
_cell_angle_alpha    91.331
_cell_angle_beta     102.482
_cell_angle_gamma    90.512

_symmetry_space_group_name_H-M    "P 1"
_symmetry_int_tables_number       1

loop_
  _symmetry_equiv_pos_as_xyz
  'x, y, z'

loop_
  _atom_site_label
  _atom_site_occupancy
  _atom_site_fract_x
  _atom_site_fract_y
  _atom_site_fract_z
  _atom_site_thermal_displace_type
  _atom_site_B_iso_or_equiv
  _atom_site_type_symbol
  C1       1.0000 0.12530  0.83150  0.66910  Biso   1.000  C
  C2       1.0000 0.87470  0.16850  0.33090  Biso   1.000  C
  H1       1.0000 0.13190  0.88790  0.72390  Biso   1.000  H
  H2       1.0000 0.86810  0.11210  0.27610  Biso   1.000  H
  C3       1.0000 0.16340  0.71950  0.68130  Biso   1.000  C
  C4       1.0000 0.83660  0.28050  0.31870  Biso   1.000  C
  H3       1.0000 0.19990  0.68450  0.74470  Biso   1.000  H
  H4       1.0000 0.80010  0.31550  0.25530  Biso   1.000  H
  C5       1.0000 0.08520  0.75010  0.51330  Biso   1.000  C
  C6       1.0000 0.91480  0.24990  0.48670  Biso   1.000  C
  H5       1.0000 0.05960  0.73810  0.44010  Biso   1.000  H
  H6       1.0000 0.94040  0.26190  0.55990  Biso   1.000  H
  C7       1.0000 0.16240  0.54810  0.55220  Biso   1.000  C
  C8       1.0000 0.83760  0.45190  0.44780  Biso   1.000  C
  C9       1.0000 0.20840  0.46730  0.62960  Biso   1.000  C
  C10      1.0000 0.79160  0.53270  0.37040  Biso   1.000  C
  H7       1.0000 0.22250  0.48690  0.70180  Biso   1.000  H
  H8       1.0000 0.77750  0.51310  0.29820  Biso   1.000  H
  C11      1.0000 0.23190  0.35610  0.59310  Biso   1.000  C
  C12      1.0000 0.76810  0.64390  0.40690  Biso   1.000  C
  H9       1.0000 0.26360  0.29890  0.64190  Biso   1.000  H
  H10      1.0000 0.73640  0.70110  0.35810  Biso   1.000  H
  C13      1.0000 0.20980  0.32760  0.48720  Biso   1.000  C
  C14      1.0000 0.79020  0.67240  0.51280  Biso   1.000  C
  H11      1.0000 0.22360  0.25180  0.46280  Biso   1.000  H
  H12      1.0000 0.77640  0.74820  0.53720  Biso   1.000  H
  C15      1.0000 0.16680  0.41510  0.41880  Biso   1.000  C
  C16      1.0000 0.83320  0.58490  0.58120  Biso   1.000  C
  N1       1.0000 0.14780  0.39570  0.30730  Biso   1.000  N
  N2       1.0000 0.85220  0.60430  0.69270  Biso   1.000  N
  C17      1.0000 0.14740  0.32090  0.15000  Biso   1.000  C
  C18      1.0000 0.85260  0.67910  0.85000  Biso   1.000  C
  H13      1.0000 0.16080  0.27150  0.09510  Biso   1.000  H
  H14      1.0000 0.83920  0.72850  0.90490  Biso   1.000  H
  C19      1.0000 0.08840  0.46790  0.23200  Biso   1.000  C
  C20      1.0000 0.91160  0.53210  0.76800  Biso   1.000  C
  H15      1.0000 0.05360  0.53930  0.24640  Biso   1.000  H
  H16      1.0000 0.94640  0.46070  0.75360  Biso   1.000  H
  C21      1.0000 0.17420  0.25750  0.84380  Biso   1.000  C
  C22      1.0000 0.82580  0.74250  0.15620  Biso   1.000  C
  H17      1.0000 0.12000  0.23760  0.77700  Biso   1.000  H
  H18      1.0000 0.88000  0.76240  0.22300  Biso   1.000  H
  H19      1.0000 0.17550  0.19330  0.89150  Biso   1.000  H
  H20      1.0000 0.82450  0.80670  0.10850  Biso   1.000  H
  H21      1.0000 0.25520  0.27130  0.83260  Biso   1.000  H
  H22      1.0000 0.74480  0.72870  0.16740  Biso   1.000  H
  C23      1.0000 0.13080  0.36620  0.89040  Biso   1.000  C
  C24      1.0000 0.86920  0.63380  0.10960  Biso   1.000  C
  C25      1.0000 0.59290  0.37580  0.73150  Biso   1.000  C
  C26      1.0000 0.40710  0.62420  0.26850  Biso   1.000  C
  H23      1.0000 0.52180  0.37050  0.67450  Biso   1.000  H
  H24      1.0000 0.47820  0.62950  0.32550  Biso   1.000  H
  H25      1.0000 0.63010  0.29940  0.74150  Biso   1.000  H
  H26      1.0000 0.36990  0.70060  0.25850  Biso   1.000  H
  H27      1.0000 0.65040  0.43170  0.71430  Biso   1.000  H
  H28      1.0000 0.34960  0.56830  0.28570  Biso   1.000  H
  C27      1.0000 0.55600  0.41620  0.83260  Biso   1.000  C
  C28      1.0000 0.44400  0.58380  0.16740  Biso   1.000  C
  C29      1.0000 0.50000  0.82060  0.86860  Biso   1.000  C
  C30      1.0000 0.50000  0.17940  0.13140  Biso   1.000  C
  H29      1.0000 0.55040  0.81660  0.81710  Biso   1.000  H
  H30      1.0000 0.44960  0.18340  0.18290  Biso   1.000  H
  H31      1.0000 0.53410  0.87790  0.92350  Biso   1.000  H
  H32      1.0000 0.46590  0.12210  0.07650  Biso   1.000  H
  H33      1.0000 0.41890  0.84360  0.83450  Biso   1.000  H
  H34      1.0000 0.58110  0.15640  0.16550  Biso   1.000  H
  C31      1.0000 0.49470  0.70060  0.91700  Biso   1.000  C
  C32      1.0000 0.50530  0.29940  0.08300  Biso   1.000  C
  C33      1.0000 0.86390  0.08060  0.76360  Biso   1.000  C
  C34      1.0000 0.13610  0.91940  0.23640  Biso   1.000  C
  H35      1.0000 0.85360  0.16480  0.76180  Biso   1.000  H
  H36      1.0000 0.14640  0.83520  0.23820  Biso   1.000  H
  H37      1.0000 0.93120  0.06180  0.82050  Biso   1.000  H
  H38      1.0000 0.06880  0.93820  0.17950  Biso   1.000  H
  H39      1.0000 0.79050  0.04320  0.77490  Biso   1.000  H
  H40      1.0000 0.20950  0.95680  0.22510  Biso   1.000  H
  C35      1.0000 0.88930  0.03660  0.66000  Biso   1.000  C
  C36      1.0000 0.11070  0.96340  0.34000  Biso   1.000  C
  C37      1.0000 0.44010  0.10380  0.78590  Biso   1.000  C
  C38      1.0000 0.55990  0.89620  0.21410  Biso   1.000  C
  H41      1.0000 0.51140  0.08800  0.83990  Biso   1.000  H
  H42      1.0000 0.48860  0.91200  0.16010  Biso   1.000  H
  H43      1.0000 0.37140  0.06020  0.79960  Biso   1.000  H
  H44      1.0000 0.62860  0.93980  0.20040  Biso   1.000  H
  H45      1.0000 0.42330  0.18700  0.78650  Biso   1.000  H
  H46      1.0000 0.57670  0.81300  0.21350  Biso   1.000  H
  C39      1.0000 0.46240  0.06630  0.67840  Biso   1.000  C
  C40      1.0000 0.53760  0.93370  0.32160  Biso   1.000  C
  C41      1.0000 0.52430  0.21310  0.45190  Biso   1.000  C
  C42      1.0000 0.47570  0.78690  0.54810  Biso   1.000  C
  C43      1.0000 0.53540  0.34120  0.42330  Biso   1.000  C
  C44      1.0000 0.46460  0.65880  0.57670  Biso   1.000  C
  H47      1.0000 0.54750  0.34500  0.35190  Biso   1.000  H
  H48      1.0000 0.45250  0.65500  0.64810  Biso   1.000  H
  H49      1.0000 0.60380  0.37800  0.47150  Biso   1.000  H
  H50      1.0000 0.39620  0.62200  0.52850  Biso   1.000  H
  H51      1.0000 0.46180  0.38190  0.42840  Biso   1.000  H
  H52      1.0000 0.53820  0.61810  0.57160  Biso   1.000  H
  Cu1      1.0000 0.00000  0.00000  0.50000  Biso   1.000  Cu
  Cu2      1.0000 0.61807  0.99751  0.54080  Biso   1.000  Cu
  Cu3      1.0000 0.38193  0.00249  0.45920  Biso   1.000  Cu
  Cu4      1.0000 0.00000  0.50000  0.00000  Biso   1.000  Cu
  Cu5      1.0000 0.38444  0.48620  0.95444  Biso   1.000  Cu
  Cu6      1.0000 0.61556  0.51380  0.04556  Biso   1.000  Cu
  N3       1.0000 0.07500  0.85090  0.56400  Biso   1.000  N
  N4       1.0000 0.92500  0.14910  0.43600  Biso   1.000  N
  N5       1.0000 0.13770  0.66640  0.58110  Biso   1.000  N
  N6       1.0000 0.86230  0.33360  0.41890  Biso   1.000  N
  N7       1.0000 0.14260  0.52520  0.44770  Biso   1.000  N
  N8       1.0000 0.85740  0.47480  0.55230  Biso   1.000  N
  C45      1.0000 0.18670  0.29850  0.25410  Biso   1.000  C
  C46      1.0000 0.81330  0.70150  0.74590  Biso   1.000  C
  N9       1.0000 0.08550  0.42480  0.13520  Biso   1.000  N
  N10      1.0000 0.91450  0.57520  0.86480  Biso   1.000  N
  O1       1.0000 0.02980  0.35760  0.92060  Biso   1.000  O
  O2       1.0000 0.97020  0.64240  0.07940  Biso   1.000  O
  O3       1.0000 0.18880  0.46150  0.89900  Biso   1.000  O
  O4       1.0000 0.81120  0.53850  0.10100  Biso   1.000  O
  O5       1.0000 0.44380  0.42060  0.83130  Biso   1.000  O
  O6       1.0000 0.55620  0.57940  0.16870  Biso   1.000  O
  O7       1.0000 0.64120  0.44220  0.91120  Biso   1.000  O
  O8       1.0000 0.35880  0.55780  0.08880  Biso   1.000  O
  O9       1.0000 0.39540  0.64310  0.89580  Biso   1.000  O
  O10      1.0000 0.60460  0.35690  0.10420  Biso   1.000  O
  O11      1.0000 0.59160  0.66690  0.97590  Biso   1.000  O
  O12      1.0000 0.40840  0.33310  0.02410  Biso   1.000  O
  O13      1.0000 0.99310  0.06360  0.64140  Biso   1.000  O
  O14      1.0000 0.00690  0.93640  0.35860  Biso   1.000  O
  O15      1.0000 0.81370  0.97560  0.59660  Biso   1.000  O
  O16      1.0000 0.18630  0.02440  0.40340  Biso   1.000  O
  O17      1.0000 0.57070  0.04980  0.67290  Biso   1.000  O
  O18      1.0000 0.42930  0.95020  0.32710  Biso   1.000  O
  O19      1.0000 0.37070  0.05510  0.60290  Biso   1.000  O
  O20      1.0000 0.62930  0.94490  0.39710  Biso   1.000  O
  O21      1.0000 0.62030  0.16400  0.49860  Biso   1.000  O
  O22      1.0000 0.37970  0.83600  0.50140  Biso   1.000  O
  O23      1.0000 0.42120  0.16630  0.42650  Biso   1.000  O
  O24      1.0000 0.57880  0.83370  0.57350  Biso   1.000  O
  C47      1.0000 0.78800  0.06200  0.02400  Biso   1.000  C
  C48      1.0000 0.21200  0.93800  0.97600  Biso   1.000  C
  H53      1.0000 0.74400  0.05090  0.07930  Biso   1.000  H
  H54      1.0000 0.25600  0.94910  0.92070  Biso   1.000  H
  H55      1.0000 0.86210  0.01750  0.03910  Biso   1.000  H
  H56      1.0000 0.13790  0.98250  0.96090  Biso   1.000  H
  H57      1.0000 0.73830  0.03520  0.95720  Biso   1.000  H
  H58      1.0000 0.26170  0.96480  0.04280  Biso   1.000  H
  O25      1.0000 0.81840  0.18950  0.01870  Biso   1.000  O
  O26      1.0000 0.18160  0.81050  0.98130  Biso   1.000  O
  H59      1.0000 0.87080  0.22880  0.99450  Biso   1.000  H
  H60      1.0000 0.12920  0.77120  0.00550  Biso   1.000  H
