data_image0
_cell_length_a       9.961
_cell_length_b       5.306
_cell_length_c       22.621
_cell_angle_alpha    90
_cell_angle_beta     96.81
_cell_angle_gamma    90

_symmetry_space_group_name_H-M    "P 1"
_symmetry_int_tables_number       1

loop_
  _symmetry_equiv_pos_as_xyz
  'x, y, z'

loop_
  _atom_site_label
  _atom_site_occupancy
  _atom_site_fract_x
  _atom_site_fract_y
  _atom_site_fract_z
  _atom_site_thermal_displace_type
  _atom_site_B_iso_or_equiv
  _atom_site_type_symbol
  Cu1      1.0000 0.06008  0.34315  0.05606  Biso   1.000  Cu
  Cu2      1.0000 0.93992  0.84315  0.44394  Biso   1.000  Cu
  Cu3      1.0000 0.93992  0.65685  0.94394  Biso   1.000  Cu
  Cu4      1.0000 0.06008  0.15685  0.55606  Biso   1.000  Cu
  O1       1.0000 0.51090  0.56460  0.21100  Biso   1.000  O
  O2       1.0000 0.48910  0.06460  0.28900  Biso   1.000  O
  O3       1.0000 0.48910  0.43540  0.78900  Biso   1.000  O
  O4       1.0000 0.51090  0.93540  0.71100  Biso   1.000  O
  O5       1.0000 0.67050  0.27590  0.19840  Biso   1.000  O
  O6       1.0000 0.32950  0.77590  0.30160  Biso   1.000  O
  O7       1.0000 0.32950  0.72410  0.80160  Biso   1.000  O
  O8       1.0000 0.67050  0.22410  0.69840  Biso   1.000  O
  N1       1.0000 0.24710  0.21800  0.08080  Biso   1.000  N
  N2       1.0000 0.75290  0.71800  0.41920  Biso   1.000  N
  N3       1.0000 0.75290  0.78200  0.91920  Biso   1.000  N
  N4       1.0000 0.24710  0.28200  0.58080  Biso   1.000  N
  C1       1.0000 0.33160  0.32690  0.12390  Biso   1.000  C
  C2       1.0000 0.66840  0.82690  0.37610  Biso   1.000  C
  C3       1.0000 0.66840  0.67310  0.87610  Biso   1.000  C
  C4       1.0000 0.33160  0.17310  0.62390  Biso   1.000  C
  C5       1.0000 0.46340  0.24220  0.13900  Biso   1.000  C
  C6       1.0000 0.53660  0.74220  0.36100  Biso   1.000  C
  C7       1.0000 0.53660  0.75780  0.86100  Biso   1.000  C
  C8       1.0000 0.46340  0.25780  0.63900  Biso   1.000  C
  C9       1.0000 0.50610  0.03670  0.10950  Biso   1.000  C
  C10      1.0000 0.49390  0.53670  0.39050  Biso   1.000  C
  C11      1.0000 0.49390  0.96330  0.89050  Biso   1.000  C
  C12      1.0000 0.50610  0.46330  0.60950  Biso   1.000  C
  C13      1.0000 0.42020  0.92300  0.06460  Biso   1.000  C
  C14      1.0000 0.57980  0.42300  0.43540  Biso   1.000  C
  C15      1.0000 0.57980  0.07700  0.93540  Biso   1.000  C
  C16      1.0000 0.42020  0.57700  0.56460  Biso   1.000  C
  C17      1.0000 0.29040  0.02080  0.05130  Biso   1.000  C
  C18      1.0000 0.70960  0.52080  0.44870  Biso   1.000  C
  C19      1.0000 0.70960  0.97920  0.94870  Biso   1.000  C
  C20      1.0000 0.29040  0.47920  0.55130  Biso   1.000  C
  C21      1.0000 0.54900  0.38070  0.18660  Biso   1.000  C
  C22      1.0000 0.45100  0.88070  0.31340  Biso   1.000  C
  C23      1.0000 0.45100  0.61930  0.81340  Biso   1.000  C
  C24      1.0000 0.54900  0.11930  0.68660  Biso   1.000  C
  C25      1.0000 0.75900  0.38080  0.24780  Biso   1.000  C
  C26      1.0000 0.24100  0.88080  0.25220  Biso   1.000  C
  C27      1.0000 0.24100  0.61920  0.75220  Biso   1.000  C
  C28      1.0000 0.75900  0.11920  0.74780  Biso   1.000  C
  C29      1.0000 0.83090  0.59930  0.23040  Biso   1.000  C
  C30      1.0000 0.16910  0.09930  0.26960  Biso   1.000  C
  C31      1.0000 0.16910  0.40070  0.76960  Biso   1.000  C
  C32      1.0000 0.83090  0.90070  0.73040  Biso   1.000  C
  N5       1.0000 0.88490  0.47500  0.01680  Biso   1.000  N
  N6       1.0000 0.11510  0.97500  0.48320  Biso   1.000  N
  N7       1.0000 0.11510  0.52500  0.98320  Biso   1.000  N
  N8       1.0000 0.88490  0.02500  0.51680  Biso   1.000  N
  N9       1.0000 0.78180  0.50050  0.03900  Biso   1.000  N
  N10      1.0000 0.21820  0.00050  0.46100  Biso   1.000  N
  N11      1.0000 0.21820  0.49950  0.96100  Biso   1.000  N
  N12      1.0000 0.78180  0.99950  0.53900  Biso   1.000  N
  N13      1.0000 0.68230  0.52360  0.05920  Biso   1.000  N
  N14      1.0000 0.31770  0.02360  0.44080  Biso   1.000  N
  N15      1.0000 0.31770  0.47640  0.94080  Biso   1.000  N
  N16      1.0000 0.68230  0.97640  0.55920  Biso   1.000  N
  N17      1.0000 0.07360  0.67230  0.12050  Biso   1.000  N
  N18      1.0000 0.92640  0.17230  0.37950  Biso   1.000  N
  N19      1.0000 0.92640  0.32770  0.87950  Biso   1.000  N
  N20      1.0000 0.07360  0.82770  0.62050  Biso   1.000  N
  N21      1.0000 0.02420  0.86470  0.10640  Biso   1.000  N
  N22      1.0000 0.97580  0.36470  0.39360  Biso   1.000  N
  N23      1.0000 0.97580  0.13530  0.89360  Biso   1.000  N
  N24      1.0000 0.02420  0.63530  0.60640  Biso   1.000  N
  N25      1.0000 0.97120  0.05990  0.09210  Biso   1.000  N
  N26      1.0000 0.02880  0.55990  0.40790  Biso   1.000  N
  N27      1.0000 0.02880  0.94010  0.90790  Biso   1.000  N
  N28      1.0000 0.97120  0.44010  0.59210  Biso   1.000  N
  H1       1.0000 0.29990  0.46740  0.14510  Biso   1.000  H
  H2       1.0000 0.70010  0.96740  0.35490  Biso   1.000  H
  H3       1.0000 0.70010  0.53260  0.85490  Biso   1.000  H
  H4       1.0000 0.29990  0.03260  0.64510  Biso   1.000  H
  H5       1.0000 0.59560  0.97110  0.12010  Biso   1.000  H
  H6       1.0000 0.40440  0.47110  0.37990  Biso   1.000  H
  H7       1.0000 0.40440  0.02890  0.87990  Biso   1.000  H
  H8       1.0000 0.59560  0.52890  0.62010  Biso   1.000  H
  H9       1.0000 0.44920  0.78060  0.04320  Biso   1.000  H
  H10      1.0000 0.55080  0.28060  0.45680  Biso   1.000  H
  H11      1.0000 0.55080  0.21940  0.95680  Biso   1.000  H
  H12      1.0000 0.44920  0.71940  0.54320  Biso   1.000  H
  H13      1.0000 0.23000  0.94510  0.02010  Biso   1.000  H
  H14      1.0000 0.77000  0.44510  0.47990  Biso   1.000  H
  H15      1.0000 0.77000  0.05490  0.97990  Biso   1.000  H
  H16      1.0000 0.23000  0.55490  0.52010  Biso   1.000  H
  H17      1.0000 0.70630  0.42910  0.27880  Biso   1.000  H
  H18      1.0000 0.29370  0.92910  0.22120  Biso   1.000  H
  H19      1.0000 0.29370  0.57090  0.72120  Biso   1.000  H
  H20      1.0000 0.70630  0.07090  0.77880  Biso   1.000  H
  H21      1.0000 0.82370  0.25510  0.26260  Biso   1.000  H
  H22      1.0000 0.17630  0.75510  0.23740  Biso   1.000  H
  H23      1.0000 0.17630  0.74490  0.73740  Biso   1.000  H
  H24      1.0000 0.82370  0.24490  0.76260  Biso   1.000  H
  H25      1.0000 0.88490  0.51400  0.20290  Biso   1.000  H
  H26      1.0000 0.11510  0.01400  0.29710  Biso   1.000  H
  H27      1.0000 0.11510  0.48600  0.79710  Biso   1.000  H
  H28      1.0000 0.88490  0.98600  0.70290  Biso   1.000  H
  H29      1.0000 0.88960  0.64980  0.26620  Biso   1.000  H
  H30      1.0000 0.11040  0.14980  0.23380  Biso   1.000  H
  H31      1.0000 0.11040  0.35020  0.73380  Biso   1.000  H
  H32      1.0000 0.88960  0.85020  0.76620  Biso   1.000  H
  H33      1.0000 0.78810  0.74910  0.21100  Biso   1.000  H
  H34      1.0000 0.21190  0.24910  0.28900  Biso   1.000  H
  H35      1.0000 0.21190  0.25090  0.78900  Biso   1.000  H
  H36      1.0000 0.78810  0.75090  0.71100  Biso   1.000  H
