data_image0
_cell_length_a       11.342
_cell_length_b       6.4613
_cell_length_c       15.269
_cell_angle_alpha    90
_cell_angle_beta     116.55
_cell_angle_gamma    90

_symmetry_space_group_name_H-M    "P 1"
_symmetry_int_tables_number       1

loop_
  _symmetry_equiv_pos_as_xyz
  'x, y, z'

loop_
  _atom_site_label
  _atom_site_occupancy
  _atom_site_fract_x
  _atom_site_fract_y
  _atom_site_fract_z
  _atom_site_thermal_displace_type
  _atom_site_B_iso_or_equiv
  _atom_site_type_symbol
  Cu1      1.0000 0.11891  0.96724  0.57384  Biso   1.000  Cu
  Cu2      1.0000 0.88109  0.46724  0.92616  Biso   1.000  Cu
  Cu3      1.0000 0.88109  0.03276  0.42616  Biso   1.000  Cu
  Cu4      1.0000 0.11891  0.53276  0.07384  Biso   1.000  Cu
  O1       1.0000 0.12870  0.77160  0.47960  Biso   1.000  O
  O2       1.0000 0.87130  0.27160  0.02040  Biso   1.000  O
  O3       1.0000 0.87130  0.22840  0.52040  Biso   1.000  O
  O4       1.0000 0.12870  0.72840  0.97960  Biso   1.000  O
  O5       1.0000 0.92910  0.81890  0.35610  Biso   1.000  O
  O6       1.0000 0.07090  0.31890  0.14390  Biso   1.000  O
  O7       1.0000 0.07090  0.18110  0.64390  Biso   1.000  O
  O8       1.0000 0.92910  0.68110  0.85610  Biso   1.000  O
  O9       1.0000 0.19210  0.18070  0.52150  Biso   1.000  O
  O10      1.0000 0.80790  0.68070  0.97850  Biso   1.000  O
  O11      1.0000 0.80790  0.81930  0.47850  Biso   1.000  O
  O12      1.0000 0.19210  0.31930  0.02150  Biso   1.000  O
  O13      1.0000 0.99210  0.23220  0.39750  Biso   1.000  O
  O14      1.0000 0.00790  0.73220  0.10250  Biso   1.000  O
  O15      1.0000 0.00790  0.76780  0.60250  Biso   1.000  O
  O16      1.0000 0.99210  0.26780  0.89750  Biso   1.000  O
  N1       1.0000 0.29130  0.82340  0.69640  Biso   1.000  N
  N2       1.0000 0.70870  0.32340  0.80360  Biso   1.000  N
  N3       1.0000 0.70870  0.17660  0.30360  Biso   1.000  N
  N4       1.0000 0.29130  0.67660  0.19640  Biso   1.000  N
  C1       1.0000 0.27590  0.62080  0.70790  Biso   1.000  C
  C2       1.0000 0.72410  0.12080  0.79210  Biso   1.000  C
  C3       1.0000 0.72410  0.37920  0.29210  Biso   1.000  C
  C4       1.0000 0.27590  0.87920  0.20790  Biso   1.000  C
  C5       1.0000 0.34800  0.51290  0.79180  Biso   1.000  C
  C6       1.0000 0.65200  0.01290  0.70820  Biso   1.000  C
  C7       1.0000 0.65200  0.48710  0.20820  Biso   1.000  C
  C8       1.0000 0.34800  0.98710  0.29180  Biso   1.000  C
  C9       1.0000 0.44700  0.61240  0.87070  Biso   1.000  C
  C10      1.0000 0.55300  0.11240  0.62930  Biso   1.000  C
  C11      1.0000 0.55300  0.38760  0.12930  Biso   1.000  C
  C12      1.0000 0.44700  0.88760  0.37070  Biso   1.000  C
  C13      1.0000 0.46740  0.82050  0.85930  Biso   1.000  C
  C14      1.0000 0.53260  0.32050  0.64070  Biso   1.000  C
  C15      1.0000 0.53260  0.17950  0.14070  Biso   1.000  C
  C16      1.0000 0.46740  0.67950  0.35930  Biso   1.000  C
  C17      1.0000 0.38840  0.91440  0.77230  Biso   1.000  C
  C18      1.0000 0.61160  0.41440  0.72770  Biso   1.000  C
  C19      1.0000 0.61160  0.08560  0.22770  Biso   1.000  C
  C20      1.0000 0.38840  0.58560  0.27230  Biso   1.000  C
  C21      1.0000 0.52720  0.49490  0.96530  Biso   1.000  C
  C22      1.0000 0.47280  0.99490  0.53470  Biso   1.000  C
  C23      1.0000 0.47280  0.50510  0.03470  Biso   1.000  C
  C24      1.0000 0.52720  0.00510  0.46530  Biso   1.000  C
  C25      1.0000 0.03924  0.73493  0.39513  Biso   1.000  C
  C26      1.0000 0.96076  0.23493  0.10487  Biso   1.000  C
  C27      1.0000 0.96076  0.26507  0.60487  Biso   1.000  C
  C28      1.0000 0.03924  0.76507  0.89513  Biso   1.000  C
  C29      1.0000 0.07290  0.58240  0.33461  Biso   1.000  C
  C30      1.0000 0.92710  0.08240  0.16539  Biso   1.000  C
  C31      1.0000 0.92710  0.41760  0.66539  Biso   1.000  C
  C32      1.0000 0.07290  0.91760  0.83461  Biso   1.000  C
  C33      1.0000 0.16814  0.41667  0.39428  Biso   1.000  C
  C34      1.0000 0.83186  0.91667  0.10572  Biso   1.000  C
  C35      1.0000 0.83186  0.58333  0.60572  Biso   1.000  C
  C36      1.0000 0.16814  0.08333  0.89428  Biso   1.000  C
  C37      1.0000 0.11519  0.26539  0.44304  Biso   1.000  C
  C38      1.0000 0.88481  0.76539  0.05695  Biso   1.000  C
  C39      1.0000 0.88481  0.73461  0.55695  Biso   1.000  C
  C40      1.0000 0.11519  0.23461  0.94304  Biso   1.000  C
  H1       1.0000 0.20859  0.54549  0.65231  Biso   1.000  H
  H2       1.0000 0.79141  0.04549  0.84769  Biso   1.000  H
  H3       1.0000 0.79141  0.45451  0.34769  Biso   1.000  H
  H4       1.0000 0.20859  0.95451  0.15231  Biso   1.000  H
  H5       1.0000 0.32990  0.36594  0.79625  Biso   1.000  H
  H6       1.0000 0.67010  0.86594  0.70375  Biso   1.000  H
  H7       1.0000 0.67010  0.63406  0.20375  Biso   1.000  H
  H8       1.0000 0.32990  0.13406  0.29625  Biso   1.000  H
  H9       1.0000 0.53694  0.89834  0.91235  Biso   1.000  H
  H10      1.0000 0.46306  0.39834  0.58765  Biso   1.000  H
  H11      1.0000 0.46306  0.10166  0.08765  Biso   1.000  H
  H12      1.0000 0.53694  0.60166  0.41235  Biso   1.000  H
  H13      1.0000 0.40496  0.06096  0.76544  Biso   1.000  H
  H14      1.0000 0.59504  0.56096  0.73456  Biso   1.000  H
  H15      1.0000 0.59504  0.93904  0.23456  Biso   1.000  H
  H16      1.0000 0.40496  0.43904  0.26544  Biso   1.000  H
  H17      1.0000 0.53552  0.34987  0.95024  Biso   1.000  H
  H18      1.0000 0.46448  0.84987  0.54976  Biso   1.000  H
  H19      1.0000 0.46448  0.65013  0.04976  Biso   1.000  H
  H20      1.0000 0.53552  0.15013  0.45024  Biso   1.000  H
  H21      1.0000 0.61770  0.54788  0.99600  Biso   1.000  H
  H22      1.0000 0.38230  0.04788  0.50400  Biso   1.000  H
  H23      1.0000 0.38230  0.45212  0.00400  Biso   1.000  H
  H24      1.0000 0.61770  0.95212  0.49600  Biso   1.000  H
  H25      1.0000 0.99190  0.51798  0.28587  Biso   1.000  H
  H26      1.0000 0.00810  0.01798  0.21413  Biso   1.000  H
  H27      1.0000 0.00810  0.48202  0.71413  Biso   1.000  H
  H28      1.0000 0.99190  0.98202  0.78587  Biso   1.000  H
  H29      1.0000 0.10914  0.65697  0.29618  Biso   1.000  H
  H30      1.0000 0.89086  0.15697  0.20382  Biso   1.000  H
  H31      1.0000 0.89086  0.34303  0.70382  Biso   1.000  H
  H32      1.0000 0.10914  0.84303  0.79618  Biso   1.000  H
  H33      1.0000 0.19944  0.34115  0.35304  Biso   1.000  H
  H34      1.0000 0.80056  0.84115  0.14696  Biso   1.000  H
  H35      1.0000 0.80056  0.65885  0.64696  Biso   1.000  H
  H36      1.0000 0.19944  0.15885  0.85304  Biso   1.000  H
  H37      1.0000 0.24855  0.48112  0.44380  Biso   1.000  H
  H38      1.0000 0.75145  0.98112  0.05620  Biso   1.000  H
  H39      1.0000 0.75145  0.51888  0.55620  Biso   1.000  H
  H40      1.0000 0.24855  0.01888  0.94380  Biso   1.000  H
