data_image0
_cell_length_a       15.563
_cell_length_b       6.4472
_cell_length_c       24.1
_cell_angle_alpha    90
_cell_angle_beta     116.913
_cell_angle_gamma    90

_symmetry_space_group_name_H-M    "P 1"
_symmetry_int_tables_number       1

loop_
  _symmetry_equiv_pos_as_xyz
  'x, y, z'

loop_
  _atom_site_label
  _atom_site_occupancy
  _atom_site_fract_x
  _atom_site_fract_y
  _atom_site_fract_z
  _atom_site_thermal_displace_type
  _atom_site_B_iso_or_equiv
  _atom_site_type_symbol
  Cu1      1.0000 0.17678  0.20595  0.19667  Biso   1.000  Cu
  Cu2      1.0000 0.82322  0.70595  0.30333  Biso   1.000  Cu
  Cu3      1.0000 0.82322  0.79405  0.80333  Biso   1.000  Cu
  Cu4      1.0000 0.17678  0.29405  0.69667  Biso   1.000  Cu
  Cu5      1.0000 0.32283  0.27343  0.30679  Biso   1.000  Cu
  Cu6      1.0000 0.67717  0.77343  0.19321  Biso   1.000  Cu
  Cu7      1.0000 0.67717  0.72657  0.69321  Biso   1.000  Cu
  Cu8      1.0000 0.32283  0.22657  0.80679  Biso   1.000  Cu
  O1       1.0000 0.10870  0.42380  0.21840  Biso   1.000  O
  O2       1.0000 0.89130  0.92380  0.28160  Biso   1.000  O
  O3       1.0000 0.89130  0.57620  0.78160  Biso   1.000  O
  O4       1.0000 0.10870  0.07620  0.71840  Biso   1.000  O
  O5       1.0000 0.23020  0.46740  0.31370  Biso   1.000  O
  O6       1.0000 0.76980  0.96740  0.18630  Biso   1.000  O
  O7       1.0000 0.76980  0.53260  0.68630  Biso   1.000  O
  O8       1.0000 0.23020  0.03260  0.81370  Biso   1.000  O
  O9       1.0000 0.14490  0.00850  0.24680  Biso   1.000  O
  O10      1.0000 0.85510  0.50850  0.25320  Biso   1.000  O
  O11      1.0000 0.85510  0.99150  0.75320  Biso   1.000  O
  O12      1.0000 0.14490  0.49150  0.74680  Biso   1.000  O
  O13      1.0000 0.27220  0.05250  0.34170  Biso   1.000  O
  O14      1.0000 0.72780  0.55250  0.15830  Biso   1.000  O
  O15      1.0000 0.72780  0.94750  0.65830  Biso   1.000  O
  O16      1.0000 0.27220  0.44750  0.84170  Biso   1.000  O
  O17      1.0000 0.22780  0.41830  0.16180  Biso   1.000  O
  O18      1.0000 0.77220  0.91830  0.33820  Biso   1.000  O
  O19      1.0000 0.77220  0.58170  0.83820  Biso   1.000  O
  O20      1.0000 0.22780  0.08170  0.66180  Biso   1.000  O
  O21      1.0000 0.34880  0.47710  0.25510  Biso   1.000  O
  O22      1.0000 0.65120  0.97710  0.24490  Biso   1.000  O
  O23      1.0000 0.65120  0.52290  0.74490  Biso   1.000  O
  O24      1.0000 0.34880  0.02290  0.75510  Biso   1.000  O
  O25      1.0000 0.26710  0.00480  0.19160  Biso   1.000  O
  O26      1.0000 0.73290  0.50480  0.30840  Biso   1.000  O
  O27      1.0000 0.73290  0.99520  0.80840  Biso   1.000  O
  O28      1.0000 0.26710  0.49520  0.69160  Biso   1.000  O
  O29      1.0000 0.39190  0.06380  0.28330  Biso   1.000  O
  O30      1.0000 0.60810  0.56380  0.21670  Biso   1.000  O
  O31      1.0000 0.60810  0.93620  0.71670  Biso   1.000  O
  O32      1.0000 0.39190  0.43620  0.78330  Biso   1.000  O
  N1       1.0000 0.05530  0.08220  0.11480  Biso   1.000  N
  N2       1.0000 0.94470  0.58220  0.38520  Biso   1.000  N
  N3       1.0000 0.94470  0.91780  0.88520  Biso   1.000  N
  N4       1.0000 0.05530  0.41780  0.61480  Biso   1.000  N
  N5       1.0000 0.44510  0.10530  0.88830  Biso   1.000  N
  N6       1.0000 0.55490  0.60530  0.61170  Biso   1.000  N
  N7       1.0000 0.55490  0.89470  0.11170  Biso   1.000  N
  N8       1.0000 0.44510  0.39470  0.38830  Biso   1.000  N
  C1       1.0000 0.14570  0.50500  0.27044  Biso   1.000  C
  C2       1.0000 0.85430  0.00500  0.22956  Biso   1.000  C
  C3       1.0000 0.85430  0.49500  0.72956  Biso   1.000  C
  C4       1.0000 0.14570  0.99500  0.77044  Biso   1.000  C
  C5       1.0000 0.08570  0.65620  0.28640  Biso   1.000  C
  C6       1.0000 0.91430  0.15620  0.21360  Biso   1.000  C
  C7       1.0000 0.91430  0.34380  0.71360  Biso   1.000  C
  C8       1.0000 0.08570  0.84380  0.78640  Biso   1.000  C
  C9       1.0000 0.14930  0.82390  0.33420  Biso   1.000  C
  C10      1.0000 0.85070  0.32390  0.16580  Biso   1.000  C
  C11      1.0000 0.85070  0.17610  0.66580  Biso   1.000  C
  C12      1.0000 0.14930  0.67610  0.83420  Biso   1.000  C
  C13      1.0000 0.19020  0.97290  0.30296  Biso   1.000  C
  C14      1.0000 0.80980  0.47290  0.19704  Biso   1.000  C
  C15      1.0000 0.80980  0.02710  0.69704  Biso   1.000  C
  C16      1.0000 0.19020  0.52710  0.80296  Biso   1.000  C
  C17      1.0000 0.35289  0.97821  0.23136  Biso   1.000  C
  C18      1.0000 0.64711  0.47821  0.26864  Biso   1.000  C
  C19      1.0000 0.64711  0.02179  0.76864  Biso   1.000  C
  C20      1.0000 0.35289  0.52179  0.73136  Biso   1.000  C
  C21      1.0000 0.41242  0.82608  0.21495  Biso   1.000  C
  C22      1.0000 0.58758  0.32608  0.28505  Biso   1.000  C
  C23      1.0000 0.58758  0.17392  0.78505  Biso   1.000  C
  C24      1.0000 0.41242  0.67392  0.71495  Biso   1.000  C
  C25      1.0000 0.35388  0.65488  0.17277  Biso   1.000  C
  C26      1.0000 0.64612  0.15488  0.32723  Biso   1.000  C
  C27      1.0000 0.64612  0.34512  0.82723  Biso   1.000  C
  C28      1.0000 0.35388  0.84512  0.67277  Biso   1.000  C
  C29      1.0000 0.30150  0.50731  0.19612  Biso   1.000  C
  C30      1.0000 0.69850  0.00731  0.30388  Biso   1.000  C
  C31      1.0000 0.69850  0.49269  0.80388  Biso   1.000  C
  C32      1.0000 0.30150  0.99269  0.69612  Biso   1.000  C
  C33      1.0000 0.99225  0.19166  0.07125  Biso   1.000  C
  C34      1.0000 0.00775  0.69166  0.42875  Biso   1.000  C
  C35      1.0000 0.00775  0.80834  0.92875  Biso   1.000  C
  C36      1.0000 0.99225  0.30834  0.57125  Biso   1.000  C
  C37      1.0000 0.90619  0.10928  0.02239  Biso   1.000  C
  C38      1.0000 0.09381  0.60928  0.47761  Biso   1.000  C
  C39      1.0000 0.09381  0.89072  0.97761  Biso   1.000  C
  C40      1.0000 0.90619  0.39072  0.52239  Biso   1.000  C
  C41      1.0000 0.88685  0.90614  0.01985  Biso   1.000  C
  C42      1.0000 0.11315  0.40614  0.48015  Biso   1.000  C
  C43      1.0000 0.11315  0.09386  0.98015  Biso   1.000  C
  C44      1.0000 0.88685  0.59386  0.51985  Biso   1.000  C
  C45      1.0000 0.95860  0.78450  0.06930  Biso   1.000  C
  C46      1.0000 0.04140  0.28450  0.43070  Biso   1.000  C
  C47      1.0000 0.04140  0.21550  0.93070  Biso   1.000  C
  C48      1.0000 0.95860  0.71550  0.56930  Biso   1.000  C
  C49      1.0000 0.03790  0.88270  0.11330  Biso   1.000  C
  C50      1.0000 0.96210  0.38270  0.38670  Biso   1.000  C
  C51      1.0000 0.96210  0.11730  0.88670  Biso   1.000  C
  C52      1.0000 0.03790  0.61730  0.61330  Biso   1.000  C
  C53      1.0000 0.80140  0.79450  0.96870  Biso   1.000  C
  C54      1.0000 0.19860  0.29450  0.53130  Biso   1.000  C
  C55      1.0000 0.19860  0.20550  0.03130  Biso   1.000  C
  C56      1.0000 0.80140  0.70550  0.46870  Biso   1.000  C
  C57      1.0000 0.74500  0.66990  0.99600  Biso   1.000  C
  C58      1.0000 0.25500  0.16990  0.50400  Biso   1.000  C
  C59      1.0000 0.25500  0.33010  0.00400  Biso   1.000  C
  C60      1.0000 0.74500  0.83010  0.49600  Biso   1.000  C
  C61      1.0000 0.69550  0.80490  0.02320  Biso   1.000  C
  C62      1.0000 0.30450  0.30490  0.47680  Biso   1.000  C
  C63      1.0000 0.30450  0.19510  0.97680  Biso   1.000  C
  C64      1.0000 0.69550  0.69510  0.52320  Biso   1.000  C
  C65      1.0000 0.60750  0.90620  0.97960  Biso   1.000  C
  C66      1.0000 0.39250  0.40620  0.52040  Biso   1.000  C
  C67      1.0000 0.39250  0.09380  0.02040  Biso   1.000  C
  C68      1.0000 0.60750  0.59380  0.47960  Biso   1.000  C
  C69      1.0000 0.60970  0.11220  0.96630  Biso   1.000  C
  C70      1.0000 0.39030  0.61220  0.53370  Biso   1.000  C
  C71      1.0000 0.39030  0.88780  0.03370  Biso   1.000  C
  C72      1.0000 0.60970  0.38780  0.46630  Biso   1.000  C
  C73      1.0000 0.52906  0.20705  0.92123  Biso   1.000  C
  C74      1.0000 0.47094  0.70705  0.57877  Biso   1.000  C
  C75      1.0000 0.47094  0.79295  0.07877  Biso   1.000  C
  C76      1.0000 0.52906  0.29295  0.42123  Biso   1.000  C
  C77      1.0000 0.44200  0.90310  0.90090  Biso   1.000  C
  C78      1.0000 0.55800  0.40310  0.59910  Biso   1.000  C
  C79      1.0000 0.55800  0.09690  0.09910  Biso   1.000  C
  C80      1.0000 0.44200  0.59690  0.40090  Biso   1.000  C
  C81      1.0000 0.52150  0.80280  0.94590  Biso   1.000  C
  C82      1.0000 0.47850  0.30280  0.55410  Biso   1.000  C
  C83      1.0000 0.47850  0.19720  0.05410  Biso   1.000  C
  C84      1.0000 0.52150  0.69720  0.44590  Biso   1.000  C
  H1       1.0000 0.03889  0.72442  0.24835  Biso   1.000  H
  H2       1.0000 0.96111  0.22442  0.25165  Biso   1.000  H
  H3       1.0000 0.96111  0.27558  0.75165  Biso   1.000  H
  H4       1.0000 0.03889  0.77558  0.74835  Biso   1.000  H
  H5       1.0000 0.04857  0.58005  0.30354  Biso   1.000  H
  H6       1.0000 0.95143  0.08005  0.19646  Biso   1.000  H
  H7       1.0000 0.95143  0.41995  0.69646  Biso   1.000  H
  H8       1.0000 0.04857  0.91995  0.80354  Biso   1.000  H
  H9       1.0000 0.10995  0.90143  0.34937  Biso   1.000  H
  H10      1.0000 0.89005  0.40143  0.15063  Biso   1.000  H
  H11      1.0000 0.89005  0.09857  0.65063  Biso   1.000  H
  H12      1.0000 0.10995  0.59857  0.84937  Biso   1.000  H
  H13      1.0000 0.20233  0.75596  0.36945  Biso   1.000  H
  H14      1.0000 0.79767  0.25596  0.13055  Biso   1.000  H
  H15      1.0000 0.79767  0.24404  0.63055  Biso   1.000  H
  H16      1.0000 0.20233  0.74404  0.86945  Biso   1.000  H
  H17      1.0000 0.46308  0.76662  0.25320  Biso   1.000  H
  H18      1.0000 0.53692  0.26662  0.24680  Biso   1.000  H
  H19      1.0000 0.53692  0.23338  0.74680  Biso   1.000  H
  H20      1.0000 0.46308  0.73338  0.75320  Biso   1.000  H
  H21      1.0000 0.44658  0.90091  0.19551  Biso   1.000  H
  H22      1.0000 0.55342  0.40091  0.30449  Biso   1.000  H
  H23      1.0000 0.55342  0.09909  0.80449  Biso   1.000  H
  H24      1.0000 0.44658  0.59909  0.69551  Biso   1.000  H
  H25      1.0000 0.39404  0.57524  0.15873  Biso   1.000  H
  H26      1.0000 0.60596  0.07524  0.34127  Biso   1.000  H
  H27      1.0000 0.60596  0.42476  0.84127  Biso   1.000  H
  H28      1.0000 0.39404  0.92476  0.65873  Biso   1.000  H
  H29      1.0000 0.30804  0.71335  0.13268  Biso   1.000  H
  H30      1.0000 0.69196  0.21335  0.36732  Biso   1.000  H
  H31      1.0000 0.69196  0.28665  0.86732  Biso   1.000  H
  H32      1.0000 0.30804  0.78665  0.63268  Biso   1.000  H
  H33      1.0000 0.00366  0.34119  0.07139  Biso   1.000  H
  H34      1.0000 0.99634  0.84119  0.42861  Biso   1.000  H
  H35      1.0000 0.99634  0.65881  0.92861  Biso   1.000  H
  H36      1.0000 0.00366  0.15881  0.57139  Biso   1.000  H
  H37      1.0000 0.86079  0.20224  0.99037  Biso   1.000  H
  H38      1.0000 0.13921  0.70224  0.50963  Biso   1.000  H
  H39      1.0000 0.13921  0.79776  0.00963  Biso   1.000  H
  H40      1.0000 0.86079  0.29776  0.49037  Biso   1.000  H
  H41      1.0000 0.95067  0.63432  0.07134  Biso   1.000  H
  H42      1.0000 0.04933  0.13432  0.42866  Biso   1.000  H
  H43      1.0000 0.04933  0.36568  0.92866  Biso   1.000  H
  H44      1.0000 0.95067  0.86568  0.57134  Biso   1.000  H
  H45      1.0000 0.08583  0.79711  0.14655  Biso   1.000  H
  H46      1.0000 0.91417  0.29711  0.35345  Biso   1.000  H
  H47      1.0000 0.91417  0.20289  0.85345  Biso   1.000  H
  H48      1.0000 0.08583  0.70289  0.64655  Biso   1.000  H
  H49      1.0000 0.82447  0.70046  0.94643  Biso   1.000  H
  H50      1.0000 0.17553  0.20046  0.55357  Biso   1.000  H
  H51      1.0000 0.17553  0.29954  0.05357  Biso   1.000  H
  H52      1.0000 0.82447  0.79954  0.44643  Biso   1.000  H
  H53      1.0000 0.75851  0.89621  0.93880  Biso   1.000  H
  H54      1.0000 0.24149  0.39621  0.56120  Biso   1.000  H
  H55      1.0000 0.24149  0.10379  0.06120  Biso   1.000  H
  H56      1.0000 0.75851  0.60379  0.43880  Biso   1.000  H
  H57      1.0000 0.78881  0.57471  0.02798  Biso   1.000  H
  H58      1.0000 0.21119  0.07471  0.47202  Biso   1.000  H
  H59      1.0000 0.21119  0.42529  0.97202  Biso   1.000  H
  H60      1.0000 0.78881  0.92529  0.52798  Biso   1.000  H
  H61      1.0000 0.69726  0.58185  0.96353  Biso   1.000  H
  H62      1.0000 0.30274  0.08185  0.53647  Biso   1.000  H
  H63      1.0000 0.30274  0.41815  0.03647  Biso   1.000  H
  H64      1.0000 0.69726  0.91815  0.46353  Biso   1.000  H
  H65      1.0000 0.68281  0.72471  0.05329  Biso   1.000  H
  H66      1.0000 0.31719  0.22471  0.44671  Biso   1.000  H
  H67      1.0000 0.31719  0.27529  0.94671  Biso   1.000  H
  H68      1.0000 0.68281  0.77529  0.55329  Biso   1.000  H
  H69      1.0000 0.74085  0.90917  0.05036  Biso   1.000  H
  H70      1.0000 0.25915  0.40917  0.44964  Biso   1.000  H
  H71      1.0000 0.25915  0.09083  0.94964  Biso   1.000  H
  H72      1.0000 0.74085  0.59083  0.55036  Biso   1.000  H
  H73      1.0000 0.66893  0.19235  0.98893  Biso   1.000  H
  H74      1.0000 0.33107  0.69235  0.51107  Biso   1.000  H
  H75      1.0000 0.33107  0.80765  0.01107  Biso   1.000  H
  H76      1.0000 0.66893  0.30765  0.48893  Biso   1.000  H
  H77      1.0000 0.53267  0.35452  0.91265  Biso   1.000  H
  H78      1.0000 0.46733  0.85452  0.58735  Biso   1.000  H
  H79      1.0000 0.46733  0.64548  0.08735  Biso   1.000  H
  H80      1.0000 0.53267  0.14548  0.41265  Biso   1.000  H
  H81      1.0000 0.38213  0.82525  0.87783  Biso   1.000  H
  H82      1.0000 0.61787  0.32525  0.62217  Biso   1.000  H
  H83      1.0000 0.61787  0.17475  0.12217  Biso   1.000  H
  H84      1.0000 0.38213  0.67475  0.37783  Biso   1.000  H
  H85      1.0000 0.51687  0.65528  0.95398  Biso   1.000  H
  H86      1.0000 0.48313  0.15528  0.54602  Biso   1.000  H
  H87      1.0000 0.48313  0.34472  0.04602  Biso   1.000  H
  H88      1.0000 0.51687  0.84472  0.45398  Biso   1.000  H
