data_image0
_cell_length_a       9.58
_cell_length_b       7.213
_cell_length_c       21.867
_cell_angle_alpha    90
_cell_angle_beta     90
_cell_angle_gamma    90

_symmetry_space_group_name_H-M    "P 1"
_symmetry_int_tables_number       1

loop_
  _symmetry_equiv_pos_as_xyz
  'x, y, z'

loop_
  _atom_site_label
  _atom_site_occupancy
  _atom_site_fract_x
  _atom_site_fract_y
  _atom_site_fract_z
  _atom_site_thermal_displace_type
  _atom_site_B_iso_or_equiv
  _atom_site_type_symbol
  Cu1      1.0000 0.00000  0.00000  0.00000  Biso   1.000  Cu
  Cu2      1.0000 0.50000  0.50000  0.00000  Biso   1.000  Cu
  Cu3      1.0000 0.00000  0.50000  0.50000  Biso   1.000  Cu
  Cu4      1.0000 0.50000  0.00000  0.50000  Biso   1.000  Cu
  O1       1.0000 0.09760  0.09170  0.92760  Biso   1.000  O
  O2       1.0000 0.40240  0.59170  0.92760  Biso   1.000  O
  O3       1.0000 0.09760  0.40830  0.42760  Biso   1.000  O
  O4       1.0000 0.40240  0.90830  0.42760  Biso   1.000  O
  O5       1.0000 0.90240  0.90830  0.07240  Biso   1.000  O
  O6       1.0000 0.59760  0.40830  0.07240  Biso   1.000  O
  O7       1.0000 0.90240  0.59170  0.57240  Biso   1.000  O
  O8       1.0000 0.59760  0.09170  0.57240  Biso   1.000  O
  O9       1.0000 0.26740  0.01550  0.99090  Biso   1.000  O
  O10      1.0000 0.23260  0.51550  0.99090  Biso   1.000  O
  O11      1.0000 0.26740  0.48450  0.49090  Biso   1.000  O
  O12      1.0000 0.23260  0.98450  0.49090  Biso   1.000  O
  O13      1.0000 0.73260  0.98450  0.00910  Biso   1.000  O
  O14      1.0000 0.76740  0.48450  0.00910  Biso   1.000  O
  O15      1.0000 0.73260  0.51550  0.50910  Biso   1.000  O
  O16      1.0000 0.76740  0.01550  0.50910  Biso   1.000  O
  N1       1.0000 0.50090  0.23330  0.96710  Biso   1.000  N
  N2       1.0000 0.99910  0.73330  0.96710  Biso   1.000  N
  N3       1.0000 0.50090  0.26670  0.46710  Biso   1.000  N
  N4       1.0000 0.99910  0.76670  0.46710  Biso   1.000  N
  N5       1.0000 0.49910  0.76670  0.03290  Biso   1.000  N
  N6       1.0000 0.00090  0.26670  0.03290  Biso   1.000  N
  N7       1.0000 0.49910  0.73330  0.53290  Biso   1.000  N
  N8       1.0000 0.00090  0.23330  0.53290  Biso   1.000  N
  C1       1.0000 0.22660  0.07310  0.94010  Biso   1.000  C
  C2       1.0000 0.27340  0.57310  0.94010  Biso   1.000  C
  C3       1.0000 0.22660  0.42690  0.44010  Biso   1.000  C
  C4       1.0000 0.27340  0.92690  0.44010  Biso   1.000  C
  C5       1.0000 0.77340  0.92690  0.05990  Biso   1.000  C
  C6       1.0000 0.72660  0.42690  0.05990  Biso   1.000  C
  C7       1.0000 0.77340  0.57310  0.55990  Biso   1.000  C
  C8       1.0000 0.72660  0.07310  0.55990  Biso   1.000  C
  C9       1.0000 0.32870  0.12420  0.89090  Biso   1.000  C
  C10      1.0000 0.17130  0.62420  0.89090  Biso   1.000  C
  C11      1.0000 0.32870  0.37580  0.39090  Biso   1.000  C
  C12      1.0000 0.17130  0.87580  0.39090  Biso   1.000  C
  C13      1.0000 0.67130  0.87580  0.10910  Biso   1.000  C
  C14      1.0000 0.82870  0.37580  0.10910  Biso   1.000  C
  C15      1.0000 0.67130  0.62420  0.60910  Biso   1.000  C
  C16      1.0000 0.82870  0.12420  0.60910  Biso   1.000  C
  C17      1.0000 0.46120  0.19480  0.90420  Biso   1.000  C
  C18      1.0000 0.03880  0.69480  0.90420  Biso   1.000  C
  C19      1.0000 0.46120  0.30520  0.40420  Biso   1.000  C
  C20      1.0000 0.03880  0.80520  0.40420  Biso   1.000  C
  C21      1.0000 0.53880  0.80520  0.09580  Biso   1.000  C
  C22      1.0000 0.96120  0.30520  0.09580  Biso   1.000  C
  C23      1.0000 0.53880  0.69480  0.59580  Biso   1.000  C
  C24      1.0000 0.96120  0.19480  0.59580  Biso   1.000  C
  C25      1.0000 0.55470  0.23740  0.85680  Biso   1.000  C
  C26      1.0000 0.94530  0.73740  0.85680  Biso   1.000  C
  C27      1.0000 0.55470  0.26260  0.35680  Biso   1.000  C
  C28      1.0000 0.94530  0.76260  0.35680  Biso   1.000  C
  C29      1.0000 0.44530  0.76260  0.14320  Biso   1.000  C
  C30      1.0000 0.05470  0.26260  0.14320  Biso   1.000  C
  C31      1.0000 0.44530  0.73740  0.64320  Biso   1.000  C
  C32      1.0000 0.05470  0.23740  0.64320  Biso   1.000  C
  C33      1.0000 0.51370  0.20290  0.79750  Biso   1.000  C
  C34      1.0000 0.98630  0.70290  0.79750  Biso   1.000  C
  C35      1.0000 0.51370  0.29710  0.29750  Biso   1.000  C
  C36      1.0000 0.98630  0.79710  0.29750  Biso   1.000  C
  C37      1.0000 0.48630  0.79710  0.20250  Biso   1.000  C
  C38      1.0000 0.01370  0.29710  0.20250  Biso   1.000  C
  C39      1.0000 0.48630  0.70290  0.70250  Biso   1.000  C
  C40      1.0000 0.01370  0.20290  0.70250  Biso   1.000  C
  C41      1.0000 0.38330  0.13240  0.78430  Biso   1.000  C
  C42      1.0000 0.11670  0.63240  0.78430  Biso   1.000  C
  C43      1.0000 0.38330  0.36760  0.28430  Biso   1.000  C
  C44      1.0000 0.11670  0.86760  0.28430  Biso   1.000  C
  C45      1.0000 0.61670  0.86760  0.21570  Biso   1.000  C
  C46      1.0000 0.88330  0.36760  0.21570  Biso   1.000  C
  C47      1.0000 0.61670  0.63240  0.71570  Biso   1.000  C
  C48      1.0000 0.88330  0.13240  0.71570  Biso   1.000  C
  C49      1.0000 0.28960  0.09560  0.83040  Biso   1.000  C
  C50      1.0000 0.21040  0.59560  0.83040  Biso   1.000  C
  C51      1.0000 0.28960  0.40440  0.33040  Biso   1.000  C
  C52      1.0000 0.21040  0.90440  0.33040  Biso   1.000  C
  C53      1.0000 0.71040  0.90440  0.16960  Biso   1.000  C
  C54      1.0000 0.78960  0.40440  0.16960  Biso   1.000  C
  C55      1.0000 0.71040  0.59560  0.66960  Biso   1.000  C
  C56      1.0000 0.78960  0.09560  0.66960  Biso   1.000  C
  C57      1.0000 0.69530  0.32080  0.87060  Biso   1.000  C
  C58      1.0000 0.80470  0.82080  0.87060  Biso   1.000  C
  C59      1.0000 0.69530  0.17920  0.37060  Biso   1.000  C
  C60      1.0000 0.80470  0.67920  0.37060  Biso   1.000  C
  C61      1.0000 0.30470  0.67920  0.12940  Biso   1.000  C
  C62      1.0000 0.19530  0.17920  0.12940  Biso   1.000  C
  C63      1.0000 0.30470  0.82080  0.62940  Biso   1.000  C
  C64      1.0000 0.19530  0.32080  0.62940  Biso   1.000  C
  H1       1.0000 0.58500  0.19700  0.98100  Biso   1.000  H
  H2       1.0000 0.91500  0.69700  0.98100  Biso   1.000  H
  H3       1.0000 0.58500  0.30300  0.48100  Biso   1.000  H
  H4       1.0000 0.91500  0.80300  0.48100  Biso   1.000  H
  H5       1.0000 0.41500  0.80300  0.01900  Biso   1.000  H
  H6       1.0000 0.08500  0.30300  0.01900  Biso   1.000  H
  H7       1.0000 0.41500  0.69700  0.51900  Biso   1.000  H
  H8       1.0000 0.08500  0.19700  0.51900  Biso   1.000  H
  H9       1.0000 0.43800  0.18800  0.98700  Biso   1.000  H
  H10      1.0000 0.06200  0.68800  0.98700  Biso   1.000  H
  H11      1.0000 0.43800  0.31200  0.48700  Biso   1.000  H
  H12      1.0000 0.06200  0.81200  0.48700  Biso   1.000  H
  H13      1.0000 0.56200  0.81200  0.01300  Biso   1.000  H
  H14      1.0000 0.93800  0.31200  0.01300  Biso   1.000  H
  H15      1.0000 0.56200  0.68800  0.51300  Biso   1.000  H
  H16      1.0000 0.93800  0.18800  0.51300  Biso   1.000  H
  H17      1.0000 0.57500  0.23000  0.76400  Biso   1.000  H
  H18      1.0000 0.92500  0.73000  0.76400  Biso   1.000  H
  H19      1.0000 0.57500  0.27000  0.26400  Biso   1.000  H
  H20      1.0000 0.92500  0.77000  0.26400  Biso   1.000  H
  H21      1.0000 0.42500  0.77000  0.23600  Biso   1.000  H
  H22      1.0000 0.07500  0.27000  0.23600  Biso   1.000  H
  H23      1.0000 0.42500  0.73000  0.73600  Biso   1.000  H
  H24      1.0000 0.07500  0.23000  0.73600  Biso   1.000  H
  H25      1.0000 0.35900  0.10900  0.74700  Biso   1.000  H
  H26      1.0000 0.14100  0.60900  0.74700  Biso   1.000  H
  H27      1.0000 0.35900  0.39100  0.24700  Biso   1.000  H
  H28      1.0000 0.14100  0.89100  0.24700  Biso   1.000  H
  H29      1.0000 0.64100  0.89100  0.25300  Biso   1.000  H
  H30      1.0000 0.85900  0.39100  0.25300  Biso   1.000  H
  H31      1.0000 0.64100  0.60900  0.75300  Biso   1.000  H
  H32      1.0000 0.85900  0.10900  0.75300  Biso   1.000  H
  H33      1.0000 0.20600  0.05100  0.82000  Biso   1.000  H
  H34      1.0000 0.29400  0.55100  0.82000  Biso   1.000  H
  H35      1.0000 0.20600  0.44900  0.32000  Biso   1.000  H
  H36      1.0000 0.29400  0.94900  0.32000  Biso   1.000  H
  H37      1.0000 0.79400  0.94900  0.18000  Biso   1.000  H
  H38      1.0000 0.70600  0.44900  0.18000  Biso   1.000  H
  H39      1.0000 0.79400  0.55100  0.68000  Biso   1.000  H
  H40      1.0000 0.70600  0.05100  0.68000  Biso   1.000  H
  H41      1.0000 0.67300  0.41400  0.88600  Biso   1.000  H
  H42      1.0000 0.82700  0.91400  0.88600  Biso   1.000  H
  H43      1.0000 0.67300  0.08600  0.38600  Biso   1.000  H
  H44      1.0000 0.82700  0.58600  0.38600  Biso   1.000  H
  H45      1.0000 0.32700  0.58600  0.11400  Biso   1.000  H
  H46      1.0000 0.17300  0.08600  0.11400  Biso   1.000  H
  H47      1.0000 0.32700  0.91400  0.61400  Biso   1.000  H
  H48      1.0000 0.17300  0.41400  0.61400  Biso   1.000  H
  H49      1.0000 0.75400  0.24600  0.88800  Biso   1.000  H
  H50      1.0000 0.74600  0.74600  0.88800  Biso   1.000  H
  H51      1.0000 0.75400  0.25400  0.38800  Biso   1.000  H
  H52      1.0000 0.74600  0.75400  0.38800  Biso   1.000  H
  H53      1.0000 0.24600  0.75400  0.11200  Biso   1.000  H
  H54      1.0000 0.25400  0.25400  0.11200  Biso   1.000  H
  H55      1.0000 0.24600  0.74600  0.61200  Biso   1.000  H
  H56      1.0000 0.25400  0.24600  0.61200  Biso   1.000  H
  H57      1.0000 0.73000  0.40700  0.82400  Biso   1.000  H
  H58      1.0000 0.77000  0.90700  0.82400  Biso   1.000  H
  H59      1.0000 0.73000  0.09300  0.32400  Biso   1.000  H
  H60      1.0000 0.77000  0.59300  0.32400  Biso   1.000  H
  H61      1.0000 0.27000  0.59300  0.17600  Biso   1.000  H
  H62      1.0000 0.23000  0.09300  0.17600  Biso   1.000  H
  H63      1.0000 0.27000  0.90700  0.67600  Biso   1.000  H
  H64      1.0000 0.23000  0.40700  0.67600  Biso   1.000  H
