data_image0
_cell_length_a       8.89432
_cell_length_b       12.1851
_cell_length_c       7.28369
_cell_angle_alpha    90
_cell_angle_beta     90
_cell_angle_gamma    90

_symmetry_space_group_name_H-M    "P 1"
_symmetry_int_tables_number       1

loop_
  _symmetry_equiv_pos_as_xyz
  'x, y, z'

loop_
  _atom_site_label
  _atom_site_occupancy
  _atom_site_fract_x
  _atom_site_fract_y
  _atom_site_fract_z
  _atom_site_thermal_displace_type
  _atom_site_B_iso_or_equiv
  _atom_site_type_symbol
  C1       1.0000 0.00000  0.78414  0.25000  Biso   1.000  C
  C2       1.0000 0.00000  0.21586  0.75000  Biso   1.000  C
  C3       1.0000 0.50000  0.71586  0.75000  Biso   1.000  C
  C4       1.0000 0.50000  0.28414  0.25000  Biso   1.000  C
  C5       1.0000 0.13930  0.84596  0.25000  Biso   1.000  C
  C6       1.0000 0.86070  0.15404  0.75000  Biso   1.000  C
  C7       1.0000 0.86070  0.84596  0.25000  Biso   1.000  C
  C8       1.0000 0.36070  0.65404  0.75000  Biso   1.000  C
  C9       1.0000 0.36070  0.34596  0.25000  Biso   1.000  C
  C10      1.0000 0.13930  0.15404  0.75000  Biso   1.000  C
  C11      1.0000 0.63930  0.65404  0.75000  Biso   1.000  C
  C12      1.0000 0.63930  0.34596  0.25000  Biso   1.000  C
  C13      1.0000 0.21610  0.88003  0.09894  Biso   1.000  C
  C14      1.0000 0.78390  0.11997  0.59894  Biso   1.000  C
  C15      1.0000 0.78390  0.88003  0.40106  Biso   1.000  C
  C16      1.0000 0.28390  0.61997  0.59894  Biso   1.000  C
  C17      1.0000 0.28390  0.38003  0.40106  Biso   1.000  C
  C18      1.0000 0.21610  0.11997  0.90106  Biso   1.000  C
  C19      1.0000 0.71610  0.61997  0.90106  Biso   1.000  C
  C20      1.0000 0.71610  0.38003  0.09894  Biso   1.000  C
  C21      1.0000 0.78390  0.11997  0.90106  Biso   1.000  C
  C22      1.0000 0.21610  0.88003  0.40106  Biso   1.000  C
  C23      1.0000 0.21610  0.11997  0.59894  Biso   1.000  C
  C24      1.0000 0.71610  0.38003  0.40106  Biso   1.000  C
  C25      1.0000 0.71610  0.61997  0.59894  Biso   1.000  C
  C26      1.0000 0.78390  0.88003  0.09894  Biso   1.000  C
  C27      1.0000 0.28390  0.38003  0.09894  Biso   1.000  C
  C28      1.0000 0.28390  0.61997  0.90106  Biso   1.000  C
  H1       1.0000 0.18790  0.86752  0.97490  Biso   1.000  H
  H2       1.0000 0.81210  0.13248  0.47490  Biso   1.000  H
  H3       1.0000 0.81210  0.86752  0.52510  Biso   1.000  H
  H4       1.0000 0.31210  0.63248  0.47490  Biso   1.000  H
  H5       1.0000 0.31210  0.36752  0.52510  Biso   1.000  H
  H6       1.0000 0.18790  0.13248  0.02510  Biso   1.000  H
  H7       1.0000 0.68790  0.63248  0.02510  Biso   1.000  H
  H8       1.0000 0.68790  0.36752  0.97490  Biso   1.000  H
  H9       1.0000 0.81210  0.13248  0.02510  Biso   1.000  H
  H10      1.0000 0.18790  0.86752  0.52510  Biso   1.000  H
  H11      1.0000 0.18790  0.13248  0.47490  Biso   1.000  H
  H12      1.0000 0.68790  0.36752  0.52510  Biso   1.000  H
  H13      1.0000 0.68790  0.63248  0.47490  Biso   1.000  H
  H14      1.0000 0.81210  0.86752  0.97490  Biso   1.000  H
  H15      1.0000 0.31210  0.36752  0.97490  Biso   1.000  H
  H16      1.0000 0.31210  0.63248  0.02510  Biso   1.000  H
  N1       1.0000 0.34037  0.93517  0.15664  Biso   1.000  N
  N2       1.0000 0.65963  0.06483  0.65664  Biso   1.000  N
  N3       1.0000 0.65963  0.93517  0.34336  Biso   1.000  N
  N4       1.0000 0.15963  0.56483  0.65664  Biso   1.000  N
  N5       1.0000 0.15963  0.43517  0.34336  Biso   1.000  N
  N6       1.0000 0.34037  0.06483  0.84336  Biso   1.000  N
  N7       1.0000 0.84037  0.56483  0.84336  Biso   1.000  N
  N8       1.0000 0.84037  0.43517  0.15664  Biso   1.000  N
  N9       1.0000 0.65963  0.06483  0.84336  Biso   1.000  N
  N10      1.0000 0.34037  0.93517  0.34336  Biso   1.000  N
  N11      1.0000 0.34037  0.06483  0.65664  Biso   1.000  N
  N12      1.0000 0.84037  0.43517  0.34336  Biso   1.000  N
  N13      1.0000 0.84037  0.56483  0.65664  Biso   1.000  N
  N14      1.0000 0.65963  0.93517  0.15664  Biso   1.000  N
  N15      1.0000 0.15963  0.43517  0.15664  Biso   1.000  N
  N16      1.0000 0.15963  0.56483  0.84336  Biso   1.000  N
  H17      1.0000 0.00000  0.73951  0.10798  Biso   1.000  H
  H18      1.0000 0.00000  0.26049  0.60798  Biso   1.000  H
  H19      1.0000 0.00000  0.73951  0.39202  Biso   1.000  H
  H20      1.0000 0.50000  0.76049  0.60798  Biso   1.000  H
  H21      1.0000 0.50000  0.23951  0.39202  Biso   1.000  H
  H22      1.0000 0.00000  0.26049  0.89202  Biso   1.000  H
  H23      1.0000 0.50000  0.76049  0.89202  Biso   1.000  H
  H24      1.0000 0.50000  0.23951  0.10798  Biso   1.000  H
  Cu1      1.0000 0.50000  0.00000  0.00000  Biso   1.000  Cu
  Cu2      1.0000 0.50000  0.00000  0.50000  Biso   1.000  Cu
  Cu3      1.0000 0.00000  0.50000  0.50000  Biso   1.000  Cu
  Cu4      1.0000 0.00000  0.50000  0.00000  Biso   1.000  Cu
