data_image0
_cell_length_a       6.648
_cell_length_b       13.124
_cell_length_c       13.531
_cell_angle_alpha    63.46
_cell_angle_beta     79.17
_cell_angle_gamma    82.13

_symmetry_space_group_name_H-M    "P 1"
_symmetry_int_tables_number       1

loop_
  _symmetry_equiv_pos_as_xyz
  'x, y, z'

loop_
  _atom_site_label
  _atom_site_occupancy
  _atom_site_fract_x
  _atom_site_fract_y
  _atom_site_fract_z
  _atom_site_thermal_displace_type
  _atom_site_B_iso_or_equiv
  _atom_site_type_symbol
  Cu1      1.0000 0.45974  0.11126  0.67569  Biso   1.000  Cu
  Cu2      1.0000 0.54026  0.88874  0.32431  Biso   1.000  Cu
  Na1      1.0000 0.92450  0.21836  0.62390  Biso   1.000  Na
  Na2      1.0000 0.07550  0.78164  0.37610  Biso   1.000  Na
  N1       1.0000 0.12760  0.50420  0.13240  Biso   1.000  N
  N2       1.0000 0.87240  0.49580  0.86760  Biso   1.000  N
  C1       1.0000 0.29490  0.89020  0.84450  Biso   1.000  C
  C2       1.0000 0.70510  0.10980  0.15550  Biso   1.000  C
  C3       1.0000 0.28680  0.76380  0.87750  Biso   1.000  C
  C4       1.0000 0.71320  0.23620  0.12250  Biso   1.000  C
  C5       1.0000 0.35190  0.71980  0.79890  Biso   1.000  C
  C6       1.0000 0.64810  0.28020  0.20110  Biso   1.000  C
  C7       1.0000 0.35140  0.60220  0.83330  Biso   1.000  C
  C8       1.0000 0.64860  0.39780  0.16670  Biso   1.000  C
  C9       1.0000 0.28590  0.53150  0.94410  Biso   1.000  C
  C10      1.0000 0.71410  0.46850  0.05590  Biso   1.000  C
  H1       1.0000 0.29260  0.45280  0.96870  Biso   1.000  H
  H2       1.0000 0.70740  0.54720  0.03130  Biso   1.000  H
  C11      1.0000 0.21100  0.57820  0.01740  Biso   1.000  C
  C12      1.0000 0.78900  0.42180  0.98260  Biso   1.000  C
  C13      1.0000 0.21140  0.69390  0.98620  Biso   1.000  C
  C14      1.0000 0.78860  0.30610  0.01380  Biso   1.000  C
  H3       1.0000 0.16200  0.72390  0.03740  Biso   1.000  H
  H4       1.0000 0.83800  0.27610  0.96260  Biso   1.000  H
  C15      1.0000 0.41570  0.79670  0.67770  Biso   1.000  C
  C16      1.0000 0.58430  0.20330  0.32230  Biso   1.000  C
  C17      1.0000 0.41680  0.54920  0.75180  Biso   1.000  C
  C18      1.0000 0.58320  0.45080  0.24820  Biso   1.000  C
  O1       1.0000 0.16230  0.40110  0.16540  Biso   1.000  O
  O2       1.0000 0.83770  0.59890  0.83460  Biso   1.000  O
  O3       1.0000 0.02210  0.54890  0.18830  Biso   1.000  O
  O4       1.0000 0.97790  0.45110  0.81170  Biso   1.000  O
  O5       1.0000 0.51540  0.45410  0.78800  Biso   1.000  O
  O6       1.0000 0.48460  0.54590  0.21200  Biso   1.000  O
  O7       1.0000 0.36460  0.60260  0.65690  Biso   1.000  O
  O8       1.0000 0.63540  0.39740  0.34310  Biso   1.000  O
  O9       1.0000 0.59920  0.78950  0.63730  Biso   1.000  O
  O10      1.0000 0.40080  0.21050  0.36270  Biso   1.000  O
  O11      1.0000 0.27730  0.86310  0.62482  Biso   1.000  O
  O12      1.0000 0.72270  0.13690  0.37518  Biso   1.000  O
  O13      1.0000 0.16430  0.93490  0.89580  Biso   1.000  O
  O14      1.0000 0.83570  0.06510  0.10420  Biso   1.000  O
  O15      1.0000 0.43540  0.94091  0.76839  Biso   1.000  O
  O16      1.0000 0.56460  0.05909  0.23161  Biso   1.000  O
  O17      1.0000 0.01730  0.31570  0.43260  Biso   1.000  O
  O18      1.0000 0.98270  0.68430  0.56740  Biso   1.000  O
  H5       1.0000 0.13160  0.31360  0.39430  Biso   1.000  H
  H6       1.0000 0.86840  0.68640  0.60570  Biso   1.000  H
  H7       1.0000 0.91880  0.34220  0.39560  Biso   1.000  H
  H8       1.0000 0.08120  0.65780  0.60440  Biso   1.000  H
  O19      1.0000 0.38710  0.24050  0.87120  Biso   1.000  O
  O20      1.0000 0.61290  0.75950  0.12880  Biso   1.000  O
  H9       1.0000 0.32770  0.20630  0.93670  Biso   1.000  H
  H10      1.0000 0.67230  0.79370  0.06330  Biso   1.000  H
  H11      1.0000 0.43140  0.29830  0.86940  Biso   1.000  H
  H12      1.0000 0.56860  0.70170  0.13060  Biso   1.000  H
  O21      1.0000 0.24990  0.44920  0.58590  Biso   1.000  O
  O22      1.0000 0.75010  0.55080  0.41410  Biso   1.000  O
  H13      1.0000 0.28510  0.48320  0.61930  Biso   1.000  H
  H14      1.0000 0.71490  0.51680  0.38070  Biso   1.000  H
  H15      1.0000 0.27120  0.49380  0.51770  Biso   1.000  H
  H16      1.0000 0.72880  0.50620  0.48230  Biso   1.000  H
  O23      1.0000 0.82680  0.39770  0.63570  Biso   1.000  O
  O24      1.0000 0.17320  0.60230  0.36430  Biso   1.000  O
  H17      1.0000 0.75120  0.39450  0.69410  Biso   1.000  H
  H18      1.0000 0.24880  0.60550  0.30590  Biso   1.000  H
  H19      1.0000 0.93370  0.42280  0.63900  Biso   1.000  H
  H20      1.0000 0.06630  0.57720  0.36100  Biso   1.000  H
  O25      1.0000 0.87720  0.86700  0.71410  Biso   1.000  O
  O26      1.0000 0.12280  0.13300  0.28590  Biso   1.000  O
  H21      1.0000 0.00520  0.86510  0.69650  Biso   1.000  H
  H22      1.0000 0.99480  0.13490  0.30350  Biso   1.000  H
  H23      1.0000 0.82290  0.81710  0.70680  Biso   1.000  H
  H24      1.0000 0.17710  0.18290  0.29320  Biso   1.000  H
  O27      1.0000 0.76670  0.89450  0.91210  Biso   1.000  O
  O28      1.0000 0.23330  0.10550  0.08790  Biso   1.000  O
  H25      1.0000 0.87930  0.90890  0.92120  Biso   1.000  H
  H26      1.0000 0.12070  0.09110  0.07880  Biso   1.000  H
  H27      1.0000 0.77990  0.87370  0.86070  Biso   1.000  H
  H28      1.0000 0.22010  0.12630  0.13930  Biso   1.000  H
  O29      1.0000 0.19100  0.15590  0.76080  Biso   1.000  O
  O30      1.0000 0.80900  0.84410  0.23920  Biso   1.000  O
  H29      1.0000 0.18050  0.09290  0.81750  Biso   1.000  H
  H30      1.0000 0.81950  0.90710  0.18250  Biso   1.000  H
  H31      1.0000 0.22540  0.19290  0.79140  Biso   1.000  H
  H32      1.0000 0.77460  0.80710  0.20860  Biso   1.000  H
  O31      1.0000 0.64400  0.11870  0.78090  Biso   1.000  O
  O32      1.0000 0.35600  0.88130  0.21910  Biso   1.000  O
  H33      1.0000 0.67070  0.05280  0.82950  Biso   1.000  H
  H34      1.0000 0.32930  0.94720  0.17050  Biso   1.000  H
  H35      1.0000 0.57490  0.15990  0.80950  Biso   1.000  H
  H36      1.0000 0.42510  0.84010  0.19050  Biso   1.000  H
  O33      1.0000 0.27280  0.09550  0.57850  Biso   1.000  O
  O34      1.0000 0.72720  0.90450  0.42150  Biso   1.000  O
  H37      1.0000 0.29660  0.13610  0.50940  Biso   1.000  H
  H38      1.0000 0.70340  0.86390  0.49060  Biso   1.000  H
  H39      1.0000 0.28140  0.02660  0.59040  Biso   1.000  H
  H40      1.0000 0.71860  0.97340  0.40960  Biso   1.000  H
  O35      1.0000 0.73420  0.07950  0.59250  Biso   1.000  O
  O36      1.0000 0.26580  0.92050  0.40750  Biso   1.000  O
  H41      1.0000 0.76230  0.01260  0.63880  Biso   1.000  H
  H42      1.0000 0.23770  0.98740  0.36120  Biso   1.000  H
  H43      1.0000 0.73670  0.08660  0.52750  Biso   1.000  H
  H44      1.0000 0.26330  0.91340  0.47250  Biso   1.000  H
  O37      1.0000 0.50120  0.27860  0.56970  Biso   1.000  O
  O38      1.0000 0.49880  0.72140  0.43030  Biso   1.000  O
  H45      1.0000 0.52590  0.30050  0.50030  Biso   1.000  H
  H46      1.0000 0.47410  0.69950  0.49970  Biso   1.000  H
  H47      1.0000 0.43040  0.32880  0.58570  Biso   1.000  H
  H48      1.0000 0.56960  0.67120  0.41430  Biso   1.000  H
