data_image0
_cell_length_a       20.253
_cell_length_b       10.732
_cell_length_c       17.228
_cell_angle_alpha    90
_cell_angle_beta     90
_cell_angle_gamma    90

_symmetry_space_group_name_H-M    "P 1"
_symmetry_int_tables_number       1

loop_
  _symmetry_equiv_pos_as_xyz
  'x, y, z'

loop_
  _atom_site_label
  _atom_site_occupancy
  _atom_site_fract_x
  _atom_site_fract_y
  _atom_site_fract_z
  _atom_site_thermal_displace_type
  _atom_site_B_iso_or_equiv
  _atom_site_type_symbol
  Cu1      1.0000 0.41936  0.57242  0.25910  Biso   1.000  Cu
  Cu2      1.0000 0.58064  0.42758  0.75910  Biso   1.000  Cu
  Cu3      1.0000 0.91936  0.92758  0.25910  Biso   1.000  Cu
  Cu4      1.0000 0.08064  0.07242  0.75910  Biso   1.000  Cu
  N1       1.0000 0.35058  0.43800  0.27778  Biso   1.000  N
  N2       1.0000 0.64942  0.56200  0.77778  Biso   1.000  N
  N3       1.0000 0.85058  0.06200  0.27778  Biso   1.000  N
  N4       1.0000 0.14942  0.93800  0.77778  Biso   1.000  N
  C1       1.0000 0.32045  0.42830  0.34660  Biso   1.000  C
  C2       1.0000 0.67955  0.57170  0.84660  Biso   1.000  C
  C3       1.0000 0.82045  0.07170  0.34660  Biso   1.000  C
  C4       1.0000 0.17955  0.92830  0.84660  Biso   1.000  C
  H1       1.0000 0.32990  0.48710  0.38460  Biso   1.000  H
  H2       1.0000 0.67010  0.51290  0.88460  Biso   1.000  H
  H3       1.0000 0.82990  0.01290  0.38460  Biso   1.000  H
  H4       1.0000 0.17010  0.98710  0.88460  Biso   1.000  H
  C5       1.0000 0.27606  0.33520  0.36380  Biso   1.000  C
  C6       1.0000 0.72394  0.66480  0.86380  Biso   1.000  C
  C7       1.0000 0.77606  0.16480  0.36380  Biso   1.000  C
  C8       1.0000 0.22394  0.83520  0.86380  Biso   1.000  C
  H5       1.0000 0.25590  0.33220  0.41230  Biso   1.000  H
  H6       1.0000 0.74410  0.66780  0.91230  Biso   1.000  H
  H7       1.0000 0.75590  0.16780  0.41230  Biso   1.000  H
  H8       1.0000 0.24410  0.83220  0.91230  Biso   1.000  H
  C9       1.0000 0.26177  0.24690  0.30890  Biso   1.000  C
  C10      1.0000 0.73823  0.75310  0.80890  Biso   1.000  C
  C11      1.0000 0.76177  0.25310  0.30890  Biso   1.000  C
  C12      1.0000 0.23823  0.74690  0.80890  Biso   1.000  C
  C13      1.0000 0.29200  0.25650  0.23720  Biso   1.000  C
  C14      1.0000 0.70800  0.74350  0.73720  Biso   1.000  C
  C15      1.0000 0.79200  0.24350  0.23720  Biso   1.000  C
  C16      1.0000 0.20800  0.75650  0.73720  Biso   1.000  C
  H9       1.0000 0.28330  0.19870  0.19830  Biso   1.000  H
  H10      1.0000 0.71670  0.80130  0.69830  Biso   1.000  H
  H11      1.0000 0.78330  0.30130  0.19830  Biso   1.000  H
  H12      1.0000 0.21670  0.69870  0.69830  Biso   1.000  H
  C17      1.0000 0.33519  0.35310  0.22450  Biso   1.000  C
  C18      1.0000 0.66481  0.64690  0.72450  Biso   1.000  C
  C19      1.0000 0.83519  0.14690  0.22450  Biso   1.000  C
  C20      1.0000 0.16481  0.85310  0.72450  Biso   1.000  C
  H13      1.0000 0.35480  0.35960  0.17580  Biso   1.000  H
  H14      1.0000 0.64520  0.64040  0.67580  Biso   1.000  H
  H15      1.0000 0.85480  0.14040  0.17580  Biso   1.000  H
  H16      1.0000 0.14520  0.85960  0.67580  Biso   1.000  H
  S1       1.0000 0.20343  0.13124  0.33513  Biso   1.000  S
  S2       1.0000 0.79657  0.86876  0.83513  Biso   1.000  S
  S3       1.0000 0.70343  0.36876  0.33513  Biso   1.000  S
  S4       1.0000 0.29657  0.63124  0.83513  Biso   1.000  S
  S5       1.0000 0.19610  0.01528  0.24265  Biso   1.000  S
  S6       1.0000 0.80390  0.98472  0.74265  Biso   1.000  S
  S7       1.0000 0.69610  0.48472  0.24265  Biso   1.000  S
  S8       1.0000 0.30390  0.51528  0.74265  Biso   1.000  S
  C21      1.0000 0.29384  0.69650  0.22250  Biso   1.000  C
  C22      1.0000 0.70616  0.30350  0.72250  Biso   1.000  C
  C23      1.0000 0.79384  0.80350  0.22250  Biso   1.000  C
  C24      1.0000 0.20616  0.19650  0.72250  Biso   1.000  C
  H17      1.0000 0.28740  0.62340  0.19450  Biso   1.000  H
  H18      1.0000 0.71260  0.37660  0.69450  Biso   1.000  H
  H19      1.0000 0.78740  0.87660  0.19450  Biso   1.000  H
  H20      1.0000 0.21260  0.12340  0.69450  Biso   1.000  H
  C25      1.0000 0.24750  0.78920  0.21610  Biso   1.000  C
  C26      1.0000 0.75250  0.21080  0.71610  Biso   1.000  C
  C27      1.0000 0.74750  0.71080  0.21610  Biso   1.000  C
  C28      1.0000 0.25250  0.28920  0.71610  Biso   1.000  C
  H21      1.0000 0.21100  0.77960  0.18390  Biso   1.000  H
  H22      1.0000 0.78900  0.22040  0.68390  Biso   1.000  H
  H23      1.0000 0.71100  0.72040  0.18390  Biso   1.000  H
  H24      1.0000 0.28900  0.27960  0.68390  Biso   1.000  H
  C29      1.0000 0.25621  0.89720  0.25860  Biso   1.000  C
  C30      1.0000 0.74379  0.10280  0.75860  Biso   1.000  C
  C31      1.0000 0.75621  0.60280  0.25860  Biso   1.000  C
  C32      1.0000 0.24379  0.39720  0.75860  Biso   1.000  C
  C33      1.0000 0.31050  0.90820  0.30580  Biso   1.000  C
  C34      1.0000 0.68950  0.09180  0.80580  Biso   1.000  C
  C35      1.0000 0.81050  0.59180  0.30580  Biso   1.000  C
  C36      1.0000 0.18950  0.40820  0.80580  Biso   1.000  C
  H25      1.0000 0.31710  0.97950  0.33560  Biso   1.000  H
  H26      1.0000 0.68290  0.02050  0.83560  Biso   1.000  H
  H27      1.0000 0.81710  0.52050  0.33560  Biso   1.000  H
  H28      1.0000 0.18290  0.47950  0.83560  Biso   1.000  H
  C37      1.0000 0.35480  0.81160  0.30810  Biso   1.000  C
  C38      1.0000 0.64520  0.18840  0.80810  Biso   1.000  C
  C39      1.0000 0.85480  0.68840  0.30810  Biso   1.000  C
  C40      1.0000 0.14520  0.31160  0.80810  Biso   1.000  C
  H29      1.0000 0.39170  0.81980  0.33980  Biso   1.000  H
  H30      1.0000 0.60830  0.18020  0.83980  Biso   1.000  H
  H31      1.0000 0.89170  0.68020  0.33980  Biso   1.000  H
  H32      1.0000 0.10830  0.31980  0.83980  Biso   1.000  H
  N5       1.0000 0.34792  0.70580  0.26704  Biso   1.000  N
  N6       1.0000 0.65208  0.29420  0.76704  Biso   1.000  N
  N7       1.0000 0.84792  0.79420  0.26704  Biso   1.000  N
  N8       1.0000 0.15208  0.20580  0.76704  Biso   1.000  N
  N9       1.0000 0.48781  0.43530  0.23799  Biso   1.000  N
  N10      1.0000 0.51219  0.56470  0.73799  Biso   1.000  N
  N11      1.0000 0.98781  0.06470  0.23799  Biso   1.000  N
  N12      1.0000 0.01219  0.93530  0.73799  Biso   1.000  N
  C41      1.0000 0.49242  0.32870  0.27800  Biso   1.000  C
  C42      1.0000 0.50758  0.67130  0.77800  Biso   1.000  C
  C43      1.0000 0.99242  0.17130  0.27800  Biso   1.000  C
  C44      1.0000 0.00758  0.82870  0.77800  Biso   1.000  C
  H33      1.0000 0.46670  0.31920  0.32240  Biso   1.000  H
  H34      1.0000 0.53330  0.68080  0.82240  Biso   1.000  H
  H35      1.0000 0.96670  0.18080  0.32240  Biso   1.000  H
  H36      1.0000 0.03330  0.81920  0.82240  Biso   1.000  H
  C45      1.0000 0.53371  0.23200  0.25640  Biso   1.000  C
  C46      1.0000 0.46629  0.76800  0.75640  Biso   1.000  C
  C47      1.0000 0.03371  0.26800  0.25640  Biso   1.000  C
  C48      1.0000 0.96629  0.73200  0.75640  Biso   1.000  C
  H37      1.0000 0.53610  0.16030  0.28660  Biso   1.000  H
  H38      1.0000 0.46390  0.83970  0.78660  Biso   1.000  H
  H39      1.0000 0.03610  0.33970  0.28660  Biso   1.000  H
  H40      1.0000 0.96390  0.66030  0.78660  Biso   1.000  H
  C49      1.0000 0.57126  0.24250  0.19010  Biso   1.000  C
  C50      1.0000 0.42874  0.75750  0.69010  Biso   1.000  C
  C51      1.0000 0.07126  0.25750  0.19010  Biso   1.000  C
  C52      1.0000 0.92874  0.74250  0.69010  Biso   1.000  C
  C53      1.0000 0.56681  0.35310  0.14780  Biso   1.000  C
  C54      1.0000 0.43319  0.64690  0.64780  Biso   1.000  C
  C55      1.0000 0.06681  0.14690  0.14780  Biso   1.000  C
  C56      1.0000 0.93319  0.85310  0.64780  Biso   1.000  C
  H41      1.0000 0.59120  0.36420  0.10260  Biso   1.000  H
  H42      1.0000 0.40880  0.63580  0.60260  Biso   1.000  H
  H43      1.0000 0.09120  0.13580  0.10260  Biso   1.000  H
  H44      1.0000 0.90880  0.86420  0.60260  Biso   1.000  H
  C57      1.0000 0.52524  0.44540  0.17470  Biso   1.000  C
  C58      1.0000 0.47476  0.55460  0.67470  Biso   1.000  C
  C59      1.0000 0.02524  0.05460  0.17470  Biso   1.000  C
  C60      1.0000 0.97476  0.94540  0.67470  Biso   1.000  C
  H45      1.0000 0.52320  0.51950  0.14680  Biso   1.000  H
  H46      1.0000 0.47680  0.48050  0.64680  Biso   1.000  H
  H47      1.0000 0.02320  0.98050  0.14680  Biso   1.000  H
  H48      1.0000 0.97680  0.01950  0.64680  Biso   1.000  H
  S9       1.0000 0.62621  0.12937  0.15263  Biso   1.000  S
  S10      1.0000 0.37379  0.87063  0.65263  Biso   1.000  S
  S11      1.0000 0.12621  0.37063  0.15263  Biso   1.000  S
  S12      1.0000 0.87379  0.62937  0.65263  Biso   1.000  S
  S13      1.0000 0.64454  0.01289  0.24275  Biso   1.000  S
  S14      1.0000 0.35546  0.98711  0.74275  Biso   1.000  S
  S15      1.0000 0.14454  0.48711  0.24275  Biso   1.000  S
  S16      1.0000 0.85546  0.51289  0.74275  Biso   1.000  S
  C61      1.0000 0.48282  0.80160  0.19730  Biso   1.000  C
  C62      1.0000 0.51718  0.19840  0.69730  Biso   1.000  C
  C63      1.0000 0.98282  0.69840  0.19730  Biso   1.000  C
  C64      1.0000 0.01718  0.30160  0.69730  Biso   1.000  C
  H49      1.0000 0.44580  0.80320  0.16530  Biso   1.000  H
  H50      1.0000 0.55420  0.19680  0.66530  Biso   1.000  H
  H51      1.0000 0.94580  0.69680  0.16530  Biso   1.000  H
  H52      1.0000 0.05420  0.30320  0.66530  Biso   1.000  H
  C65      1.0000 0.52745  0.89800  0.19220  Biso   1.000  C
  C66      1.0000 0.47255  0.10200  0.69220  Biso   1.000  C
  C67      1.0000 0.02745  0.60200  0.19220  Biso   1.000  C
  C68      1.0000 0.97255  0.39800  0.69220  Biso   1.000  C
  H53      1.0000 0.52040  0.96360  0.15800  Biso   1.000  H
  H54      1.0000 0.47960  0.03640  0.65800  Biso   1.000  H
  H55      1.0000 0.02040  0.53640  0.15800  Biso   1.000  H
  H56      1.0000 0.97960  0.46360  0.65800  Biso   1.000  H
  C69      1.0000 0.58314  0.89560  0.23910  Biso   1.000  C
  C70      1.0000 0.41686  0.10440  0.73910  Biso   1.000  C
  C71      1.0000 0.08314  0.60440  0.23910  Biso   1.000  C
  C72      1.0000 0.91686  0.39560  0.73910  Biso   1.000  C
  C73      1.0000 0.59177  0.79510  0.28840  Biso   1.000  C
  C74      1.0000 0.40823  0.20490  0.78840  Biso   1.000  C
  C75      1.0000 0.09177  0.70490  0.28840  Biso   1.000  C
  C76      1.0000 0.90823  0.29510  0.78840  Biso   1.000  C
  H57      1.0000 0.62900  0.79040  0.32000  Biso   1.000  H
  H58      1.0000 0.37100  0.20960  0.82000  Biso   1.000  H
  H59      1.0000 0.12900  0.70960  0.32000  Biso   1.000  H
  H60      1.0000 0.87100  0.29040  0.82000  Biso   1.000  H
  C77      1.0000 0.54505  0.70220  0.29050  Biso   1.000  C
  C78      1.0000 0.45495  0.29780  0.79050  Biso   1.000  C
  C79      1.0000 0.04505  0.79780  0.29050  Biso   1.000  C
  C80      1.0000 0.95495  0.20220  0.79050  Biso   1.000  C
  H61      1.0000 0.55150  0.63490  0.32360  Biso   1.000  H
  H62      1.0000 0.44850  0.36510  0.82360  Biso   1.000  H
  H63      1.0000 0.05150  0.86510  0.32360  Biso   1.000  H
  H64      1.0000 0.94850  0.13490  0.82360  Biso   1.000  H
  N13      1.0000 0.49040  0.70520  0.24643  Biso   1.000  N
  N14      1.0000 0.50960  0.29480  0.74643  Biso   1.000  N
  N15      1.0000 0.99040  0.79480  0.24643  Biso   1.000  N
  N16      1.0000 0.00960  0.20520  0.74643  Biso   1.000  N
  O1       1.0000 0.40118  0.57770  0.11927  Biso   1.000  O
  O2       1.0000 0.59882  0.42230  0.61927  Biso   1.000  O
  O3       1.0000 0.90118  0.92230  0.11927  Biso   1.000  O
  O4       1.0000 0.09882  0.07770  0.61927  Biso   1.000  O
  H65      1.0000 0.42780  0.54120  0.09250  Biso   1.000  H
  H66      1.0000 0.57220  0.45880  0.59250  Biso   1.000  H
  H67      1.0000 0.92780  0.95880  0.09250  Biso   1.000  H
  H68      1.0000 0.07220  0.04120  0.59250  Biso   1.000  H
  H69      1.0000 0.37170  0.62340  0.10600  Biso   1.000  H
  H70      1.0000 0.62830  0.37660  0.60600  Biso   1.000  H
  H71      1.0000 0.87170  0.87660  0.10600  Biso   1.000  H
  H72      1.0000 0.12830  0.12340  0.60600  Biso   1.000  H
  O5       1.0000 0.43965  0.60610  0.40149  Biso   1.000  O
  O6       1.0000 0.56035  0.39390  0.90149  Biso   1.000  O
  O7       1.0000 0.93965  0.89390  0.40149  Biso   1.000  O
  O8       1.0000 0.06035  0.10610  0.90149  Biso   1.000  O
  H73      1.0000 0.45760  0.55210  0.41930  Biso   1.000  H
  H74      1.0000 0.54240  0.44790  0.91930  Biso   1.000  H
  H75      1.0000 0.95760  0.94790  0.41930  Biso   1.000  H
  H76      1.0000 0.04240  0.05210  0.91930  Biso   1.000  H
  H77      1.0000 0.41140  0.63750  0.42770  Biso   1.000  H
  H78      1.0000 0.58860  0.36250  0.92770  Biso   1.000  H
  H79      1.0000 0.91140  0.86250  0.42770  Biso   1.000  H
  H80      1.0000 0.08860  0.13750  0.92770  Biso   1.000  H
  O9       1.0000 0.18807  0.19020  0.53050  Biso   1.000  O
  O10      1.0000 0.81193  0.80980  0.03050  Biso   1.000  O
  O11      1.0000 0.68807  0.30980  0.53050  Biso   1.000  O
  O12      1.0000 0.31193  0.69020  0.03050  Biso   1.000  O
  H81      1.0000 0.22460  0.16030  0.52940  Biso   1.000  H
  H82      1.0000 0.77540  0.83970  0.02940  Biso   1.000  H
  H83      1.0000 0.72460  0.33970  0.52940  Biso   1.000  H
  H84      1.0000 0.27540  0.66030  0.02940  Biso   1.000  H
  H85      1.0000 0.19090  0.25820  0.54220  Biso   1.000  H
  H86      1.0000 0.80910  0.74180  0.04220  Biso   1.000  H
  H87      1.0000 0.69090  0.24180  0.54220  Biso   1.000  H
  H88      1.0000 0.30910  0.75820  0.04220  Biso   1.000  H
  O13      1.0000 0.69101  0.92230  0.99440  Biso   1.000  O
  O14      1.0000 0.30899  0.07770  0.49440  Biso   1.000  O
  O15      1.0000 0.19101  0.57770  0.99440  Biso   1.000  O
  O16      1.0000 0.80899  0.42230  0.49440  Biso   1.000  O
  O17      1.0000 0.65614  0.75850  0.05590  Biso   1.000  O
  O18      1.0000 0.34386  0.24150  0.55590  Biso   1.000  O
  O19      1.0000 0.15614  0.74150  0.05590  Biso   1.000  O
  O20      1.0000 0.84386  0.25850  0.55590  Biso   1.000  O
  H89      1.0000 0.62450  0.70700  0.05090  Biso   1.000  H
  H90      1.0000 0.37550  0.29300  0.55090  Biso   1.000  H
  H91      1.0000 0.12450  0.79300  0.05090  Biso   1.000  H
  H92      1.0000 0.87550  0.20700  0.55090  Biso   1.000  H
  C81      1.0000 0.64630  0.85400  0.01280  Biso   1.000  C
  C82      1.0000 0.35370  0.14600  0.51280  Biso   1.000  C
  C83      1.0000 0.14630  0.64600  0.01280  Biso   1.000  C
  C84      1.0000 0.85370  0.35400  0.51280  Biso   1.000  C
  C85      1.0000 0.57687  0.88140  0.98490  Biso   1.000  C
  C86      1.0000 0.42313  0.11860  0.48490  Biso   1.000  C
  C87      1.0000 0.07687  0.61860  0.98490  Biso   1.000  C
  C88      1.0000 0.92313  0.38140  0.48490  Biso   1.000  C
  C89      1.0000 0.52332  0.79810  0.97820  Biso   1.000  C
  C90      1.0000 0.47668  0.20190  0.47820  Biso   1.000  C
  C91      1.0000 0.02332  0.70190  0.97820  Biso   1.000  C
  C92      1.0000 0.97668  0.29810  0.47820  Biso   1.000  C
  C93      1.0000 0.46327  0.84280  0.95380  Biso   1.000  C
  C94      1.0000 0.53673  0.15720  0.45380  Biso   1.000  C
  C95      1.0000 0.96327  0.65720  0.95380  Biso   1.000  C
  C96      1.0000 0.03673  0.34280  0.45380  Biso   1.000  C
  H93      1.0000 0.42770  0.78850  0.95010  Biso   1.000  H
  H94      1.0000 0.57230  0.21150  0.45010  Biso   1.000  H
  H95      1.0000 0.92770  0.71150  0.95010  Biso   1.000  H
  H96      1.0000 0.07230  0.28850  0.45010  Biso   1.000  H
  C97      1.0000 0.45450  0.96760  0.93440  Biso   1.000  C
  C98      1.0000 0.54550  0.03240  0.43440  Biso   1.000  C
  C99      1.0000 0.95450  0.53240  0.93440  Biso   1.000  C
  C100     1.0000 0.04550  0.46760  0.43440  Biso   1.000  C
  H97      1.0000 0.41330  0.99610  0.91840  Biso   1.000  H
  H98      1.0000 0.58670  0.00390  0.41840  Biso   1.000  H
  H99      1.0000 0.91330  0.50390  0.91840  Biso   1.000  H
  H100     1.0000 0.08670  0.49610  0.41840  Biso   1.000  H
  C101     1.0000 0.50700  0.04830  0.93900  Biso   1.000  C
  C102     1.0000 0.49300  0.95170  0.43900  Biso   1.000  C
  C103     1.0000 0.00700  0.45170  0.93900  Biso   1.000  C
  C104     1.0000 0.99300  0.54830  0.43900  Biso   1.000  C
  H101     1.0000 0.50160  0.13180  0.92600  Biso   1.000  H
  H102     1.0000 0.49840  0.86820  0.42600  Biso   1.000  H
  H103     1.0000 0.00160  0.36820  0.92600  Biso   1.000  H
  H104     1.0000 0.99840  0.63180  0.42600  Biso   1.000  H
  C105     1.0000 0.56750  0.00500  0.96300  Biso   1.000  C
  C106     1.0000 0.43250  0.99500  0.46300  Biso   1.000  C
  C107     1.0000 0.06750  0.49500  0.96300  Biso   1.000  C
  C108     1.0000 0.93250  0.50500  0.46300  Biso   1.000  C
  H105     1.0000 0.60310  0.05970  0.96460  Biso   1.000  H
  H106     1.0000 0.39690  0.94030  0.46460  Biso   1.000  H
  H107     1.0000 0.10310  0.44030  0.96460  Biso   1.000  H
  H108     1.0000 0.89690  0.55970  0.46460  Biso   1.000  H
  C109     1.0000 0.52380  0.65910  0.99600  Biso   1.000  C
  C110     1.0000 0.47620  0.34090  0.49600  Biso   1.000  C
  C111     1.0000 0.02380  0.84090  0.99600  Biso   1.000  C
  C112     1.0000 0.97620  0.15910  0.49600  Biso   1.000  C
  O21      1.0000 0.56712  0.61840  0.04330  Biso   1.000  O
  O22      1.0000 0.43288  0.38160  0.54330  Biso   1.000  O
  O23      1.0000 0.06712  0.88160  0.04330  Biso   1.000  O
  O24      1.0000 0.93288  0.11840  0.54330  Biso   1.000  O
  O25      1.0000 0.48227  0.59280  0.96570  Biso   1.000  O
  O26      1.0000 0.51773  0.40720  0.46570  Biso   1.000  O
  O27      1.0000 0.98227  0.90720  0.96570  Biso   1.000  O
  O28      1.0000 0.01773  0.09280  0.46570  Biso   1.000  O
  O29      1.0000 0.30452  0.54850  0.52104  Biso   1.000  O
  O30      1.0000 0.69548  0.45150  0.02104  Biso   1.000  O
  O31      1.0000 0.80452  0.95150  0.52104  Biso   1.000  O
  O32      1.0000 0.19548  0.04850  0.02104  Biso   1.000  O
  H109     1.0000 0.27020  0.50890  0.53800  Biso   1.000  H
  H110     1.0000 0.72980  0.49110  0.03800  Biso   1.000  H
  H111     1.0000 0.77020  0.99110  0.53800  Biso   1.000  H
  H112     1.0000 0.22980  0.00890  0.03800  Biso   1.000  H
  O33      1.0000 0.33393  0.72960  0.47780  Biso   1.000  O
  O34      1.0000 0.66607  0.27040  0.97780  Biso   1.000  O
  O35      1.0000 0.83393  0.77040  0.47780  Biso   1.000  O
  O36      1.0000 0.16607  0.22960  0.97780  Biso   1.000  O
  C113     1.0000 0.29030  0.66100  0.50270  Biso   1.000  C
  C114     1.0000 0.70970  0.33900  0.00270  Biso   1.000  C
  C115     1.0000 0.79030  0.83900  0.50270  Biso   1.000  C
  C116     1.0000 0.20970  0.16100  0.00270  Biso   1.000  C
  C117     1.0000 0.21993  0.70790  0.50990  Biso   1.000  C
  C118     1.0000 0.78007  0.29210  0.00990  Biso   1.000  C
  C119     1.0000 0.71993  0.79210  0.50990  Biso   1.000  C
  C120     1.0000 0.28007  0.20790  0.00990  Biso   1.000  C
  C121     1.0000 0.16576  0.64710  0.54440  Biso   1.000  C
  C122     1.0000 0.83424  0.35290  0.04440  Biso   1.000  C
  C123     1.0000 0.66576  0.85290  0.54440  Biso   1.000  C
  C124     1.0000 0.33424  0.14710  0.04440  Biso   1.000  C
  C125     1.0000 0.10515  0.70740  0.54510  Biso   1.000  C
  C126     1.0000 0.89485  0.29260  0.04510  Biso   1.000  C
  C127     1.0000 0.60515  0.79260  0.54510  Biso   1.000  C
  C128     1.0000 0.39485  0.20740  0.04510  Biso   1.000  C
  H113     1.0000 0.06960  0.66880  0.56930  Biso   1.000  H
  H114     1.0000 0.93040  0.33120  0.06930  Biso   1.000  H
  H115     1.0000 0.56960  0.83120  0.56930  Biso   1.000  H
  H116     1.0000 0.43040  0.16880  0.06930  Biso   1.000  H
  C129     1.0000 0.09560  0.82290  0.51110  Biso   1.000  C
  C130     1.0000 0.90440  0.17710  0.01110  Biso   1.000  C
  C131     1.0000 0.59560  0.67710  0.51110  Biso   1.000  C
  C132     1.0000 0.40440  0.32290  0.01110  Biso   1.000  C
  H117     1.0000 0.05400  0.85960  0.51050  Biso   1.000  H
  H118     1.0000 0.94600  0.14040  0.01050  Biso   1.000  H
  H119     1.0000 0.55400  0.64040  0.51050  Biso   1.000  H
  H120     1.0000 0.44600  0.35960  0.01050  Biso   1.000  H
  C133     1.0000 0.14880  0.88230  0.47820  Biso   1.000  C
  C134     1.0000 0.85120  0.11770  0.97820  Biso   1.000  C
  C135     1.0000 0.64880  0.61770  0.47820  Biso   1.000  C
  C136     1.0000 0.35120  0.38230  0.97820  Biso   1.000  C
  H121     1.0000 0.14360  0.96050  0.45580  Biso   1.000  H
  H122     1.0000 0.85640  0.03950  0.95580  Biso   1.000  H
  H123     1.0000 0.64360  0.53950  0.45580  Biso   1.000  H
  H124     1.0000 0.35640  0.46050  0.95580  Biso   1.000  H
  C137     1.0000 0.20960  0.82600  0.47870  Biso   1.000  C
  C138     1.0000 0.79040  0.17400  0.97870  Biso   1.000  C
  C139     1.0000 0.70960  0.67400  0.47870  Biso   1.000  C
  C140     1.0000 0.29040  0.32600  0.97870  Biso   1.000  C
  H125     1.0000 0.24530  0.86830  0.45730  Biso   1.000  H
  H126     1.0000 0.75470  0.13170  0.95730  Biso   1.000  H
  H127     1.0000 0.74530  0.63170  0.45730  Biso   1.000  H
  H128     1.0000 0.25470  0.36830  0.95730  Biso   1.000  H
  C141     1.0000 0.16300  0.51720  0.58150  Biso   1.000  C
  C142     1.0000 0.83700  0.48280  0.08150  Biso   1.000  C
  C143     1.0000 0.66300  0.98280  0.58150  Biso   1.000  C
  C144     1.0000 0.33700  0.01720  0.08150  Biso   1.000  C
  O37      1.0000 0.11684  0.49050  0.62300  Biso   1.000  O
  O38      1.0000 0.88316  0.50950  0.12300  Biso   1.000  O
  O39      1.0000 0.61684  0.00950  0.62300  Biso   1.000  O
  O40      1.0000 0.38316  0.99050  0.12300  Biso   1.000  O
  O41      1.0000 0.20996  0.44010  0.56530  Biso   1.000  O
  O42      1.0000 0.79004  0.55990  0.06530  Biso   1.000  O
  O43      1.0000 0.70996  0.05990  0.56530  Biso   1.000  O
  O44      1.0000 0.29004  0.94010  0.06530  Biso   1.000  O
