data_image0
_cell_length_a       8.1148
_cell_length_b       10.2084
_cell_length_c       12.339
_cell_angle_alpha    105.745
_cell_angle_beta     95.226
_cell_angle_gamma    110.908

_symmetry_space_group_name_H-M    "P 1"
_symmetry_int_tables_number       1

loop_
  _symmetry_equiv_pos_as_xyz
  'x, y, z'

loop_
  _atom_site_label
  _atom_site_occupancy
  _atom_site_fract_x
  _atom_site_fract_y
  _atom_site_fract_z
  _atom_site_thermal_displace_type
  _atom_site_B_iso_or_equiv
  _atom_site_type_symbol
  Cu1      1.0000 0.33229  0.44130  0.12150  Biso   1.000  Cu
  Cu2      1.0000 0.66771  0.55870  0.87850  Biso   1.000  Cu
  O1       1.0000 0.49580  0.33653  0.11534  Biso   1.000  O
  O2       1.0000 0.50420  0.66347  0.88466  Biso   1.000  O
  O3       1.0000 0.61640  0.38780  0.96995  Biso   1.000  O
  O4       1.0000 0.38360  0.61220  0.03005  Biso   1.000  O
  O5       1.0000 0.12770  0.48411  0.17813  Biso   1.000  O
  O6       1.0000 0.87230  0.51589  0.82187  Biso   1.000  O
  O7       1.0000 0.14400  0.33660  0.27766  Biso   1.000  O
  O8       1.0000 0.85600  0.66340  0.72234  Biso   1.000  O
  N1       1.0000 0.15980  0.28440  0.97818  Biso   1.000  N
  N2       1.0000 0.84020  0.71560  0.02182  Biso   1.000  N
  N3       1.0000 0.49980  0.59940  0.26580  Biso   1.000  N
  N4       1.0000 0.50020  0.40060  0.73420  Biso   1.000  N
  N5       1.0000 0.59460  0.06020  0.17360  Biso   1.000  N
  N6       1.0000 0.40540  0.93980  0.82640  Biso   1.000  N
  N7       1.0000 0.81640  0.28370  0.45260  Biso   1.000  N
  N8       1.0000 0.18360  0.71630  0.54740  Biso   1.000  N
  C1       1.0000 0.13960  0.14260  0.94720  Biso   1.000  C
  C2       1.0000 0.86040  0.85740  0.05280  Biso   1.000  C
  H1       1.0000 0.21430  0.11670  0.99130  Biso   1.000  H
  H2       1.0000 0.78570  0.88330  0.00870  Biso   1.000  H
  C3       1.0000 0.01470  0.03330  0.85400  Biso   1.000  C
  C4       1.0000 0.98530  0.96670  0.14600  Biso   1.000  C
  H3       1.0000 0.00700  0.93650  0.83620  Biso   1.000  H
  H4       1.0000 0.99300  0.06350  0.16380  Biso   1.000  H
  C5       1.0000 0.90030  0.06640  0.78642  Biso   1.000  C
  C6       1.0000 0.09970  0.93360  0.21358  Biso   1.000  C
  C7       1.0000 0.92520  0.21420  0.81660  Biso   1.000  C
  C8       1.0000 0.07480  0.78580  0.18340  Biso   1.000  C
  H5       1.0000 0.85480  0.24340  0.77240  Biso   1.000  H
  H6       1.0000 0.14520  0.75660  0.22760  Biso   1.000  H
  C9       1.0000 0.05260  0.31770  0.91114  Biso   1.000  C
  C10      1.0000 0.94740  0.68230  0.08886  Biso   1.000  C
  H7       1.0000 0.06520  0.41580  0.92960  Biso   1.000  H
  H8       1.0000 0.93480  0.58420  0.07040  Biso   1.000  H
  C11      1.0000 0.76020  0.94860  0.68280  Biso   1.000  C
  C12      1.0000 0.23980  0.05140  0.31720  Biso   1.000  C
  H9       1.0000 0.71070  0.85560  0.69830  Biso   1.000  H
  H10      1.0000 0.28930  0.14440  0.30170  Biso   1.000  H
  H11      1.0000 0.66240  0.97860  0.66650  Biso   1.000  H
  H12      1.0000 0.33760  0.02140  0.33350  Biso   1.000  H
  C13      1.0000 0.84890  0.92930  0.58090  Biso   1.000  C
  C14      1.0000 0.15110  0.07070  0.41910  Biso   1.000  C
  H13      1.0000 0.94750  0.90100  0.59900  Biso   1.000  H
  H14      1.0000 0.05250  0.09900  0.40100  Biso   1.000  H
  H15      1.0000 0.89960  0.02370  0.56750  Biso   1.000  H
  H16      1.0000 0.10040  0.97630  0.43250  Biso   1.000  H
  C15      1.0000 0.72070  0.81350  0.47140  Biso   1.000  C
  C16      1.0000 0.27930  0.18650  0.52860  Biso   1.000  C
  C17      1.0000 0.67140  0.66310  0.45330  Biso   1.000  C
  C18      1.0000 0.32860  0.33690  0.54670  Biso   1.000  C
  H17      1.0000 0.71150  0.63160  0.51060  Biso   1.000  H
  H18      1.0000 0.28850  0.36840  0.48940  Biso   1.000  H
  C19      1.0000 0.56360  0.56090  0.35102  Biso   1.000  C
  C20      1.0000 0.43640  0.43910  0.64898  Biso   1.000  C
  H19      1.0000 0.53350  0.46070  0.34030  Biso   1.000  H
  H20      1.0000 0.46650  0.53930  0.65970  Biso   1.000  H
  C21      1.0000 0.54250  0.74400  0.28410  Biso   1.000  C
  C22      1.0000 0.45750  0.25600  0.71590  Biso   1.000  C
  H21      1.0000 0.49740  0.77250  0.22650  Biso   1.000  H
  H22      1.0000 0.50260  0.22750  0.77350  Biso   1.000  H
  C23      1.0000 0.64980  0.85180  0.38410  Biso   1.000  C
  C24      1.0000 0.35020  0.14820  0.61590  Biso   1.000  C
  H23      1.0000 0.67510  0.95100  0.39350  Biso   1.000  H
  H24      1.0000 0.32490  0.04900  0.60650  Biso   1.000  H
  C25      1.0000 0.59140  0.32680  0.04258  Biso   1.000  C
  C26      1.0000 0.40860  0.67320  0.95742  Biso   1.000  C
  C27      1.0000 0.69000  0.22370  0.04480  Biso   1.000  C
  C28      1.0000 0.31000  0.77630  0.95520  Biso   1.000  C
  H25      1.0000 0.66970  0.15830  0.96690  Biso   1.000  H
  H26      1.0000 0.33030  0.84170  0.03310  Biso   1.000  H
  H27      1.0000 0.81850  0.28370  0.07000  Biso   1.000  H
  H28      1.0000 0.18150  0.71630  0.93000  Biso   1.000  H
  C29      1.0000 0.63630  0.13390  0.11840  Biso   1.000  C
  C30      1.0000 0.36370  0.86610  0.88160  Biso   1.000  C
  C31      1.0000 0.08580  0.42220  0.25360  Biso   1.000  C
  C32      1.0000 0.91420  0.57780  0.74640  Biso   1.000  C
  C33      1.0000 0.94200  0.45500  0.32100  Biso   1.000  C
  C34      1.0000 0.05800  0.54500  0.67900  Biso   1.000  C
  H29      1.0000 0.99730  0.55600  0.37370  Biso   1.000  H
  H30      1.0000 0.00270  0.44400  0.62630  Biso   1.000  H
  H31      1.0000 0.84370  0.44900  0.26620  Biso   1.000  H
  H32      1.0000 0.15630  0.55100  0.73380  Biso   1.000  H
  C35      1.0000 0.86670  0.35610  0.38650  Biso   1.000  C
  C36      1.0000 0.13330  0.64390  0.61350  Biso   1.000  C
  C37      1.0000 0.98200  0.49900  0.31500  Biso   1.000  C
  C38      1.0000 0.01800  0.50100  0.68500  Biso   1.000  C
  C39      1.0000 0.08900  0.63210  0.41320  Biso   1.000  C
  C40      1.0000 0.91100  0.36790  0.58680  Biso   1.000  C
  N9       1.0000 0.82610  0.25770  0.52690  Biso   1.000  N
  N10      1.0000 0.17390  0.74230  0.47310  Biso   1.000  N
  H33      1.0000 0.91820  0.52660  0.26040  Biso   1.000  H
  H34      1.0000 0.08180  0.47340  0.73960  Biso   1.000  H
  H35      1.0000 0.89230  0.42990  0.34160  Biso   1.000  H
  H36      1.0000 0.10770  0.57010  0.65840  Biso   1.000  H
