data_image0
_cell_length_a       4.8966
_cell_length_b       13.378
_cell_length_c       17.6679
_cell_angle_alpha    90
_cell_angle_beta     101.794
_cell_angle_gamma    90

_symmetry_space_group_name_H-M    "P 1"
_symmetry_int_tables_number       1

loop_
  _symmetry_equiv_pos_as_xyz
  'x, y, z'

loop_
  _atom_site_label
  _atom_site_occupancy
  _atom_site_fract_x
  _atom_site_fract_y
  _atom_site_fract_z
  _atom_site_thermal_displace_type
  _atom_site_B_iso_or_equiv
  _atom_site_type_symbol
  Cu1      1.0000 0.13982  0.37752  0.26826  Biso   1.000  Cu
  Cu2      1.0000 0.86018  0.87752  0.23174  Biso   1.000  Cu
  Cu3      1.0000 0.86018  0.62248  0.73174  Biso   1.000  Cu
  Cu4      1.0000 0.13982  0.12248  0.76826  Biso   1.000  Cu
  O1       1.0000 0.05850  0.37543  0.37288  Biso   1.000  O
  O2       1.0000 0.94150  0.87543  0.12712  Biso   1.000  O
  O3       1.0000 0.94150  0.62457  0.62712  Biso   1.000  O
  O4       1.0000 0.05850  0.12457  0.87288  Biso   1.000  O
  O5       1.0000 0.27800  0.37980  0.17236  Biso   1.000  O
  O6       1.0000 0.72200  0.87980  0.32764  Biso   1.000  O
  O7       1.0000 0.72200  0.62020  0.82764  Biso   1.000  O
  O8       1.0000 0.27800  0.12020  0.67236  Biso   1.000  O
  O9       1.0000 0.60810  0.37629  0.31823  Biso   1.000  O
  O10      1.0000 0.39190  0.87629  0.18177  Biso   1.000  O
  O11      1.0000 0.39190  0.62371  0.68177  Biso   1.000  O
  O12      1.0000 0.60810  0.12371  0.81823  Biso   1.000  O
  O13      1.0000 0.84660  0.37840  0.10352  Biso   1.000  O
  O14      1.0000 0.15340  0.87840  0.39648  Biso   1.000  O
  O15      1.0000 0.15340  0.62160  0.89648  Biso   1.000  O
  O16      1.0000 0.84660  0.12160  0.60352  Biso   1.000  O
  N1       1.0000 0.05770  0.22893  0.25599  Biso   1.000  N
  N2       1.0000 0.94230  0.72893  0.24401  Biso   1.000  N
  N3       1.0000 0.94230  0.77107  0.74401  Biso   1.000  N
  N4       1.0000 0.05770  0.27107  0.75599  Biso   1.000  N
  N5       1.0000 0.94340  0.02623  0.23969  Biso   1.000  N
  N6       1.0000 0.05660  0.52623  0.26031  Biso   1.000  N
  N7       1.0000 0.05660  0.97377  0.76031  Biso   1.000  N
  N8       1.0000 0.94340  0.47377  0.73969  Biso   1.000  N
  N9       1.0000 0.15780  0.37920  0.56790  Biso   1.000  N
  N10      1.0000 0.84220  0.87920  0.93210  Biso   1.000  N
  N11      1.0000 0.84220  0.62080  0.43210  Biso   1.000  N
  N12      1.0000 0.15780  0.12080  0.06790  Biso   1.000  N
  N13      1.0000 0.84330  0.36810  0.91300  Biso   1.000  N
  N14      1.0000 0.15670  0.86810  0.58700  Biso   1.000  N
  N15      1.0000 0.15670  0.63190  0.08700  Biso   1.000  N
  N16      1.0000 0.84330  0.13190  0.41300  Biso   1.000  N
  C1       1.0000 0.23930  0.16040  0.29070  Biso   1.000  C
  C2       1.0000 0.76070  0.66040  0.20930  Biso   1.000  C
  C3       1.0000 0.76070  0.83960  0.70930  Biso   1.000  C
  C4       1.0000 0.23930  0.33960  0.79070  Biso   1.000  C
  H1       1.0000 0.40780  0.18120  0.32110  Biso   1.000  H
  H2       1.0000 0.59220  0.68120  0.17890  Biso   1.000  H
  H3       1.0000 0.59220  0.81880  0.67890  Biso   1.000  H
  H4       1.0000 0.40780  0.31880  0.82110  Biso   1.000  H
  C5       1.0000 0.81630  0.19560  0.21278  Biso   1.000  C
  C6       1.0000 0.18370  0.69560  0.28722  Biso   1.000  C
  C7       1.0000 0.18370  0.80440  0.78722  Biso   1.000  C
  C8       1.0000 0.81630  0.30440  0.71278  Biso   1.000  C
  H5       1.0000 0.68460  0.24130  0.18820  Biso   1.000  H
  H6       1.0000 0.31540  0.74130  0.31180  Biso   1.000  H
  H7       1.0000 0.31540  0.75870  0.81180  Biso   1.000  H
  H8       1.0000 0.68460  0.25870  0.68820  Biso   1.000  H
  C9       1.0000 0.76120  0.09440  0.20441  Biso   1.000  C
  C10      1.0000 0.23880  0.59440  0.29559  Biso   1.000  C
  C11      1.0000 0.23880  0.90560  0.79559  Biso   1.000  C
  C12      1.0000 0.76120  0.40560  0.70441  Biso   1.000  C
  H9       1.0000 0.59400  0.07320  0.17360  Biso   1.000  H
  H10      1.0000 0.40600  0.57320  0.32640  Biso   1.000  H
  H11      1.0000 0.40600  0.92680  0.82640  Biso   1.000  H
  H12      1.0000 0.59400  0.42680  0.67360  Biso   1.000  H
  C13      1.0000 0.18250  0.05930  0.28249  Biso   1.000  C
  C14      1.0000 0.81750  0.55930  0.21751  Biso   1.000  C
  C15      1.0000 0.81750  0.94070  0.71751  Biso   1.000  C
  C16      1.0000 0.18250  0.44070  0.78249  Biso   1.000  C
  H13      1.0000 0.31360  0.01340  0.30730  Biso   1.000  H
  H14      1.0000 0.68640  0.51340  0.19270  Biso   1.000  H
  H15      1.0000 0.68640  0.98660  0.69270  Biso   1.000  H
  H16      1.0000 0.31360  0.48660  0.80730  Biso   1.000  H
  C17      1.0000 0.80030  0.37509  0.37520  Biso   1.000  C
  C18      1.0000 0.19970  0.87509  0.12480  Biso   1.000  C
  C19      1.0000 0.19970  0.62491  0.62480  Biso   1.000  C
  C20      1.0000 0.80030  0.12491  0.87520  Biso   1.000  C
  C21      1.0000 0.72760  0.37300  0.45530  Biso   1.000  C
  C22      1.0000 0.27240  0.87300  0.04470  Biso   1.000  C
  C23      1.0000 0.27240  0.62700  0.54470  Biso   1.000  C
  C24      1.0000 0.72760  0.12700  0.95530  Biso   1.000  C
  H17      1.0000 0.60880  0.42980  0.45990  Biso   1.000  H
  H18      1.0000 0.39120  0.92980  0.04010  Biso   1.000  H
  H19      1.0000 0.39120  0.57020  0.54010  Biso   1.000  H
  H20      1.0000 0.60880  0.07020  0.95990  Biso   1.000  H
  H21      1.0000 0.62190  0.31280  0.45980  Biso   1.000  H
  H22      1.0000 0.37810  0.81280  0.04020  Biso   1.000  H
  H23      1.0000 0.37810  0.68720  0.54020  Biso   1.000  H
  H24      1.0000 0.62190  0.18720  0.95980  Biso   1.000  H
  C25      1.0000 0.97120  0.37590  0.51920  Biso   1.000  C
  C26      1.0000 0.02880  0.87590  0.98080  Biso   1.000  C
  C27      1.0000 0.02880  0.62410  0.48080  Biso   1.000  C
  C28      1.0000 0.97120  0.12410  0.01920  Biso   1.000  C
  C29      1.0000 0.09810  0.37880  0.10935  Biso   1.000  C
  C30      1.0000 0.90190  0.87880  0.39065  Biso   1.000  C
  C31      1.0000 0.90190  0.62120  0.89065  Biso   1.000  C
  C32      1.0000 0.09810  0.12120  0.60935  Biso   1.000  C
  C33      1.0000 0.22570  0.38000  0.03751  Biso   1.000  C
  C34      1.0000 0.77430  0.88000  0.46249  Biso   1.000  C
  C35      1.0000 0.77430  0.62000  0.96249  Biso   1.000  C
  C36      1.0000 0.22570  0.12000  0.53751  Biso   1.000  C
  H25      1.0000 0.33120  0.44120  0.03680  Biso   1.000  H
  H26      1.0000 0.66880  0.94120  0.46320  Biso   1.000  H
  H27      1.0000 0.66880  0.55880  0.96320  Biso   1.000  H
  H28      1.0000 0.33120  0.05880  0.53680  Biso   1.000  H
  H29      1.0000 0.35360  0.32420  0.03970  Biso   1.000  H
  H30      1.0000 0.64640  0.82420  0.46030  Biso   1.000  H
  H31      1.0000 0.64640  0.67580  0.96030  Biso   1.000  H
  H32      1.0000 0.35360  0.17580  0.53970  Biso   1.000  H
  C37      1.0000 0.01240  0.37330  0.96680  Biso   1.000  C
  C38      1.0000 0.98760  0.87330  0.53320  Biso   1.000  C
  C39      1.0000 0.98760  0.62670  0.03320  Biso   1.000  C
  C40      1.0000 0.01240  0.12670  0.46680  Biso   1.000  C
