data_image0
_cell_length_a       9.808
_cell_length_b       26.752
_cell_length_c       9.927
_cell_angle_alpha    90
_cell_angle_beta     107.89
_cell_angle_gamma    90

_symmetry_space_group_name_H-M    "P 1"
_symmetry_int_tables_number       1

loop_
  _symmetry_equiv_pos_as_xyz
  'x, y, z'

loop_
  _atom_site_label
  _atom_site_occupancy
  _atom_site_fract_x
  _atom_site_fract_y
  _atom_site_fract_z
  _atom_site_thermal_displace_type
  _atom_site_B_iso_or_equiv
  _atom_site_type_symbol
  Cu1      1.0000 0.83720  0.05110  0.97880  Biso   1.000  Cu
  Cu2      1.0000 0.16280  0.55110  0.02120  Biso   1.000  Cu
  Cu3      1.0000 0.54950  0.22930  0.76750  Biso   1.000  Cu
  Cu4      1.0000 0.45050  0.72930  0.23250  Biso   1.000  Cu
  Cu5      1.0000 0.80990  0.89340  0.47950  Biso   1.000  Cu
  Cu6      1.0000 0.19010  0.39340  0.52050  Biso   1.000  Cu
  S1       1.0000 0.05540  0.98980  0.87560  Biso   1.000  S
  S2       1.0000 0.94460  0.48980  0.12440  Biso   1.000  S
  S3       1.0000 0.63380  0.10740  0.11550  Biso   1.000  S
  S4       1.0000 0.36620  0.60740  0.88450  Biso   1.000  S
  S5       1.0000 0.69150  0.16400  0.60360  Biso   1.000  S
  S6       1.0000 0.30850  0.66400  0.39640  Biso   1.000  S
  S7       1.0000 0.39850  0.29270  0.92170  Biso   1.000  S
  S8       1.0000 0.60150  0.79270  0.07830  Biso   1.000  S
  S9       1.0000 0.38360  0.34080  0.38730  Biso   1.000  S
  S10      1.0000 0.61640  0.84080  0.61270  Biso   1.000  S
  S11      1.0000 0.05220  0.95350  0.38110  Biso   1.000  S
  S12      1.0000 0.94780  0.45350  0.61890  Biso   1.000  S
  N1       1.0000 0.67840  0.00110  0.91400  Biso   1.000  N
  N2       1.0000 0.32160  0.50110  0.08600  Biso   1.000  N
  N3       1.0000 0.76770  0.08710  0.79920  Biso   1.000  N
  N4       1.0000 0.23230  0.58710  0.20080  Biso   1.000  N
  N5       1.0000 0.98760  0.10580  0.04510  Biso   1.000  N
  N6       1.0000 0.01240  0.60580  0.95490  Biso   1.000  N
  N7       1.0000 0.91990  0.01680  0.15740  Biso   1.000  N
  N8       1.0000 0.08010  0.51680  0.84260  Biso   1.000  N
  N9       1.0000 0.37160  0.18440  0.69960  Biso   1.000  N
  N10      1.0000 0.62840  0.68440  0.30040  Biso   1.000  N
  N11      1.0000 0.48120  0.27020  0.59970  Biso   1.000  N
  N12      1.0000 0.51880  0.77020  0.40030  Biso   1.000  N
  N13      1.0000 0.73100  0.27370  0.83720  Biso   1.000  N
  N14      1.0000 0.26900  0.77370  0.16280  Biso   1.000  N
  N15      1.0000 0.62180  0.18840  0.93560  Biso   1.000  N
  N16      1.0000 0.37820  0.68840  0.06440  Biso   1.000  N
  N17      1.0000 0.96150  0.83980  0.54240  Biso   1.000  N
  N18      1.0000 0.03850  0.33980  0.45760  Biso   1.000  N
  N19      1.0000 0.89950  0.93040  0.65650  Biso   1.000  N
  N20      1.0000 0.10050  0.43040  0.34350  Biso   1.000  N
  N21      1.0000 0.66440  0.94890  0.41310  Biso   1.000  N
  N22      1.0000 0.33560  0.44890  0.58690  Biso   1.000  N
  N23      1.0000 0.27240  0.35870  0.70020  Biso   1.000  N
  N24      1.0000 0.72760  0.85870  0.29980  Biso   1.000  N
  C1       1.0000 0.73850  0.12060  0.71990  Biso   1.000  C
  C2       1.0000 0.26150  0.62060  0.28010  Biso   1.000  C
  C3       1.0000 0.62510  0.15550  0.01240  Biso   1.000  C
  C4       1.0000 0.37490  0.65550  0.98760  Biso   1.000  C
  C5       1.0000 0.43950  0.29960  0.51070  Biso   1.000  C
  C6       1.0000 0.56050  0.79960  0.48930  Biso   1.000  C
  C7       1.0000 0.32490  0.33150  0.79530  Biso   1.000  C
  C8       1.0000 0.67510  0.83150  0.20470  Biso   1.000  C
  C9       1.0000 0.96480  0.95630  0.74680  Biso   1.000  C
  C10      1.0000 0.03520  0.45630  0.25320  Biso   1.000  C
  C11      1.0000 0.97620  0.99080  0.25210  Biso   1.000  C
  C12      1.0000 0.02380  0.49080  0.74790  Biso   1.000  C
  C13      1.0000 0.62560  0.97690  0.00290  Biso   1.000  C
  C14      1.0000 0.37440  0.47690  0.99710  Biso   1.000  C
  C15      1.0000 0.51440  0.94280  0.96190  Biso   1.000  C
  C16      1.0000 0.48560  0.44280  0.03810  Biso   1.000  C
  C17      1.0000 0.44760  0.93340  0.82220  Biso   1.000  C
  C18      1.0000 0.55240  0.43340  0.17780  Biso   1.000  C
  C19      1.0000 0.50520  0.95790  0.73120  Biso   1.000  C
  C20      1.0000 0.49480  0.45790  0.26880  Biso   1.000  C
  C21      1.0000 0.61700  0.99040  0.78100  Biso   1.000  C
  C22      1.0000 0.38300  0.49040  0.21900  Biso   1.000  C
  C23      1.0000 0.32550  0.89770  0.77430  Biso   1.000  C
  C24      1.0000 0.67450  0.39770  0.22570  Biso   1.000  C
  C25      1.0000 0.00590  0.12890  0.16590  Biso   1.000  C
  C26      1.0000 0.99410  0.62890  0.83410  Biso   1.000  C
  C27      1.0000 0.10920  0.16590  0.21750  Biso   1.000  C
  C28      1.0000 0.89080  0.66590  0.78250  Biso   1.000  C
  C29      1.0000 0.20060  0.17720  0.14170  Biso   1.000  C
  C30      1.0000 0.79940  0.67720  0.85830  Biso   1.000  C
  C31      1.0000 0.17990  0.15450  0.01880  Biso   1.000  C
  C32      1.0000 0.82010  0.65450  0.98120  Biso   1.000  C
  C33      1.0000 0.07620  0.11870  0.97300  Biso   1.000  C
  C34      1.0000 0.92380  0.61870  0.02700  Biso   1.000  C
  C35      1.0000 0.32070  0.21330  0.19710  Biso   1.000  C
  C36      1.0000 0.67930  0.71330  0.80290  Biso   1.000  C
  C37      1.0000 0.37650  0.13480  0.70650  Biso   1.000  C
  C38      1.0000 0.62350  0.63480  0.29350  Biso   1.000  C
  C39      1.0000 0.26670  0.10320  0.65980  Biso   1.000  C
  C40      1.0000 0.73330  0.60320  0.34020  Biso   1.000  C
  C41      1.0000 0.12760  0.12390  0.60030  Biso   1.000  C
  C42      1.0000 0.87240  0.62390  0.39970  Biso   1.000  C
  C43      1.0000 0.12140  0.17420  0.59560  Biso   1.000  C
  C44      1.0000 0.87860  0.67420  0.40440  Biso   1.000  C
  C45      1.0000 0.23780  0.20420  0.64550  Biso   1.000  C
  C46      1.0000 0.76220  0.70420  0.35450  Biso   1.000  C
  C47      1.0000 0.00120  0.08950  0.54520  Biso   1.000  C
  C48      1.0000 0.99880  0.58950  0.45480  Biso   1.000  C
  C49      1.0000 0.71860  0.32440  0.84390  Biso   1.000  C
  C50      1.0000 0.28140  0.82440  0.15610  Biso   1.000  C
  C51      1.0000 0.83280  0.35500  0.89100  Biso   1.000  C
  C52      1.0000 0.16720  0.85500  0.10900  Biso   1.000  C
  C53      1.0000 0.97150  0.33620  0.93300  Biso   1.000  C
  C54      1.0000 0.02850  0.83620  0.06700  Biso   1.000  C
  C55      1.0000 0.98240  0.28500  0.92380  Biso   1.000  C
  C56      1.0000 0.01760  0.78500  0.07620  Biso   1.000  C
  C57      1.0000 0.86210  0.25580  0.87800  Biso   1.000  C
  C58      1.0000 0.13790  0.75580  0.12200  Biso   1.000  C
  C59      1.0000 0.09240  0.37070  0.98210  Biso   1.000  C
  C60      1.0000 0.90760  0.87070  0.01790  Biso   1.000  C
  C61      1.0000 0.99470  0.82000  0.67130  Biso   1.000  C
  C62      1.0000 0.00530  0.32000  0.32870  Biso   1.000  C
  C63      1.0000 0.10700  0.78800  0.72200  Biso   1.000  C
  C64      1.0000 0.89300  0.28800  0.27800  Biso   1.000  C
  C65      1.0000 0.19220  0.77480  0.64190  Biso   1.000  C
  C66      1.0000 0.80780  0.27480  0.35810  Biso   1.000  C
  C67      1.0000 0.15500  0.79400  0.50600  Biso   1.000  C
  C68      1.0000 0.84500  0.29400  0.49400  Biso   1.000  C
  C69      1.0000 0.04100  0.82540  0.46160  Biso   1.000  C
  C70      1.0000 0.95900  0.32540  0.53840  Biso   1.000  C
  C71      1.0000 0.31990  0.74330  0.70090  Biso   1.000  C
  C72      1.0000 0.68010  0.24330  0.29910  Biso   1.000  C
  C73      1.0000 0.70000  0.99810  0.43150  Biso   1.000  C
  C74      1.0000 0.30000  0.49810  0.56850  Biso   1.000  C
  C75      1.0000 0.60370  0.03470  0.39450  Biso   1.000  C
  C76      1.0000 0.39630  0.53470  0.60550  Biso   1.000  C
  C77      1.0000 0.46010  0.02430  0.33950  Biso   1.000  C
  C78      1.0000 0.53990  0.52430  0.66050  Biso   1.000  C
  C79      1.0000 0.42200  0.97510  0.32020  Biso   1.000  C
  C80      1.0000 0.57800  0.47510  0.67980  Biso   1.000  C
  C81      1.0000 0.52620  0.93930  0.35920  Biso   1.000  C
  C82      1.0000 0.47380  0.43930  0.64080  Biso   1.000  C
  C83      1.0000 0.35130  0.06490  0.30650  Biso   1.000  C
  C84      1.0000 0.64870  0.56490  0.69350  Biso   1.000  C
  H1       1.0000 0.66900  0.99000  0.10600  Biso   1.000  H
  H2       1.0000 0.33100  0.49000  0.89400  Biso   1.000  H
  H3       1.0000 0.47700  0.92700  0.04400  Biso   1.000  H
  H4       1.0000 0.52300  0.42700  0.95600  Biso   1.000  H
  H5       1.0000 0.45700  0.95000  0.62400  Biso   1.000  H
  H6       1.0000 0.54300  0.45000  0.37600  Biso   1.000  H
  H7       1.0000 0.65000  0.01100  0.72400  Biso   1.000  H
  H8       1.0000 0.35000  0.51100  0.27600  Biso   1.000  H
  H9       1.0000 0.37000  0.86900  0.74000  Biso   1.000  H
  H10      1.0000 0.63000  0.36900  0.26000  Biso   1.000  H
  H11      1.0000 0.27100  0.90400  0.83400  Biso   1.000  H
  H12      1.0000 0.72900  0.40400  0.16600  Biso   1.000  H
  H13      1.0000 0.94000  0.12200  0.21000  Biso   1.000  H
  H14      1.0000 0.06000  0.62200  0.79000  Biso   1.000  H
  H15      1.0000 0.12200  0.18600  0.29000  Biso   1.000  H
  H16      1.0000 0.87800  0.68600  0.71000  Biso   1.000  H
  H17      1.0000 0.21500  0.15900  0.96800  Biso   1.000  H
  H18      1.0000 0.78500  0.65900  0.03200  Biso   1.000  H
  H19      1.0000 0.05700  0.10500  0.88800  Biso   1.000  H
  H20      1.0000 0.94300  0.60500  0.11200  Biso   1.000  H
  H21      1.0000 0.39200  0.19700  0.28500  Biso   1.000  H
  H22      1.0000 0.60800  0.69700  0.71500  Biso   1.000  H
  H23      1.0000 0.36700  0.22700  0.12100  Biso   1.000  H
  H24      1.0000 0.63300  0.72700  0.87900  Biso   1.000  H
  H25      1.0000 0.28300  0.22800  0.25700  Biso   1.000  H
  H26      1.0000 0.71700  0.72800  0.74300  Biso   1.000  H
  H27      1.0000 0.45700  0.12600  0.74400  Biso   1.000  H
  H28      1.0000 0.54300  0.62600  0.25600  Biso   1.000  H
  H29      1.0000 0.27000  0.06700  0.67200  Biso   1.000  H
  H30      1.0000 0.73000  0.56700  0.32800  Biso   1.000  H
  H31      1.0000 0.04700  0.18900  0.56700  Biso   1.000  H
  H32      1.0000 0.95300  0.68900  0.43300  Biso   1.000  H
  H33      1.0000 0.22300  0.23800  0.64000  Biso   1.000  H
  H34      1.0000 0.77700  0.73800  0.36000  Biso   1.000  H
  H35      1.0000 0.93100  0.10500  0.49400  Biso   1.000  H
  H36      1.0000 0.06900  0.60500  0.50600  Biso   1.000  H
  H37      1.0000 0.02900  0.07100  0.48100  Biso   1.000  H
  H38      1.0000 0.97100  0.57100  0.51900  Biso   1.000  H
  H39      1.0000 0.98800  0.06900  0.62600  Biso   1.000  H
  H40      1.0000 0.01200  0.56900  0.37400  Biso   1.000  H
  H41      1.0000 0.63100  0.33100  0.81300  Biso   1.000  H
  H42      1.0000 0.36900  0.83100  0.18700  Biso   1.000  H
  H43      1.0000 0.80900  0.38900  0.89200  Biso   1.000  H
  H44      1.0000 0.19100  0.88900  0.10800  Biso   1.000  H
  H45      1.0000 0.83100  0.22200  0.86600  Biso   1.000  H
  H46      1.0000 0.16900  0.72200  0.13400  Biso   1.000  H
  H47      1.0000 0.11800  0.39200  0.89000  Biso   1.000  H
  H48      1.0000 0.88200  0.89200  0.11000  Biso   1.000  H
  H49      1.0000 0.15800  0.35800  0.01100  Biso   1.000  H
  H50      1.0000 0.84200  0.85800  0.98900  Biso   1.000  H
  H51      1.0000 0.08000  0.38400  0.05200  Biso   1.000  H
  H52      1.0000 0.92000  0.88400  0.94800  Biso   1.000  H
  H53      1.0000 0.93700  0.81500  0.72200  Biso   1.000  H
  H54      1.0000 0.06300  0.31500  0.27800  Biso   1.000  H
  H55      1.0000 0.13800  0.77600  0.79500  Biso   1.000  H
  H56      1.0000 0.86200  0.27600  0.20500  Biso   1.000  H
  H57      1.0000 0.21000  0.78800  0.42600  Biso   1.000  H
  H58      1.0000 0.79000  0.28800  0.57400  Biso   1.000  H
  H59      1.0000 0.03000  0.84100  0.38200  Biso   1.000  H
  H60      1.0000 0.97000  0.34100  0.61800  Biso   1.000  H
  H61      1.0000 0.34900  0.72600  0.79700  Biso   1.000  H
  H62      1.0000 0.65100  0.22600  0.20300  Biso   1.000  H
  H63      1.0000 0.29700  0.71400  0.66000  Biso   1.000  H
  H64      1.0000 0.70300  0.21400  0.34000  Biso   1.000  H
  H65      1.0000 0.37600  0.74800  0.66700  Biso   1.000  H
  H66      1.0000 0.62400  0.24800  0.33300  Biso   1.000  H
  H67      1.0000 0.78000  0.00400  0.46100  Biso   1.000  H
  H68      1.0000 0.22000  0.50400  0.53900  Biso   1.000  H
  H69      1.0000 0.63700  0.06300  0.43300  Biso   1.000  H
  H70      1.0000 0.36300  0.56300  0.56700  Biso   1.000  H
  H71      1.0000 0.30700  0.96800  0.28100  Biso   1.000  H
  H72      1.0000 0.69300  0.46800  0.71900  Biso   1.000  H
  H73      1.0000 0.50400  0.91200  0.33600  Biso   1.000  H
  H74      1.0000 0.49600  0.41200  0.66400  Biso   1.000  H
  H75      1.0000 0.33100  0.07600  0.19000  Biso   1.000  H
  H76      1.0000 0.66900  0.57600  0.81000  Biso   1.000  H
  H77      1.0000 0.26700  0.90000  0.21000  Biso   1.000  H
  H78      1.0000 0.73300  0.40000  0.79000  Biso   1.000  H
  H79      1.0000 0.93000  0.26900  0.96700  Biso   1.000  H
  H80      1.0000 0.07000  0.76900  0.03300  Biso   1.000  H
  H81      1.0000 0.62400  0.58700  0.68800  Biso   1.000  H
  H82      1.0000 0.37600  0.08700  0.31200  Biso   1.000  H
  H83      1.0000 0.67000  0.57700  0.64100  Biso   1.000  H
  H84      1.0000 0.33000  0.07700  0.35900  Biso   1.000  H
