data_image0
_cell_length_a       8.568
_cell_length_b       9.2
_cell_length_c       10.809
_cell_angle_alpha    72.64
_cell_angle_beta     86.15
_cell_angle_gamma    80.14

_symmetry_space_group_name_H-M    "P 1"
_symmetry_int_tables_number       1

loop_
  _symmetry_equiv_pos_as_xyz
  'x, y, z'

loop_
  _atom_site_label
  _atom_site_occupancy
  _atom_site_fract_x
  _atom_site_fract_y
  _atom_site_fract_z
  _atom_site_thermal_displace_type
  _atom_site_B_iso_or_equiv
  _atom_site_type_symbol
  Cu1      1.0000 0.50000  0.50000  0.50000  Biso   1.000  Cu
  Cu2      1.0000 0.00000  0.00000  0.50000  Biso   1.000  Cu
  Br1      1.0000 0.23600  0.39740  0.96780  Biso   1.000  Br
  Br2      1.0000 0.76400  0.60260  0.03220  Biso   1.000  Br
  Br3      1.0000 0.29800  0.92940  0.07510  Biso   1.000  Br
  Br4      1.0000 0.70200  0.07060  0.92490  Biso   1.000  Br
  S1       1.0000 0.31810  0.03250  0.37220  Biso   1.000  S
  S2       1.0000 0.68190  0.96750  0.62780  Biso   1.000  S
  S3       1.0000 0.17500  0.46580  0.63270  Biso   1.000  S
  S4       1.0000 0.82500  0.53420  0.36730  Biso   1.000  S
  N1       1.0000 0.43260  0.72180  0.42820  Biso   1.000  N
  N2       1.0000 0.56740  0.27820  0.57180  Biso   1.000  N
  N3       1.0000 0.96540  0.22600  0.45890  Biso   1.000  N
  N4       1.0000 0.03460  0.77400  0.54110  Biso   1.000  N
  N5       1.0000 0.41440  0.46300  0.34120  Biso   1.000  N
  N6       1.0000 0.58560  0.53700  0.65880  Biso   1.000  N
  N7       1.0000 0.09300  0.97880  0.67460  Biso   1.000  N
  N8       1.0000 0.90700  0.02120  0.32540  Biso   1.000  N
  C1       1.0000 0.38600  0.84870  0.40400  Biso   1.000  C
  C2       1.0000 0.61400  0.15130  0.59600  Biso   1.000  C
  C3       1.0000 0.91020  0.34380  0.42280  Biso   1.000  C
  C4       1.0000 0.08980  0.65620  0.57720  Biso   1.000  C
  C5       1.0000 0.50640  0.37730  0.27640  Biso   1.000  C
  C6       1.0000 0.49360  0.62270  0.72360  Biso   1.000  C
  C7       1.0000 0.46040  0.35460  0.16260  Biso   1.000  C
  C8       1.0000 0.53960  0.64540  0.83740  Biso   1.000  C
  C9       1.0000 0.30860  0.41560  0.12350  Biso   1.000  C
  C10      1.0000 0.69140  0.58440  0.87650  Biso   1.000  C
  C11      1.0000 0.20920  0.50140  0.19180  Biso   1.000  C
  C12      1.0000 0.79080  0.49860  0.80820  Biso   1.000  C
  C13      1.0000 0.26860  0.51860  0.30120  Biso   1.000  C
  C14      1.0000 0.73140  0.48140  0.69880  Biso   1.000  C
  C15      1.0000 0.04730  0.86620  0.78090  Biso   1.000  C
  C16      1.0000 0.95270  0.13380  0.21910  Biso   1.000  C
  C17      1.0000 0.11100  0.85520  0.90540  Biso   1.000  C
  C18      1.0000 0.88900  0.14480  0.09460  Biso   1.000  C
  C19      1.0000 0.22370  0.94680  0.91310  Biso   1.000  C
  C20      1.0000 0.77630  0.05320  0.08690  Biso   1.000  C
  C21      1.0000 0.26340  0.05960  0.80120  Biso   1.000  C
  C22      1.0000 0.73660  0.94040  0.19880  Biso   1.000  C
  C23      1.0000 0.19550  0.07300  0.68240  Biso   1.000  C
  C24      1.0000 0.80450  0.92700  0.31760  Biso   1.000  C
