data_image0
_cell_length_a       8.568
_cell_length_b       9.2
_cell_length_c       10.809
_cell_angle_alpha    72.64
_cell_angle_beta     86.15
_cell_angle_gamma    80.14

_symmetry_space_group_name_H-M    "P 1"
_symmetry_int_tables_number       1

loop_
  _symmetry_equiv_pos_as_xyz
  'x, y, z'

loop_
  _atom_site_label
  _atom_site_occupancy
  _atom_site_fract_x
  _atom_site_fract_y
  _atom_site_fract_z
  _atom_site_thermal_displace_type
  _atom_site_B_iso_or_equiv
  _atom_site_type_symbol
  Br1      1.0000 0.20590  0.61390  0.91840  Biso   1.000  Br
  Br2      1.0000 0.73400  0.81900  0.98270  Biso   1.000  Br
  Br3      1.0000 0.27420  0.13270  0.02730  Biso   1.000  Br
  Br4      1.0000 0.67830  0.27400  0.87710  Biso   1.000  Br
  Cu1      1.0000 0.47440  0.71390  0.45620  Biso   1.000  Cu
  Cu2      1.0000 0.97540  0.21870  0.44910  Biso   1.000  Cu
  S1       1.0000 0.28350  0.24870  0.32260  Biso   1.000  S
  S2       1.0000 0.64730  0.18370  0.57810  Biso   1.000  S
  S3       1.0000 0.79550  0.75300  0.31860  Biso   1.000  S
  S4       1.0000 0.14560  0.68450  0.58400  Biso   1.000  S
  N1       1.0000 0.40200  0.93560  0.37940  Biso   1.000  N
  N2       1.0000 0.53680  0.49210  0.52300  Biso   1.000  N
  N3       1.0000 0.92480  0.43700  0.41630  Biso   1.000  N
  N4       1.0000 0.99410  0.98500  0.49850  Biso   1.000  N
  N5       1.0000 0.38050  0.68160  0.29450  Biso   1.000  N
  N6       1.0000 0.55180  0.75560  0.61200  Biso   1.000  N
  N7       1.0000 0.06590  0.19120  0.62550  Biso   1.000  N
  N8       1.0000 0.88000  0.23360  0.27620  Biso   1.000  N
  C1       1.0000 0.35630  0.06260  0.35580  Biso   1.000  C
  C2       1.0000 0.58440  0.36520  0.54780  Biso   1.000  C
  C3       1.0000 0.88020  0.55700  0.38290  Biso   1.000  C
  C4       1.0000 0.05970  0.86930  0.53740  Biso   1.000  C
  C5       1.0000 0.48200  0.58860  0.21840  Biso   1.000  C
  C6       1.0000 0.43500  0.57040  0.11560  Biso   1.000  C
  C7       1.0000 0.27140  0.63480  0.07510  Biso   1.000  C
  C8       1.0000 0.17710  0.70960  0.14720  Biso   1.000  C
  C9       1.0000 0.23840  0.73100  0.24880  Biso   1.000  C
  C10      1.0000 0.46930  0.83400  0.66560  Biso   1.000  C
  C11      1.0000 0.51420  0.86130  0.79040  Biso   1.000  C
  C12      1.0000 0.65410  0.80370  0.82810  Biso   1.000  C
  C13      1.0000 0.75880  0.70670  0.76350  Biso   1.000  C
  C14      1.0000 0.70130  0.69390  0.64650  Biso   1.000  C
  C15      1.0000 0.01080  0.07070  0.72690  Biso   1.000  C
  C16      1.0000 0.09220  0.06980  0.86090  Biso   1.000  C
  C17      1.0000 0.19950  0.14430  0.86960  Biso   1.000  C
  C18      1.0000 0.23940  0.28040  0.75480  Biso   1.000  C
  C19      1.0000 0.16330  0.28790  0.64280  Biso   1.000  C
  C20      1.0000 0.77230  0.14180  0.27810  Biso   1.000  C
  C21      1.0000 0.71270  0.16110  0.15240  Biso   1.000  C
  C22      1.0000 0.75210  0.25080  0.04340  Biso   1.000  C
  C23      1.0000 0.87010  0.35930  0.05010  Biso   1.000  C
  C24      1.0000 0.91620  0.33820  0.16510  Biso   1.000  C
  H1       1.0000 0.60130  0.54360  0.26850  Biso   1.000  H
  H2       1.0000 0.51500  0.50790  0.07820  Biso   1.000  H
  H3       1.0000 0.07340  0.74900  0.12110  Biso   1.000  H
  H4       1.0000 0.17550  0.80280  0.29660  Biso   1.000  H
  H5       1.0000 0.36310  0.89170  0.65280  Biso   1.000  H
  H6       1.0000 0.44980  0.90940  0.86250  Biso   1.000  H
  H7       1.0000 0.87670  0.65220  0.79810  Biso   1.000  H
  H8       1.0000 0.78600  0.63380  0.59330  Biso   1.000  H
  H9       1.0000 0.96210  0.00910  0.71880  Biso   1.000  H
  H10      1.0000 0.03860  0.99900  0.93090  Biso   1.000  H
  H11      1.0000 0.31730  0.34980  0.75410  Biso   1.000  H
  H12      1.0000 0.18090  0.39150  0.54590  Biso   1.000  H
  H13      1.0000 0.72640  0.08200  0.34370  Biso   1.000  H
  H14      1.0000 0.63340  0.09140  0.14070  Biso   1.000  H
  H15      1.0000 0.89620  0.44410  0.95390  Biso   1.000  H
