data_image0
_cell_length_a       9.63
_cell_length_b       26.53
_cell_length_c       9.84
_cell_angle_alpha    90
_cell_angle_beta     106.4
_cell_angle_gamma    90

_symmetry_space_group_name_H-M    "P 1"
_symmetry_int_tables_number       1

loop_
  _symmetry_equiv_pos_as_xyz
  'x, y, z'

loop_
  _atom_site_label
  _atom_site_occupancy
  _atom_site_fract_x
  _atom_site_fract_y
  _atom_site_fract_z
  _atom_site_thermal_displace_type
  _atom_site_B_iso_or_equiv
  _atom_site_type_symbol
  Cu1      1.0000 0.16290  0.87790  0.02100  Biso   1.000  Cu
  Cu2      1.0000 0.83710  0.37790  0.97900  Biso   1.000  Cu
  N1       1.0000 0.09100  0.84530  0.84470  Biso   1.000  N
  N2       1.0000 0.90900  0.34530  0.15530  Biso   1.000  N
  C1       1.0000 0.03040  0.81850  0.75120  Biso   1.000  C
  C2       1.0000 0.96960  0.31850  0.24880  Biso   1.000  C
  S1       1.0000 0.95250  0.77900  0.61810  Biso   1.000  S
  S2       1.0000 0.04750  0.27900  0.38190  Biso   1.000  S
  N3       1.0000 0.23200  0.91430  0.19980  Biso   1.000  N
  N4       1.0000 0.76800  0.41430  0.80020  Biso   1.000  N
  C3       1.0000 0.26190  0.94810  0.28550  Biso   1.000  C
  C4       1.0000 0.73810  0.44810  0.71450  Biso   1.000  C
  S3       1.0000 0.30010  0.99290  0.39690  Biso   1.000  S
  S4       1.0000 0.69990  0.49290  0.60310  Biso   1.000  S
  Cu3      1.0000 0.44500  0.05740  0.23260  Biso   1.000  Cu
  Cu4      1.0000 0.55500  0.55740  0.76740  Biso   1.000  Cu
  N5       1.0000 0.51190  0.09920  0.39970  Biso   1.000  N
  N6       1.0000 0.48810  0.59920  0.60030  Biso   1.000  N
  C5       1.0000 0.55260  0.12960  0.49030  Biso   1.000  C
  C6       1.0000 0.44740  0.62960  0.50970  Biso   1.000  C
  S5       1.0000 0.60660  0.17050  0.61400  Biso   1.000  S
  S6       1.0000 0.39340  0.67050  0.38600  Biso   1.000  S
  N7       1.0000 0.37450  0.01710  0.06370  Biso   1.000  N
  N8       1.0000 0.62550  0.51710  0.93630  Biso   1.000  N
  C7       1.0000 0.37510  0.98270  0.99020  Biso   1.000  C
  C8       1.0000 0.62490  0.48270  0.00980  Biso   1.000  C
  S7       1.0000 0.37650  0.93370  0.88760  Biso   1.000  S
  S8       1.0000 0.62350  0.43370  0.11240  Biso   1.000  S
  Cu5      1.0000 0.19560  0.72150  0.51870  Biso   1.000  Cu
  Cu6      1.0000 0.80440  0.22150  0.48130  Biso   1.000  Cu
  N9       1.0000 0.72800  0.18670  0.30700  Biso   1.000  N
  N10      1.0000 0.27200  0.68670  0.69300  Biso   1.000  N
  C9       1.0000 0.67380  0.16020  0.20970  Biso   1.000  C
  C10      1.0000 0.32620  0.66020  0.79030  Biso   1.000  C
  S9       1.0000 0.59790  0.12020  0.07920  Biso   1.000  S
  S10      1.0000 0.40210  0.62020  0.92080  Biso   1.000  S
  N11      1.0000 0.10630  0.75850  0.34360  Biso   1.000  N
  N12      1.0000 0.89370  0.25850  0.65640  Biso   1.000  N
  C11      1.0000 0.04230  0.78390  0.25630  Biso   1.000  C
  C12      1.0000 0.95770  0.28390  0.74370  Biso   1.000  C
  S11      1.0000 0.94520  0.81920  0.12360  Biso   1.000  S
  S12      1.0000 0.05480  0.31920  0.87640  Biso   1.000  S
  N13      1.0000 0.32420  0.82880  0.08380  Biso   1.000  N
  N14      1.0000 0.67580  0.32880  0.91620  Biso   1.000  N
  C13      1.0000 0.39430  0.81900  0.22580  Biso   1.000  C
  C14      1.0000 0.60570  0.31900  0.77420  Biso   1.000  C
  C15      1.0000 0.50360  0.78600  0.27030  Biso   1.000  C
  C16      1.0000 0.49640  0.28600  0.72970  Biso   1.000  C
  C17      1.0000 0.55740  0.75990  0.17350  Biso   1.000  C
  C18      1.0000 0.44260  0.25990  0.82650  Biso   1.000  C
  C19      1.0000 0.48650  0.76920  0.02200  Biso   1.000  C
  C20      1.0000 0.51350  0.26920  0.97800  Biso   1.000  C
  C21      1.0000 0.38060  0.80270  0.99470  Biso   1.000  C
  C22      1.0000 0.61940  0.30270  0.00530  Biso   1.000  C
  C23      1.0000 0.68370  0.72200  0.22090  Biso   1.000  C
  C24      1.0000 0.31630  0.22200  0.77910  Biso   1.000  C
  N15      1.0000 0.01440  0.93290  0.95350  Biso   1.000  N
  N16      1.0000 0.98560  0.43290  0.04650  Biso   1.000  N
  C25      1.0000 0.99460  0.95860  0.82840  Biso   1.000  C
  C26      1.0000 0.00540  0.45860  0.17160  Biso   1.000  C
  C27      1.0000 0.90250  0.99470  0.78310  Biso   1.000  C
  C28      1.0000 0.09750  0.49470  0.21690  Biso   1.000  C
  C29      1.0000 0.80470  0.00800  0.85460  Biso   1.000  C
  C30      1.0000 0.19530  0.50800  0.14540  Biso   1.000  C
  C31      1.0000 0.81750  0.98300  0.98640  Biso   1.000  C
  C32      1.0000 0.18250  0.48300  0.01360  Biso   1.000  C
  C33      1.0000 0.92310  0.94710  0.03380  Biso   1.000  C
  C34      1.0000 0.07690  0.44710  0.96620  Biso   1.000  C
  C35      1.0000 0.68340  0.04450  0.79550  Biso   1.000  C
  C36      1.0000 0.31660  0.54450  0.20450  Biso   1.000  C
  N17      1.0000 0.62400  0.01190  0.29980  Biso   1.000  N
  N18      1.0000 0.37600  0.51190  0.70020  Biso   1.000  N
  C37      1.0000 0.61230  0.96230  0.28680  Biso   1.000  C
  C38      1.0000 0.38770  0.46230  0.71320  Biso   1.000  C
  C39      1.0000 0.72780  0.92940  0.33610  Biso   1.000  C
  C40      1.0000 0.27220  0.42940  0.66390  Biso   1.000  C
  C41      1.0000 0.86610  0.95080  0.39680  Biso   1.000  C
  C42      1.0000 0.13390  0.45080  0.60320  Biso   1.000  C
  C43      1.0000 0.87870  0.00160  0.40290  Biso   1.000  C
  C44      1.0000 0.12130  0.50160  0.59710  Biso   1.000  C
  C45      1.0000 0.75610  0.03230  0.35550  Biso   1.000  C
  C46      1.0000 0.24390  0.53230  0.64450  Biso   1.000  C
  C47      1.0000 0.99400  0.91470  0.45700  Biso   1.000  C
  C48      1.0000 0.00600  0.41470  0.54300  Biso   1.000  C
  N19      1.0000 0.26610  0.10300  0.16530  Biso   1.000  N
  N20      1.0000 0.73390  0.60300  0.83470  Biso   1.000  N
  C49      1.0000 0.27770  0.15290  0.15870  Biso   1.000  C
  C50      1.0000 0.72230  0.65290  0.84130  Biso   1.000  C
  C51      1.0000 0.16300  0.18540  0.10920  Biso   1.000  C
  C52      1.0000 0.83700  0.68540  0.89080  Biso   1.000  C
  C53      1.0000 0.02210  0.16620  0.06490  Biso   1.000  C
  C54      1.0000 0.97790  0.66620  0.93510  Biso   1.000  C
  C55      1.0000 0.01140  0.11320  0.07620  Biso   1.000  C
  C56      1.0000 0.98860  0.61320  0.92380  Biso   1.000  C
  C57      1.0000 0.12840  0.08390  0.12200  Biso   1.000  C
  C58      1.0000 0.87160  0.58390  0.87800  Biso   1.000  C
  C59      1.0000 0.89590  0.20060  0.01800  Biso   1.000  C
  C60      1.0000 0.10410  0.70060  0.98200  Biso   1.000  C
  N21      1.0000 0.04580  0.66840  0.45720  Biso   1.000  N
  N22      1.0000 0.95420  0.16840  0.54280  Biso   1.000  N
  C61      1.0000 0.01250  0.64850  0.32060  Biso   1.000  C
  C62      1.0000 0.98750  0.14850  0.67940  Biso   1.000  C
  C63      1.0000 0.90040  0.61510  0.27140  Biso   1.000  C
  C64      1.0000 0.09960  0.11510  0.72860  Biso   1.000  C
  C65      1.0000 0.81350  0.59960  0.35500  Biso   1.000  C
  C66      1.0000 0.18650  0.09960  0.64500  Biso   1.000  C
  C67      1.0000 0.85030  0.62140  0.49250  Biso   1.000  C
  C68      1.0000 0.14970  0.12140  0.50750  Biso   1.000  C
  C69      1.0000 0.96400  0.65260  0.53920  Biso   1.000  C
  C70      1.0000 0.03600  0.15260  0.46080  Biso   1.000  C
  C71      1.0000 0.68460  0.56710  0.29720  Biso   1.000  C
  C72      1.0000 0.31540  0.06710  0.70280  Biso   1.000  C
  N23      1.0000 0.33900  0.77830  0.58430  Biso   1.000  N
  N24      1.0000 0.66100  0.27830  0.41570  Biso   1.000  N
  C73      1.0000 0.30060  0.82670  0.56500  Biso   1.000  C
  C74      1.0000 0.69940  0.32670  0.43500  Biso   1.000  C
  C75      1.0000 0.39650  0.86760  0.60050  Biso   1.000  C
  C76      1.0000 0.60350  0.36760  0.39950  Biso   1.000  C
  C77      1.0000 0.54370  0.85600  0.65370  Biso   1.000  C
  C78      1.0000 0.45630  0.35600  0.34630  Biso   1.000  C
  C79      1.0000 0.58370  0.80470  0.67560  Biso   1.000  C
  C80      1.0000 0.41630  0.30470  0.32440  Biso   1.000  C
  C81      1.0000 0.48070  0.76830  0.64170  Biso   1.000  C
  C82      1.0000 0.51930  0.26830  0.35830  Biso   1.000  C
  C83      1.0000 0.65170  0.89780  0.68980  Biso   1.000  C
  C84      1.0000 0.34830  0.39780  0.31020  Biso   1.000  C
