data_image0
_cell_length_a       10.1656
_cell_length_b       13.631
_cell_length_c       9.1461
_cell_angle_alpha    90
_cell_angle_beta     91.43
_cell_angle_gamma    90

_symmetry_space_group_name_H-M    "P 1"
_symmetry_int_tables_number       1

loop_
  _symmetry_equiv_pos_as_xyz
  'x, y, z'

loop_
  _atom_site_label
  _atom_site_occupancy
  _atom_site_fract_x
  _atom_site_fract_y
  _atom_site_fract_z
  _atom_site_thermal_displace_type
  _atom_site_B_iso_or_equiv
  _atom_site_type_symbol
  Cu1      1.0000 0.59999  0.58784  0.07521  Biso   1.000  Cu
  Cu2      1.0000 0.40001  0.08784  0.42479  Biso   1.000  Cu
  Cu3      1.0000 0.40001  0.41216  0.92479  Biso   1.000  Cu
  Cu4      1.0000 0.59999  0.91216  0.57521  Biso   1.000  Cu
  O1       1.0000 0.57750  0.87470  0.10850  Biso   1.000  O
  O2       1.0000 0.42250  0.37470  0.39150  Biso   1.000  O
  O3       1.0000 0.42250  0.12530  0.89150  Biso   1.000  O
  O4       1.0000 0.57750  0.62530  0.60850  Biso   1.000  O
  O5       1.0000 0.62950  0.72540  0.03820  Biso   1.000  O
  O6       1.0000 0.37050  0.22540  0.46180  Biso   1.000  O
  O7       1.0000 0.37050  0.27460  0.96180  Biso   1.000  O
  O8       1.0000 0.62950  0.77460  0.53820  Biso   1.000  O
  O9       1.0000 0.43800  0.94890  0.39140  Biso   1.000  O
  O10      1.0000 0.56200  0.44890  0.10860  Biso   1.000  O
  O11      1.0000 0.56200  0.05110  0.60860  Biso   1.000  O
  O12      1.0000 0.43800  0.55110  0.89140  Biso   1.000  O
  O13      1.0000 0.28210  0.93620  0.21890  Biso   1.000  O
  O14      1.0000 0.71790  0.43620  0.28110  Biso   1.000  O
  O15      1.0000 0.71790  0.06380  0.78110  Biso   1.000  O
  O16      1.0000 0.28210  0.56380  0.71890  Biso   1.000  O
  O17      1.0000 0.74940  0.55100  0.95650  Biso   1.000  O
  O18      1.0000 0.25060  0.05100  0.54350  Biso   1.000  O
  O19      1.0000 0.25060  0.44900  0.04350  Biso   1.000  O
  O20      1.0000 0.74940  0.94900  0.45650  Biso   1.000  O
  O21      1.0000 0.22180  0.12870  0.14670  Biso   1.000  O
  O22      1.0000 0.77820  0.62870  0.35330  Biso   1.000  O
  O23      1.0000 0.77820  0.87130  0.85330  Biso   1.000  O
  O24      1.0000 0.22180  0.37130  0.64670  Biso   1.000  O
  N1       1.0000 0.47100  0.64170  0.21620  Biso   1.000  N
  N2       1.0000 0.52900  0.14170  0.28380  Biso   1.000  N
  N3       1.0000 0.52900  0.35830  0.78380  Biso   1.000  N
  N4       1.0000 0.47100  0.85830  0.71620  Biso   1.000  N
  N5       1.0000 0.30010  0.74420  0.39140  Biso   1.000  N
  N6       1.0000 0.69990  0.24420  0.10860  Biso   1.000  N
  N7       1.0000 0.69990  0.25580  0.60860  Biso   1.000  N
  N8       1.0000 0.30010  0.75580  0.89140  Biso   1.000  N
  N9       1.0000 0.90660  0.58940  0.79520  Biso   1.000  N
  N10      1.0000 0.09340  0.08940  0.70480  Biso   1.000  N
  N11      1.0000 0.09340  0.41060  0.20480  Biso   1.000  N
  N12      1.0000 0.90660  0.91060  0.29520  Biso   1.000  N
  C1       1.0000 0.56540  0.78590  0.11450  Biso   1.000  C
  C2       1.0000 0.43460  0.28590  0.38550  Biso   1.000  C
  C3       1.0000 0.43460  0.21410  0.88550  Biso   1.000  C
  C4       1.0000 0.56540  0.71410  0.61450  Biso   1.000  C
  C5       1.0000 0.46840  0.74040  0.21580  Biso   1.000  C
  C6       1.0000 0.53160  0.24040  0.28420  Biso   1.000  C
  C7       1.0000 0.53160  0.25960  0.78420  Biso   1.000  C
  C8       1.0000 0.46840  0.75960  0.71580  Biso   1.000  C
  C9       1.0000 0.38210  0.79130  0.30180  Biso   1.000  C
  C10      1.0000 0.61790  0.29130  0.19820  Biso   1.000  C
  C11      1.0000 0.61790  0.20870  0.69820  Biso   1.000  C
  C12      1.0000 0.38210  0.70870  0.80180  Biso   1.000  C
  C13      1.0000 0.30640  0.64670  0.39120  Biso   1.000  C
  C14      1.0000 0.69360  0.14670  0.10880  Biso   1.000  C
  C15      1.0000 0.69360  0.35330  0.60880  Biso   1.000  C
  C16      1.0000 0.30640  0.85330  0.89120  Biso   1.000  C
  H1       1.0000 0.25160  0.61180  0.45230  Biso   1.000  H
  H2       1.0000 0.74840  0.11180  0.04770  Biso   1.000  H
  H3       1.0000 0.74840  0.38820  0.54770  Biso   1.000  H
  H4       1.0000 0.25160  0.88820  0.95230  Biso   1.000  H
  C17      1.0000 0.39120  0.59510  0.30390  Biso   1.000  C
  C18      1.0000 0.60880  0.09510  0.19610  Biso   1.000  C
  C19      1.0000 0.60880  0.40490  0.69610  Biso   1.000  C
  C20      1.0000 0.39120  0.90490  0.80390  Biso   1.000  C
  H5       1.0000 0.39200  0.52690  0.30710  Biso   1.000  H
  H6       1.0000 0.60800  0.02690  0.19290  Biso   1.000  H
  H7       1.0000 0.60800  0.47310  0.69290  Biso   1.000  H
  H8       1.0000 0.39200  0.97310  0.80710  Biso   1.000  H
  C21      1.0000 0.36700  0.90180  0.30050  Biso   1.000  C
  C22      1.0000 0.63300  0.40180  0.19950  Biso   1.000  C
  C23      1.0000 0.63300  0.09820  0.69950  Biso   1.000  C
  C24      1.0000 0.36700  0.59820  0.80050  Biso   1.000  C
  C25      1.0000 0.80540  0.60970  0.87620  Biso   1.000  C
  C26      1.0000 0.19460  0.10970  0.62380  Biso   1.000  C
  C27      1.0000 0.19460  0.39030  0.12380  Biso   1.000  C
  C28      1.0000 0.80540  0.89030  0.37620  Biso   1.000  C
  H9       1.0000 0.77320  0.67350  0.87290  Biso   1.000  H
  H10      1.0000 0.22680  0.17350  0.62710  Biso   1.000  H
  H11      1.0000 0.22680  0.32650  0.12710  Biso   1.000  H
  H12      1.0000 0.77320  0.82650  0.37290  Biso   1.000  H
  C29      1.0000 0.96640  0.66300  0.70170  Biso   1.000  C
  C30      1.0000 0.03360  0.16300  0.79830  Biso   1.000  C
  C31      1.0000 0.03360  0.33700  0.29830  Biso   1.000  C
  C32      1.0000 0.96640  0.83700  0.20170  Biso   1.000  C
  H13      1.0000 0.92160  0.72440  0.71260  Biso   1.000  H
  H14      1.0000 0.07840  0.22440  0.78740  Biso   1.000  H
  H15      1.0000 0.07840  0.27560  0.28740  Biso   1.000  H
  H16      1.0000 0.92160  0.77560  0.21260  Biso   1.000  H
  H17      1.0000 0.95930  0.64210  0.60150  Biso   1.000  H
  H18      1.0000 0.04070  0.14210  0.89850  Biso   1.000  H
  H19      1.0000 0.04070  0.35790  0.39850  Biso   1.000  H
  H20      1.0000 0.95930  0.85790  0.10150  Biso   1.000  H
  H21      1.0000 0.05750  0.67070  0.72940  Biso   1.000  H
  H22      1.0000 0.94250  0.17070  0.77060  Biso   1.000  H
  H23      1.0000 0.94250  0.32930  0.27060  Biso   1.000  H
  H24      1.0000 0.05750  0.82930  0.22940  Biso   1.000  H
  C33      1.0000 0.96070  0.49240  0.79380  Biso   1.000  C
  C34      1.0000 0.03930  0.99240  0.70620  Biso   1.000  C
  C35      1.0000 0.03930  0.50760  0.20620  Biso   1.000  C
  C36      1.0000 0.96070  0.00760  0.29380  Biso   1.000  C
  H25      1.0000 0.04860  0.49370  0.83450  Biso   1.000  H
  H26      1.0000 0.95140  0.99370  0.66550  Biso   1.000  H
  H27      1.0000 0.95140  0.50630  0.16550  Biso   1.000  H
  H28      1.0000 0.04860  0.00630  0.33450  Biso   1.000  H
  H29      1.0000 0.96240  0.46880  0.69490  Biso   1.000  H
  H30      1.0000 0.03760  0.96880  0.80510  Biso   1.000  H
  H31      1.0000 0.03760  0.53120  0.30510  Biso   1.000  H
  H32      1.0000 0.96240  0.03120  0.19490  Biso   1.000  H
  H33      1.0000 0.90730  0.44960  0.85090  Biso   1.000  H
  H34      1.0000 0.09270  0.94960  0.64910  Biso   1.000  H
  H35      1.0000 0.09270  0.55040  0.14910  Biso   1.000  H
  H36      1.0000 0.90730  0.05040  0.35090  Biso   1.000  H
  H37      1.0000 0.27700  0.14800  0.08900  Biso   1.000  H
  H38      1.0000 0.72300  0.64800  0.41100  Biso   1.000  H
  H39      1.0000 0.72300  0.85200  0.91100  Biso   1.000  H
  H40      1.0000 0.27700  0.35200  0.58900  Biso   1.000  H
  H41      1.0000 0.21900  0.06850  0.15500  Biso   1.000  H
  H42      1.0000 0.78100  0.56850  0.34500  Biso   1.000  H
  H43      1.0000 0.78100  0.93150  0.84500  Biso   1.000  H
  H44      1.0000 0.21900  0.43150  0.65500  Biso   1.000  H
