data_image0
_cell_length_a       11.861
_cell_length_b       7.3458
_cell_length_c       16.654
_cell_angle_alpha    90
_cell_angle_beta     91.329
_cell_angle_gamma    90

_symmetry_space_group_name_H-M    "P 1"
_symmetry_int_tables_number       1

loop_
  _symmetry_equiv_pos_as_xyz
  'x, y, z'

loop_
  _atom_site_label
  _atom_site_occupancy
  _atom_site_fract_x
  _atom_site_fract_y
  _atom_site_fract_z
  _atom_site_thermal_displace_type
  _atom_site_B_iso_or_equiv
  _atom_site_type_symbol
  Cu1      1.0000 0.13374  0.99854  0.78600  Biso   1.000  Cu
  Cu2      1.0000 0.86626  0.49854  0.71400  Biso   1.000  Cu
  Cu3      1.0000 0.86626  0.00146  0.21400  Biso   1.000  Cu
  Cu4      1.0000 0.13374  0.50146  0.28600  Biso   1.000  Cu
  Cl1      1.0000 0.99952  0.16038  0.72149  Biso   1.000  Cl
  Cl2      1.0000 0.00048  0.66038  0.77851  Biso   1.000  Cl
  Cl3      1.0000 0.00048  0.83962  0.27851  Biso   1.000  Cl
  Cl4      1.0000 0.99952  0.33962  0.22149  Biso   1.000  Cl
  Cl5      1.0000 0.24476  0.96207  0.68042  Biso   1.000  Cl
  Cl6      1.0000 0.75524  0.46207  0.81958  Biso   1.000  Cl
  Cl7      1.0000 0.75524  0.03793  0.31958  Biso   1.000  Cl
  Cl8      1.0000 0.24476  0.53793  0.18042  Biso   1.000  Cl
  O1       1.0000 0.35850  0.04570  0.17041  Biso   1.000  O
  O2       1.0000 0.64150  0.54570  0.32959  Biso   1.000  O
  O3       1.0000 0.64150  0.95430  0.82959  Biso   1.000  O
  O4       1.0000 0.35850  0.45430  0.67041  Biso   1.000  O
  O5       1.0000 0.36440  0.16430  0.04631  Biso   1.000  O
  O6       1.0000 0.63560  0.66430  0.45369  Biso   1.000  O
  O7       1.0000 0.63560  0.83570  0.95369  Biso   1.000  O
  O8       1.0000 0.36440  0.33570  0.54631  Biso   1.000  O
  N1       1.0000 0.10296  0.10360  0.89280  Biso   1.000  N
  N2       1.0000 0.89704  0.60360  0.60720  Biso   1.000  N
  N3       1.0000 0.89704  0.89640  0.10720  Biso   1.000  N
  N4       1.0000 0.10296  0.39640  0.39280  Biso   1.000  N
  N5       1.0000 0.13723  0.11040  0.02282  Biso   1.000  N
  N6       1.0000 0.86277  0.61040  0.47718  Biso   1.000  N
  N7       1.0000 0.86277  0.88960  0.97718  Biso   1.000  N
  N8       1.0000 0.13723  0.38960  0.52282  Biso   1.000  N
  N9       1.0000 0.22264  0.82200  0.85749  Biso   1.000  N
  N10      1.0000 0.77736  0.32200  0.64251  Biso   1.000  N
  N11      1.0000 0.77736  0.17800  0.14251  Biso   1.000  N
  N12      1.0000 0.22264  0.67800  0.35749  Biso   1.000  N
  C1       1.0000 0.07230  0.26030  0.00362  Biso   1.000  C
  C2       1.0000 0.92770  0.76030  0.49638  Biso   1.000  C
  C3       1.0000 0.92770  0.73970  0.99638  Biso   1.000  C
  C4       1.0000 0.07230  0.23970  0.50362  Biso   1.000  C
  H1       1.0000 0.04730  0.34840  0.03920  Biso   1.000  H
  H2       1.0000 0.95270  0.84840  0.46080  Biso   1.000  H
  H3       1.0000 0.95270  0.65160  0.96080  Biso   1.000  H
  H4       1.0000 0.04730  0.15160  0.53920  Biso   1.000  H
  C5       1.0000 0.05160  0.25550  0.92355  Biso   1.000  C
  C6       1.0000 0.94840  0.75550  0.57645  Biso   1.000  C
  C7       1.0000 0.94840  0.74450  0.07645  Biso   1.000  C
  C8       1.0000 0.05160  0.24450  0.42355  Biso   1.000  C
  H5       1.0000 0.00970  0.34050  0.89420  Biso   1.000  H
  H6       1.0000 0.99030  0.84050  0.60580  Biso   1.000  H
  H7       1.0000 0.99030  0.65950  0.10580  Biso   1.000  H
  H8       1.0000 0.00970  0.15950  0.39420  Biso   1.000  H
  C9       1.0000 0.15480  0.01920  0.95348  Biso   1.000  C
  C10      1.0000 0.84520  0.51920  0.54652  Biso   1.000  C
  C11      1.0000 0.84520  0.98080  0.04652  Biso   1.000  C
  C12      1.0000 0.15480  0.48080  0.45348  Biso   1.000  C
  C13      1.0000 0.21720  0.85240  0.93739  Biso   1.000  C
  C14      1.0000 0.78280  0.35240  0.56261  Biso   1.000  C
  C15      1.0000 0.78280  0.14760  0.06261  Biso   1.000  C
  C16      1.0000 0.21720  0.64760  0.43739  Biso   1.000  C
  C17      1.0000 0.26430  0.73190  0.99252  Biso   1.000  C
  C18      1.0000 0.73570  0.23190  0.50748  Biso   1.000  C
  C19      1.0000 0.73570  0.26810  0.00748  Biso   1.000  C
  C20      1.0000 0.26430  0.76810  0.49252  Biso   1.000  C
  H9       1.0000 0.26110  0.75610  0.04720  Biso   1.000  H
  H10      1.0000 0.73890  0.25610  0.45280  Biso   1.000  H
  H11      1.0000 0.73890  0.24390  0.95280  Biso   1.000  H
  H12      1.0000 0.26110  0.74390  0.54720  Biso   1.000  H
  C21      1.0000 0.31570  0.57670  0.96600  Biso   1.000  C
  C22      1.0000 0.68430  0.07670  0.53400  Biso   1.000  C
  C23      1.0000 0.68430  0.42330  0.03400  Biso   1.000  C
  C24      1.0000 0.31570  0.92330  0.46600  Biso   1.000  C
  H13      1.0000 0.34790  0.49480  0.00240  Biso   1.000  H
  H14      1.0000 0.65210  0.99480  0.49760  Biso   1.000  H
  H15      1.0000 0.65210  0.50520  0.99760  Biso   1.000  H
  H16      1.0000 0.34790  0.00520  0.50240  Biso   1.000  H
  C25      1.0000 0.31900  0.54380  0.88410  Biso   1.000  C
  C26      1.0000 0.68100  0.04380  0.61590  Biso   1.000  C
  C27      1.0000 0.68100  0.45620  0.11590  Biso   1.000  C
  C28      1.0000 0.31900  0.95620  0.38410  Biso   1.000  C
  H17      1.0000 0.35260  0.43860  0.86480  Biso   1.000  H
  H18      1.0000 0.64740  0.93860  0.63520  Biso   1.000  H
  H19      1.0000 0.64740  0.56140  0.13520  Biso   1.000  H
  H20      1.0000 0.35260  0.06140  0.36480  Biso   1.000  H
  C29      1.0000 0.27180  0.66950  0.83189  Biso   1.000  C
  C30      1.0000 0.72820  0.16950  0.66811  Biso   1.000  C
  C31      1.0000 0.72820  0.33050  0.16811  Biso   1.000  C
  C32      1.0000 0.27180  0.83050  0.33189  Biso   1.000  C
  H21      1.0000 0.27420  0.64750  0.77700  Biso   1.000  H
  H22      1.0000 0.72580  0.14750  0.72300  Biso   1.000  H
  H23      1.0000 0.72580  0.35250  0.22300  Biso   1.000  H
  H24      1.0000 0.27420  0.85250  0.27700  Biso   1.000  H
  C33      1.0000 0.18810  0.07590  0.10219  Biso   1.000  C
  C34      1.0000 0.81190  0.57590  0.39781  Biso   1.000  C
  C35      1.0000 0.81190  0.92410  0.89781  Biso   1.000  C
  C36      1.0000 0.18810  0.42410  0.60219  Biso   1.000  C
  H25      1.0000 0.15580  0.15810  0.14100  Biso   1.000  H
  H26      1.0000 0.84420  0.65810  0.35900  Biso   1.000  H
  H27      1.0000 0.84420  0.84190  0.85900  Biso   1.000  H
  H28      1.0000 0.15580  0.34190  0.64100  Biso   1.000  H
  H29      1.0000 0.17160  0.95220  0.11850  Biso   1.000  H
  H30      1.0000 0.82840  0.45220  0.38150  Biso   1.000  H
  H31      1.0000 0.82840  0.04780  0.88150  Biso   1.000  H
  H32      1.0000 0.17160  0.54780  0.61850  Biso   1.000  H
  C37      1.0000 0.31240  0.10270  0.10093  Biso   1.000  C
  C38      1.0000 0.68760  0.60270  0.39907  Biso   1.000  C
  C39      1.0000 0.68760  0.89730  0.89907  Biso   1.000  C
  C40      1.0000 0.31240  0.39730  0.60093  Biso   1.000  C
  C41      1.0000 0.48030  0.05490  0.17790  Biso   1.000  C
  C42      1.0000 0.51970  0.55490  0.32210  Biso   1.000  C
  C43      1.0000 0.51970  0.94510  0.82210  Biso   1.000  C
  C44      1.0000 0.48030  0.44510  0.67790  Biso   1.000  C
  H33      1.0000 0.50310  0.06080  0.23420  Biso   1.000  H
  H34      1.0000 0.49690  0.56080  0.26580  Biso   1.000  H
  H35      1.0000 0.49690  0.93920  0.76580  Biso   1.000  H
  H36      1.0000 0.50310  0.43920  0.73420  Biso   1.000  H
  H37      1.0000 0.50750  0.16340  0.15140  Biso   1.000  H
  H38      1.0000 0.49250  0.66340  0.34860  Biso   1.000  H
  H39      1.0000 0.49250  0.83660  0.84860  Biso   1.000  H
  H40      1.0000 0.50750  0.33660  0.65140  Biso   1.000  H
  C45      1.0000 0.52580  0.90070  0.14280  Biso   1.000  C
  C46      1.0000 0.47420  0.40070  0.35720  Biso   1.000  C
  C47      1.0000 0.47420  0.09930  0.85720  Biso   1.000  C
  C48      1.0000 0.52580  0.59930  0.64280  Biso   1.000  C
  H41      1.0000 0.52660  0.91640  0.08560  Biso   1.000  H
  H42      1.0000 0.47340  0.41640  0.41440  Biso   1.000  H
  H43      1.0000 0.47340  0.08360  0.91440  Biso   1.000  H
  H44      1.0000 0.52660  0.58360  0.58560  Biso   1.000  H
  H45      1.0000 0.60140  0.88280  0.16300  Biso   1.000  H
  H46      1.0000 0.39860  0.38280  0.33700  Biso   1.000  H
  H47      1.0000 0.39860  0.11720  0.83700  Biso   1.000  H
  H48      1.0000 0.60140  0.61720  0.66300  Biso   1.000  H
  H49      1.0000 0.48070  0.79640  0.15550  Biso   1.000  H
  H50      1.0000 0.51930  0.29640  0.34450  Biso   1.000  H
  H51      1.0000 0.51930  0.20360  0.84450  Biso   1.000  H
  H52      1.0000 0.48070  0.70360  0.65550  Biso   1.000  H
