data_image0
_cell_length_a       8.5778
_cell_length_b       8.8221
_cell_length_c       16.5258
_cell_angle_alpha    90
_cell_angle_beta     102.671
_cell_angle_gamma    90

_symmetry_space_group_name_H-M    "P 1"
_symmetry_int_tables_number       1

loop_
  _symmetry_equiv_pos_as_xyz
  'x, y, z'

loop_
  _atom_site_label
  _atom_site_occupancy
  _atom_site_fract_x
  _atom_site_fract_y
  _atom_site_fract_z
  _atom_site_thermal_displace_type
  _atom_site_B_iso_or_equiv
  _atom_site_type_symbol
  Cu1      1.0000 0.24941  0.61648  0.24474  Biso   1.000  Cu
  Cu2      1.0000 0.25059  0.11648  0.25526  Biso   1.000  Cu
  Cu3      1.0000 0.75059  0.38352  0.75526  Biso   1.000  Cu
  Cu4      1.0000 0.74941  0.88352  0.74474  Biso   1.000  Cu
  O1       1.0000 0.07320  0.52767  0.16100  Biso   1.000  O
  O2       1.0000 0.42680  0.02767  0.33900  Biso   1.000  O
  O3       1.0000 0.92680  0.47233  0.83900  Biso   1.000  O
  O4       1.0000 0.57320  0.97233  0.66100  Biso   1.000  O
  O5       1.0000 0.93686  0.74100  0.11865  Biso   1.000  O
  O6       1.0000 0.56314  0.24100  0.38135  Biso   1.000  O
  O7       1.0000 0.06314  0.25900  0.88135  Biso   1.000  O
  O8       1.0000 0.43686  0.75900  0.61865  Biso   1.000  O
  O9       1.0000 0.13208  0.86505  0.24961  Biso   1.000  O
  O10      1.0000 0.36792  0.36505  0.25039  Biso   1.000  O
  O11      1.0000 0.86792  0.13495  0.75039  Biso   1.000  O
  O12      1.0000 0.63208  0.63495  0.74961  Biso   1.000  O
  O13      1.0000 0.34602  0.70321  0.15707  Biso   1.000  O
  O14      1.0000 0.15398  0.20321  0.34293  Biso   1.000  O
  O15      1.0000 0.65398  0.29679  0.84293  Biso   1.000  O
  O16      1.0000 0.84602  0.79679  0.65707  Biso   1.000  O
  O17      1.0000 0.47396  0.49542  0.12767  Biso   1.000  O
  O18      1.0000 0.02604  0.99542  0.37233  Biso   1.000  O
  O19      1.0000 0.52604  0.50458  0.87233  Biso   1.000  O
  O20      1.0000 0.97396  0.00458  0.62767  Biso   1.000  O
  N1       1.0000 0.43472  0.68828  0.33595  Biso   1.000  N
  N2       1.0000 0.06528  0.18828  0.16405  Biso   1.000  N
  N3       1.0000 0.56528  0.31172  0.66405  Biso   1.000  N
  N4       1.0000 0.93472  0.81172  0.83595  Biso   1.000  N
  N5       1.0000 0.14953  0.54451  0.33930  Biso   1.000  N
  N6       1.0000 0.35047  0.04451  0.16070  Biso   1.000  N
  N7       1.0000 0.85047  0.45549  0.66070  Biso   1.000  N
  N8       1.0000 0.64953  0.95549  0.83930  Biso   1.000  N
  C1       1.0000 0.41560  0.61530  0.41360  Biso   1.000  C
  C2       1.0000 0.08440  0.11530  0.08640  Biso   1.000  C
  C3       1.0000 0.58440  0.38470  0.58640  Biso   1.000  C
  C4       1.0000 0.91560  0.88470  0.91360  Biso   1.000  C
  H1       1.0000 0.47830  0.67080  0.46200  Biso   1.000  H
  H2       1.0000 0.02170  0.17080  0.03800  Biso   1.000  H
  H3       1.0000 0.52170  0.32920  0.53800  Biso   1.000  H
  H4       1.0000 0.97830  0.82920  0.96200  Biso   1.000  H
  H5       1.0000 0.45500  0.50960  0.41590  Biso   1.000  H
  H6       1.0000 0.04500  0.00960  0.08410  Biso   1.000  H
  H7       1.0000 0.54500  0.49040  0.58410  Biso   1.000  H
  H8       1.0000 0.95500  0.99040  0.91590  Biso   1.000  H
  C5       1.0000 0.24050  0.61709  0.41582  Biso   1.000  C
  C6       1.0000 0.25950  0.11709  0.08418  Biso   1.000  C
  C7       1.0000 0.75950  0.38291  0.58418  Biso   1.000  C
  C8       1.0000 0.74050  0.88291  0.91582  Biso   1.000  C
  H9       1.0000 0.22340  0.56120  0.46510  Biso   1.000  H
  H10      1.0000 0.27660  0.06120  0.03490  Biso   1.000  H
  H11      1.0000 0.77660  0.43880  0.53490  Biso   1.000  H
  H12      1.0000 0.72340  0.93880  0.96510  Biso   1.000  H
  H13      1.0000 0.20370  0.72280  0.41930  Biso   1.000  H
  H14      1.0000 0.29630  0.22280  0.08070  Biso   1.000  H
  H15      1.0000 0.79630  0.27720  0.58070  Biso   1.000  H
  H16      1.0000 0.70370  0.77720  0.91930  Biso   1.000  H
  C9       1.0000 0.97640  0.56660  0.32990  Biso   1.000  C
  C10      1.0000 0.52360  0.06660  0.17010  Biso   1.000  C
  C11      1.0000 0.02360  0.43340  0.67010  Biso   1.000  C
  C12      1.0000 0.47640  0.93340  0.82990  Biso   1.000  C
  H17      1.0000 0.94400  0.53010  0.37980  Biso   1.000  H
  H18      1.0000 0.55600  0.03010  0.12020  Biso   1.000  H
  H19      1.0000 0.05600  0.46990  0.62020  Biso   1.000  H
  H20      1.0000 0.44400  0.96990  0.87980  Biso   1.000  H
  H21      1.0000 0.91890  0.50980  0.28150  Biso   1.000  H
  H22      1.0000 0.58110  0.00980  0.21850  Biso   1.000  H
  H23      1.0000 0.08110  0.49020  0.71850  Biso   1.000  H
  H24      1.0000 0.41890  0.99020  0.78150  Biso   1.000  H
  H25      1.0000 0.95090  0.67460  0.32210  Biso   1.000  H
  H26      1.0000 0.54910  0.17460  0.17790  Biso   1.000  H
  H27      1.0000 0.04910  0.32540  0.67790  Biso   1.000  H
  H28      1.0000 0.45090  0.82540  0.82210  Biso   1.000  H
  C13      1.0000 0.59840  0.66810  0.32339  Biso   1.000  C
  C14      1.0000 0.90160  0.16810  0.17661  Biso   1.000  C
  C15      1.0000 0.40160  0.33190  0.67661  Biso   1.000  C
  C16      1.0000 0.09840  0.83190  0.82339  Biso   1.000  C
  H29      1.0000 0.67540  0.70250  0.37290  Biso   1.000  H
  H30      1.0000 0.82460  0.20250  0.12710  Biso   1.000  H
  H31      1.0000 0.32460  0.29750  0.62710  Biso   1.000  H
  H32      1.0000 0.17540  0.79750  0.87290  Biso   1.000  H
  H33      1.0000 0.61180  0.72780  0.27540  Biso   1.000  H
  H34      1.0000 0.88820  0.22780  0.22460  Biso   1.000  H
  H35      1.0000 0.38820  0.27220  0.72460  Biso   1.000  H
  H36      1.0000 0.11180  0.77220  0.77540  Biso   1.000  H
  H37      1.0000 0.61690  0.56070  0.31360  Biso   1.000  H
  H38      1.0000 0.88310  0.06070  0.18640  Biso   1.000  H
  H39      1.0000 0.38310  0.43930  0.68640  Biso   1.000  H
  H40      1.0000 0.11690  0.93930  0.81360  Biso   1.000  H
  C17      1.0000 0.96040  0.60241  0.11461  Biso   1.000  C
  C18      1.0000 0.53960  0.10241  0.38539  Biso   1.000  C
  C19      1.0000 0.03960  0.39759  0.88539  Biso   1.000  C
  C20      1.0000 0.46040  0.89759  0.61461  Biso   1.000  C
  C21      1.0000 0.84360  0.50920  0.05214  Biso   1.000  C
  C22      1.0000 0.65640  0.00920  0.44786  Biso   1.000  C
  C23      1.0000 0.15640  0.49080  0.94786  Biso   1.000  C
  C24      1.0000 0.34360  0.99080  0.55214  Biso   1.000  C
  H41      1.0000 0.75190  0.48180  0.07550  Biso   1.000  H
  H42      1.0000 0.74810  0.98180  0.42450  Biso   1.000  H
  H43      1.0000 0.24810  0.51820  0.92450  Biso   1.000  H
  H44      1.0000 0.25190  0.01820  0.57550  Biso   1.000  H
  H45      1.0000 0.89660  0.41680  0.03900  Biso   1.000  H
  H46      1.0000 0.60340  0.91680  0.46100  Biso   1.000  H
  H47      1.0000 0.10340  0.58320  0.96100  Biso   1.000  H
  H48      1.0000 0.39660  0.08320  0.53900  Biso   1.000  H
  H49      1.0000 0.80680  0.56860  0.00140  Biso   1.000  H
  H50      1.0000 0.69320  0.06860  0.49860  Biso   1.000  H
  H51      1.0000 0.19320  0.43140  0.99860  Biso   1.000  H
  H52      1.0000 0.30680  0.93140  0.50140  Biso   1.000  H
  C25      1.0000 0.43060  0.62982  0.11534  Biso   1.000  C
  C26      1.0000 0.06940  0.12982  0.38466  Biso   1.000  C
  C27      1.0000 0.56940  0.37018  0.88466  Biso   1.000  C
  C28      1.0000 0.93060  0.87018  0.61534  Biso   1.000  C
  C29      1.0000 0.48510  0.71830  0.04812  Biso   1.000  C
  C30      1.0000 0.01490  0.21830  0.45188  Biso   1.000  C
  C31      1.0000 0.51490  0.28170  0.95188  Biso   1.000  C
  C32      1.0000 0.98510  0.78170  0.54812  Biso   1.000  C
  H53      1.0000 0.59420  0.75500  0.06930  Biso   1.000  H
  H54      1.0000 0.90580  0.25500  0.43070  Biso   1.000  H
  H55      1.0000 0.40580  0.24500  0.93070  Biso   1.000  H
  H56      1.0000 0.09420  0.74500  0.56930  Biso   1.000  H
  H57      1.0000 0.41350  0.80480  0.03140  Biso   1.000  H
  H58      1.0000 0.08650  0.30480  0.46860  Biso   1.000  H
  H59      1.0000 0.58650  0.19520  0.96860  Biso   1.000  H
  H60      1.0000 0.91350  0.69520  0.53140  Biso   1.000  H
  H61      1.0000 0.48270  0.65240  0.00010  Biso   1.000  H
  H62      1.0000 0.01730  0.15240  0.49990  Biso   1.000  H
  H63      1.0000 0.51730  0.34760  0.99990  Biso   1.000  H
  H64      1.0000 0.98270  0.84760  0.50010  Biso   1.000  H
  H65      1.0000 0.41800  0.78500  0.33760  Biso   1.000  H
  H66      1.0000 0.08200  0.28500  0.16240  Biso   1.000  H
  H67      1.0000 0.58200  0.21500  0.66240  Biso   1.000  H
  H68      1.0000 0.91800  0.71500  0.83760  Biso   1.000  H
  H69      1.0000 0.16700  0.43900  0.34100  Biso   1.000  H
  H70      1.0000 0.33300  0.93900  0.15900  Biso   1.000  H
  H71      1.0000 0.83300  0.56100  0.65900  Biso   1.000  H
  H72      1.0000 0.66700  0.06100  0.84100  Biso   1.000  H
  H73      1.0000 0.08800  0.89700  0.28730  Biso   1.000  H
  H74      1.0000 0.41200  0.39700  0.21270  Biso   1.000  H
  H75      1.0000 0.91200  0.10300  0.71270  Biso   1.000  H
  H76      1.0000 0.58800  0.60300  0.78730  Biso   1.000  H
  H77      1.0000 0.06700  0.83600  0.20800  Biso   1.000  H
  H78      1.0000 0.43300  0.33600  0.29200  Biso   1.000  H
  H79      1.0000 0.93300  0.16400  0.79200  Biso   1.000  H
  H80      1.0000 0.56700  0.66400  0.70800  Biso   1.000  H
