data_image0
_cell_length_a       21.8221
_cell_length_b       8.56
_cell_length_c       16.8032
_cell_angle_alpha    90
_cell_angle_beta     115.276
_cell_angle_gamma    90

_symmetry_space_group_name_H-M    "P 1"
_symmetry_int_tables_number       1

loop_
  _symmetry_equiv_pos_as_xyz
  'x, y, z'

loop_
  _atom_site_label
  _atom_site_occupancy
  _atom_site_fract_x
  _atom_site_fract_y
  _atom_site_fract_z
  _atom_site_thermal_displace_type
  _atom_site_B_iso_or_equiv
  _atom_site_type_symbol
  Cu1      1.0000 0.88783  0.06512  0.58991  Biso   1.000  Cu
  Cu2      1.0000 0.11217  0.06512  0.91009  Biso   1.000  Cu
  Cu3      1.0000 0.38783  0.56512  0.58991  Biso   1.000  Cu
  Cu4      1.0000 0.61217  0.56512  0.91009  Biso   1.000  Cu
  Cu5      1.0000 0.11217  0.93488  0.41009  Biso   1.000  Cu
  Cu6      1.0000 0.88783  0.93488  0.08991  Biso   1.000  Cu
  Cu7      1.0000 0.61217  0.43488  0.41009  Biso   1.000  Cu
  Cu8      1.0000 0.38783  0.43488  0.08991  Biso   1.000  Cu
  O1       1.0000 0.01545  0.04056  0.66274  Biso   1.000  O
  O2       1.0000 0.98455  0.04056  0.83726  Biso   1.000  O
  O3       1.0000 0.51545  0.54056  0.66274  Biso   1.000  O
  O4       1.0000 0.48455  0.54056  0.83726  Biso   1.000  O
  O5       1.0000 0.98455  0.95944  0.33726  Biso   1.000  O
  O6       1.0000 0.01545  0.95944  0.16274  Biso   1.000  O
  O7       1.0000 0.48455  0.45944  0.33726  Biso   1.000  O
  O8       1.0000 0.51545  0.45944  0.16274  Biso   1.000  O
  O9       1.0000 0.76381  0.05095  0.51517  Biso   1.000  O
  O10      1.0000 0.23619  0.05095  0.98483  Biso   1.000  O
  O11      1.0000 0.26381  0.55095  0.51517  Biso   1.000  O
  O12      1.0000 0.73619  0.55095  0.98483  Biso   1.000  O
  O13      1.0000 0.23619  0.94905  0.48483  Biso   1.000  O
  O14      1.0000 0.76381  0.94905  0.01517  Biso   1.000  O
  O15      1.0000 0.73619  0.44905  0.48483  Biso   1.000  O
  O16      1.0000 0.26381  0.44905  0.01517  Biso   1.000  O
  N1       1.0000 0.88760  0.88940  0.67119  Biso   1.000  N
  N2       1.0000 0.11240  0.88940  0.82881  Biso   1.000  N
  N3       1.0000 0.38760  0.38940  0.67119  Biso   1.000  N
  N4       1.0000 0.61240  0.38940  0.82881  Biso   1.000  N
  N5       1.0000 0.11240  0.11060  0.32881  Biso   1.000  N
  N6       1.0000 0.88760  0.11060  0.17119  Biso   1.000  N
  N7       1.0000 0.61240  0.61060  0.32881  Biso   1.000  N
  N8       1.0000 0.38760  0.61060  0.17119  Biso   1.000  N
  O17      1.0000 0.88520  0.23429  0.51037  Biso   1.000  O
  O18      1.0000 0.11480  0.23429  0.98963  Biso   1.000  O
  O19      1.0000 0.38520  0.73429  0.51037  Biso   1.000  O
  O20      1.0000 0.61480  0.73429  0.98963  Biso   1.000  O
  O21      1.0000 0.11480  0.76571  0.48963  Biso   1.000  O
  O22      1.0000 0.88520  0.76571  0.01037  Biso   1.000  O
  O23      1.0000 0.61480  0.26571  0.48963  Biso   1.000  O
  O24      1.0000 0.38520  0.26571  0.01037  Biso   1.000  O
  C1       1.0000 0.84868  0.91530  0.41147  Biso   1.000  C
  C2       1.0000 0.15132  0.91530  0.08853  Biso   1.000  C
  C3       1.0000 0.34868  0.41530  0.41147  Biso   1.000  C
  C4       1.0000 0.65132  0.41530  0.08853  Biso   1.000  C
  C5       1.0000 0.15132  0.08470  0.58853  Biso   1.000  C
  C6       1.0000 0.84868  0.08470  0.91147  Biso   1.000  C
  C7       1.0000 0.65132  0.58470  0.58853  Biso   1.000  C
  C8       1.0000 0.34868  0.58470  0.91147  Biso   1.000  C
  H1       1.0000 0.85060  0.82040  0.38000  Biso   1.000  H
  H2       1.0000 0.14940  0.82040  0.12000  Biso   1.000  H
  H3       1.0000 0.35060  0.32040  0.38000  Biso   1.000  H
  H4       1.0000 0.64940  0.32040  0.12000  Biso   1.000  H
  H5       1.0000 0.14940  0.17960  0.62000  Biso   1.000  H
  H6       1.0000 0.85060  0.17960  0.88000  Biso   1.000  H
  H7       1.0000 0.64940  0.67960  0.62000  Biso   1.000  H
  H8       1.0000 0.35060  0.67960  0.88000  Biso   1.000  H
  H9       1.0000 0.86800  0.00290  0.39220  Biso   1.000  H
  H10      1.0000 0.13200  0.00290  0.10780  Biso   1.000  H
  H11      1.0000 0.36800  0.50290  0.39220  Biso   1.000  H
  H12      1.0000 0.63200  0.50290  0.10780  Biso   1.000  H
  H13      1.0000 0.13200  0.99710  0.60780  Biso   1.000  H
  H14      1.0000 0.86800  0.99710  0.89220  Biso   1.000  H
  H15      1.0000 0.63200  0.49710  0.60780  Biso   1.000  H
  H16      1.0000 0.36800  0.49710  0.89220  Biso   1.000  H
  H17      1.0000 0.80140  0.93850  0.39880  Biso   1.000  H
  H18      1.0000 0.19860  0.93850  0.10120  Biso   1.000  H
  H19      1.0000 0.30140  0.43850  0.39880  Biso   1.000  H
  H20      1.0000 0.69860  0.43850  0.10120  Biso   1.000  H
  H21      1.0000 0.19860  0.06150  0.60120  Biso   1.000  H
  H22      1.0000 0.80140  0.06150  0.89880  Biso   1.000  H
  H23      1.0000 0.69860  0.56150  0.60120  Biso   1.000  H
  H24      1.0000 0.30140  0.56150  0.89880  Biso   1.000  H
  N9       1.0000 0.88798  0.89140  0.50705  Biso   1.000  N
  N10      1.0000 0.11202  0.89140  0.99295  Biso   1.000  N
  N11      1.0000 0.38798  0.39140  0.50705  Biso   1.000  N
  N12      1.0000 0.61202  0.39140  0.99295  Biso   1.000  N
  N13      1.0000 0.11202  0.10860  0.49295  Biso   1.000  N
  N14      1.0000 0.88798  0.10860  0.00705  Biso   1.000  N
  N15      1.0000 0.61202  0.60860  0.49295  Biso   1.000  N
  N16      1.0000 0.38798  0.60860  0.00705  Biso   1.000  N
  C9       1.0000 0.86561  0.74850  0.53639  Biso   1.000  C
  C10      1.0000 0.13439  0.74850  0.96361  Biso   1.000  C
  C11      1.0000 0.36561  0.24850  0.53639  Biso   1.000  C
  C12      1.0000 0.63439  0.24850  0.96361  Biso   1.000  C
  C13      1.0000 0.13439  0.25150  0.46361  Biso   1.000  C
  C14      1.0000 0.86561  0.25150  0.03639  Biso   1.000  C
  C15      1.0000 0.63439  0.75150  0.46361  Biso   1.000  C
  C16      1.0000 0.36561  0.75150  0.03639  Biso   1.000  C
  H25      1.0000 0.87690  0.65490  0.51070  Biso   1.000  H
  H26      1.0000 0.12310  0.65490  0.98930  Biso   1.000  H
  H27      1.0000 0.37690  0.15490  0.51070  Biso   1.000  H
  H28      1.0000 0.62310  0.15490  0.98930  Biso   1.000  H
  H29      1.0000 0.12310  0.34510  0.48930  Biso   1.000  H
  H30      1.0000 0.87690  0.34510  0.01070  Biso   1.000  H
  H31      1.0000 0.62310  0.84510  0.48930  Biso   1.000  H
  H32      1.0000 0.37690  0.84510  0.01070  Biso   1.000  H
  H33      1.0000 0.81600  0.75100  0.51710  Biso   1.000  H
  H34      1.0000 0.18400  0.75100  0.98290  Biso   1.000  H
  H35      1.0000 0.31600  0.25100  0.51710  Biso   1.000  H
  H36      1.0000 0.68400  0.25100  0.98290  Biso   1.000  H
  H37      1.0000 0.18400  0.24900  0.48290  Biso   1.000  H
  H38      1.0000 0.81600  0.24900  0.01710  Biso   1.000  H
  H39      1.0000 0.68400  0.74900  0.48290  Biso   1.000  H
  H40      1.0000 0.31600  0.74900  0.01710  Biso   1.000  H
  C17      1.0000 0.90193  0.74270  0.63599  Biso   1.000  C
  C18      1.0000 0.09807  0.74270  0.86401  Biso   1.000  C
  C19      1.0000 0.40193  0.24270  0.63599  Biso   1.000  C
  C20      1.0000 0.59807  0.24270  0.86401  Biso   1.000  C
  C21      1.0000 0.09807  0.25730  0.36401  Biso   1.000  C
  C22      1.0000 0.90193  0.25730  0.13599  Biso   1.000  C
  C23      1.0000 0.59807  0.75730  0.36401  Biso   1.000  C
  C24      1.0000 0.40193  0.75730  0.13599  Biso   1.000  C
  H41      1.0000 0.88580  0.65210  0.65840  Biso   1.000  H
  H42      1.0000 0.11420  0.65210  0.84160  Biso   1.000  H
  H43      1.0000 0.38580  0.15210  0.65840  Biso   1.000  H
  H44      1.0000 0.61420  0.15210  0.84160  Biso   1.000  H
  H45      1.0000 0.11420  0.34790  0.34160  Biso   1.000  H
  H46      1.0000 0.88580  0.34790  0.15840  Biso   1.000  H
  H47      1.0000 0.61420  0.84790  0.34160  Biso   1.000  H
  H48      1.0000 0.38580  0.84790  0.15840  Biso   1.000  H
  H49      1.0000 0.95130  0.73130  0.65500  Biso   1.000  H
  H50      1.0000 0.04870  0.73130  0.84500  Biso   1.000  H
  H51      1.0000 0.45130  0.23130  0.65500  Biso   1.000  H
  H52      1.0000 0.54870  0.23130  0.84500  Biso   1.000  H
  H53      1.0000 0.04870  0.26870  0.34500  Biso   1.000  H
  H54      1.0000 0.95130  0.26870  0.15500  Biso   1.000  H
  H55      1.0000 0.54870  0.76870  0.34500  Biso   1.000  H
  H56      1.0000 0.45130  0.76870  0.15500  Biso   1.000  H
  C25      1.0000 0.82636  0.87840  0.68749  Biso   1.000  C
  C26      1.0000 0.17364  0.87840  0.81251  Biso   1.000  C
  C27      1.0000 0.32636  0.37840  0.68749  Biso   1.000  C
  C28      1.0000 0.67364  0.37840  0.81251  Biso   1.000  C
  C29      1.0000 0.17364  0.12160  0.31251  Biso   1.000  C
  C30      1.0000 0.82636  0.12160  0.18749  Biso   1.000  C
  C31      1.0000 0.67364  0.62160  0.31251  Biso   1.000  C
  C32      1.0000 0.32636  0.62160  0.18749  Biso   1.000  C
  H57      1.0000 0.78720  0.85230  0.63250  Biso   1.000  H
  H58      1.0000 0.21280  0.85230  0.86750  Biso   1.000  H
  H59      1.0000 0.28720  0.35230  0.63250  Biso   1.000  H
  H60      1.0000 0.71280  0.35230  0.86750  Biso   1.000  H
  H61      1.0000 0.21280  0.14770  0.36750  Biso   1.000  H
  H62      1.0000 0.78720  0.14770  0.13250  Biso   1.000  H
  H63      1.0000 0.71280  0.64770  0.36750  Biso   1.000  H
  H64      1.0000 0.28720  0.64770  0.13250  Biso   1.000  H
  H65      1.0000 0.81850  0.97880  0.70960  Biso   1.000  H
  H66      1.0000 0.18150  0.97880  0.79040  Biso   1.000  H
  H67      1.0000 0.31850  0.47880  0.70960  Biso   1.000  H
  H68      1.0000 0.68150  0.47880  0.79040  Biso   1.000  H
  H69      1.0000 0.18150  0.02120  0.29040  Biso   1.000  H
  H70      1.0000 0.81850  0.02120  0.20960  Biso   1.000  H
  H71      1.0000 0.68150  0.52120  0.29040  Biso   1.000  H
  H72      1.0000 0.31850  0.52120  0.20960  Biso   1.000  H
  H73      1.0000 0.83280  0.79680  0.73130  Biso   1.000  H
  H74      1.0000 0.16720  0.79680  0.76870  Biso   1.000  H
  H75      1.0000 0.33280  0.29680  0.73130  Biso   1.000  H
  H76      1.0000 0.66720  0.29680  0.76870  Biso   1.000  H
  H77      1.0000 0.16720  0.20320  0.26870  Biso   1.000  H
  H78      1.0000 0.83280  0.20320  0.23130  Biso   1.000  H
  H79      1.0000 0.66720  0.70320  0.26870  Biso   1.000  H
  H80      1.0000 0.33280  0.70320  0.23130  Biso   1.000  H
  O25      1.0000 0.98570  0.19103  0.50789  Biso   1.000  O
  O26      1.0000 0.01430  0.19103  0.99211  Biso   1.000  O
  O27      1.0000 0.48570  0.69103  0.50789  Biso   1.000  O
  O28      1.0000 0.51430  0.69103  0.99211  Biso   1.000  O
  O29      1.0000 0.01430  0.80897  0.49211  Biso   1.000  O
  O30      1.0000 0.98570  0.80897  0.00789  Biso   1.000  O
  O31      1.0000 0.51430  0.30897  0.49211  Biso   1.000  O
  O32      1.0000 0.48570  0.30897  0.00789  Biso   1.000  O
  C33      1.0000 0.92961  0.25820  0.48156  Biso   1.000  C
  C34      1.0000 0.07039  0.25820  0.01844  Biso   1.000  C
  C35      1.0000 0.42961  0.75820  0.48156  Biso   1.000  C
  C36      1.0000 0.57039  0.75820  0.01844  Biso   1.000  C
  C37      1.0000 0.07039  0.74180  0.51844  Biso   1.000  C
  C38      1.0000 0.92961  0.74180  0.98156  Biso   1.000  C
  C39      1.0000 0.57039  0.24180  0.51844  Biso   1.000  C
  C40      1.0000 0.42961  0.24180  0.98156  Biso   1.000  C
  C41      1.0000 0.91095  0.37670  0.40856  Biso   1.000  C
  C42      1.0000 0.08905  0.37670  0.09144  Biso   1.000  C
  C43      1.0000 0.41095  0.87670  0.40856  Biso   1.000  C
  C44      1.0000 0.58905  0.87670  0.09144  Biso   1.000  C
  C45      1.0000 0.08905  0.62330  0.59144  Biso   1.000  C
  C46      1.0000 0.91095  0.62330  0.90856  Biso   1.000  C
  C47      1.0000 0.58905  0.12330  0.59144  Biso   1.000  C
  C48      1.0000 0.41095  0.12330  0.90856  Biso   1.000  C
  C49      1.0000 0.96077  0.44810  0.39000  Biso   1.000  C
  C50      1.0000 0.03923  0.44810  0.11000  Biso   1.000  C
  C51      1.0000 0.46077  0.94810  0.39000  Biso   1.000  C
  C52      1.0000 0.53923  0.94810  0.11000  Biso   1.000  C
  C53      1.0000 0.03923  0.55190  0.61000  Biso   1.000  C
  C54      1.0000 0.96077  0.55190  0.89000  Biso   1.000  C
  C55      1.0000 0.53923  0.05190  0.61000  Biso   1.000  C
  C56      1.0000 0.46077  0.05190  0.89000  Biso   1.000  C
  H81      1.0000 0.00700  0.42290  0.42460  Biso   1.000  H
  H82      1.0000 0.99300  0.42290  0.07540  Biso   1.000  H
  H83      1.0000 0.50700  0.92290  0.42460  Biso   1.000  H
  H84      1.0000 0.49300  0.92290  0.07540  Biso   1.000  H
  H85      1.0000 0.99300  0.57710  0.57540  Biso   1.000  H
  H86      1.0000 0.00700  0.57710  0.92460  Biso   1.000  H
  H87      1.0000 0.49300  0.07710  0.57540  Biso   1.000  H
  H88      1.0000 0.50700  0.07710  0.92460  Biso   1.000  H
  C57      1.0000 0.94389  0.55560  0.32163  Biso   1.000  C
  C58      1.0000 0.05611  0.55560  0.17837  Biso   1.000  C
  C59      1.0000 0.44389  0.05560  0.32163  Biso   1.000  C
  C60      1.0000 0.55611  0.05560  0.17837  Biso   1.000  C
  C61      1.0000 0.05611  0.44440  0.67837  Biso   1.000  C
  C62      1.0000 0.94389  0.44440  0.82163  Biso   1.000  C
  C63      1.0000 0.55611  0.94440  0.67837  Biso   1.000  C
  C64      1.0000 0.44389  0.94440  0.82163  Biso   1.000  C
  H89      1.0000 0.97860  0.60430  0.31050  Biso   1.000  H
  H90      1.0000 0.02140  0.60430  0.18950  Biso   1.000  H
  H91      1.0000 0.47860  0.10430  0.31050  Biso   1.000  H
  H92      1.0000 0.52140  0.10430  0.18950  Biso   1.000  H
  H93      1.0000 0.02140  0.39570  0.68950  Biso   1.000  H
  H94      1.0000 0.97860  0.39570  0.81050  Biso   1.000  H
  H95      1.0000 0.52140  0.89570  0.68950  Biso   1.000  H
  H96      1.0000 0.47860  0.89570  0.81050  Biso   1.000  H
  C65      1.0000 0.87623  0.59170  0.26960  Biso   1.000  C
  C66      1.0000 0.12377  0.59170  0.23040  Biso   1.000  C
  C67      1.0000 0.37623  0.09170  0.26960  Biso   1.000  C
  C68      1.0000 0.62377  0.09170  0.23040  Biso   1.000  C
  C69      1.0000 0.12377  0.40830  0.73040  Biso   1.000  C
  C70      1.0000 0.87623  0.40830  0.76960  Biso   1.000  C
  C71      1.0000 0.62377  0.90830  0.73040  Biso   1.000  C
  C72      1.0000 0.37623  0.90830  0.76960  Biso   1.000  C
  C73      1.0000 0.82598  0.52090  0.28830  Biso   1.000  C
  C74      1.0000 0.17402  0.52090  0.21170  Biso   1.000  C
  C75      1.0000 0.32598  0.02090  0.28830  Biso   1.000  C
  C76      1.0000 0.67402  0.02090  0.21170  Biso   1.000  C
  C77      1.0000 0.17402  0.47910  0.71170  Biso   1.000  C
  C78      1.0000 0.82598  0.47910  0.78830  Biso   1.000  C
  C79      1.0000 0.67402  0.97910  0.71170  Biso   1.000  C
  C80      1.0000 0.32598  0.97910  0.78830  Biso   1.000  C
  H97      1.0000 0.77970  0.54500  0.25320  Biso   1.000  H
  H98      1.0000 0.22030  0.54500  0.24680  Biso   1.000  H
  H99      1.0000 0.27970  0.04500  0.25320  Biso   1.000  H
  H100     1.0000 0.72030  0.04500  0.24680  Biso   1.000  H
  H101     1.0000 0.22030  0.45500  0.74680  Biso   1.000  H
  H102     1.0000 0.77970  0.45500  0.75320  Biso   1.000  H
  H103     1.0000 0.72030  0.95500  0.74680  Biso   1.000  H
  H104     1.0000 0.27970  0.95500  0.75320  Biso   1.000  H
  C81      1.0000 0.84306  0.41610  0.35754  Biso   1.000  C
  C82      1.0000 0.15694  0.41610  0.14246  Biso   1.000  C
  C83      1.0000 0.34306  0.91610  0.35754  Biso   1.000  C
  C84      1.0000 0.65694  0.91610  0.14246  Biso   1.000  C
  C85      1.0000 0.15694  0.58390  0.64246  Biso   1.000  C
  C86      1.0000 0.84306  0.58390  0.85754  Biso   1.000  C
  C87      1.0000 0.65694  0.08390  0.64246  Biso   1.000  C
  C88      1.0000 0.34306  0.08390  0.85754  Biso   1.000  C
  H105     1.0000 0.80850  0.37090  0.37030  Biso   1.000  H
  H106     1.0000 0.19150  0.37090  0.12970  Biso   1.000  H
  H107     1.0000 0.30850  0.87090  0.37030  Biso   1.000  H
  H108     1.0000 0.69150  0.87090  0.12970  Biso   1.000  H
  H109     1.0000 0.19150  0.62910  0.62970  Biso   1.000  H
  H110     1.0000 0.80850  0.62910  0.87030  Biso   1.000  H
  H111     1.0000 0.69150  0.12910  0.62970  Biso   1.000  H
  H112     1.0000 0.30850  0.12910  0.87030  Biso   1.000  H
  C89      1.0000 0.85519  0.70450  0.19374  Biso   1.000  C
  C90      1.0000 0.14481  0.70450  0.30626  Biso   1.000  C
  C91      1.0000 0.35519  0.20450  0.19374  Biso   1.000  C
  C92      1.0000 0.64481  0.20450  0.30626  Biso   1.000  C
  C93      1.0000 0.14481  0.29550  0.80626  Biso   1.000  C
  C94      1.0000 0.85519  0.29550  0.69374  Biso   1.000  C
  C95      1.0000 0.64481  0.79550  0.80626  Biso   1.000  C
  C96      1.0000 0.35519  0.79550  0.69374  Biso   1.000  C
  O33      1.0000 0.79394  0.71722  0.14394  Biso   1.000  O
  O34      1.0000 0.20606  0.71722  0.35606  Biso   1.000  O
  O35      1.0000 0.29394  0.21722  0.14394  Biso   1.000  O
  O36      1.0000 0.70606  0.21722  0.35606  Biso   1.000  O
  O37      1.0000 0.20606  0.28278  0.85606  Biso   1.000  O
  O38      1.0000 0.79394  0.28278  0.64394  Biso   1.000  O
  O39      1.0000 0.70606  0.78278  0.85606  Biso   1.000  O
  O40      1.0000 0.29394  0.78278  0.64394  Biso   1.000  O
  O41      1.0000 0.90272  0.78140  0.18641  Biso   1.000  O
  O42      1.0000 0.09728  0.78140  0.31359  Biso   1.000  O
  O43      1.0000 0.40272  0.28140  0.18641  Biso   1.000  O
  O44      1.0000 0.59728  0.28140  0.31359  Biso   1.000  O
  O45      1.0000 0.09728  0.21860  0.81359  Biso   1.000  O
  O46      1.0000 0.90272  0.21860  0.68641  Biso   1.000  O
  O47      1.0000 0.59728  0.71860  0.81359  Biso   1.000  O
  O48      1.0000 0.40272  0.71860  0.68641  Biso   1.000  O
  H113     1.0000 0.92980  0.87600  0.51630  Biso   1.000  H
  H114     1.0000 0.07020  0.87600  0.98370  Biso   1.000  H
  H115     1.0000 0.42980  0.37600  0.51630  Biso   1.000  H
  H116     1.0000 0.57020  0.37600  0.98370  Biso   1.000  H
  H117     1.0000 0.07020  0.12400  0.48370  Biso   1.000  H
  H118     1.0000 0.92980  0.12400  0.01630  Biso   1.000  H
  H119     1.0000 0.57020  0.62400  0.48370  Biso   1.000  H
  H120     1.0000 0.42980  0.62400  0.01630  Biso   1.000  H
  H121     1.0000 0.01300  0.08200  0.61600  Biso   1.000  H
  H122     1.0000 0.98700  0.08200  0.88400  Biso   1.000  H
  H123     1.0000 0.51300  0.58200  0.61600  Biso   1.000  H
  H124     1.0000 0.48700  0.58200  0.88400  Biso   1.000  H
  H125     1.0000 0.98700  0.91800  0.38400  Biso   1.000  H
  H126     1.0000 0.01300  0.91800  0.11600  Biso   1.000  H
  H127     1.0000 0.48700  0.41800  0.38400  Biso   1.000  H
  H128     1.0000 0.51300  0.41800  0.11600  Biso   1.000  H
  H129     1.0000 0.03020  0.10600  0.70000  Biso   1.000  H
  H130     1.0000 0.96980  0.10600  0.80000  Biso   1.000  H
  H131     1.0000 0.53020  0.60600  0.70000  Biso   1.000  H
  H132     1.0000 0.46980  0.60600  0.80000  Biso   1.000  H
  H133     1.0000 0.96980  0.89400  0.30000  Biso   1.000  H
  H134     1.0000 0.03020  0.89400  0.20000  Biso   1.000  H
  H135     1.0000 0.46980  0.39400  0.30000  Biso   1.000  H
  H136     1.0000 0.53020  0.39400  0.20000  Biso   1.000  H
  H137     1.0000 0.91950  0.90200  0.71980  Biso   1.000  H
  H138     1.0000 0.08050  0.90200  0.78020  Biso   1.000  H
  H139     1.0000 0.41950  0.40200  0.71980  Biso   1.000  H
  H140     1.0000 0.58050  0.40200  0.78020  Biso   1.000  H
  H141     1.0000 0.08050  0.09800  0.28020  Biso   1.000  H
  H142     1.0000 0.91950  0.09800  0.21980  Biso   1.000  H
  H143     1.0000 0.58050  0.59800  0.28020  Biso   1.000  H
  H144     1.0000 0.41950  0.59800  0.21980  Biso   1.000  H
  H145     1.0000 0.74460  0.09700  0.46200  Biso   1.000  H
  H146     1.0000 0.25540  0.09700  0.03800  Biso   1.000  H
  H147     1.0000 0.24460  0.59700  0.46200  Biso   1.000  H
  H148     1.0000 0.75540  0.59700  0.03800  Biso   1.000  H
  H149     1.0000 0.25540  0.90300  0.53800  Biso   1.000  H
  H150     1.0000 0.74460  0.90300  0.96200  Biso   1.000  H
  H151     1.0000 0.75540  0.40300  0.53800  Biso   1.000  H
  H152     1.0000 0.24460  0.40300  0.96200  Biso   1.000  H
  H153     1.0000 0.76370  0.12700  0.55500  Biso   1.000  H
  H154     1.0000 0.23630  0.12700  0.94500  Biso   1.000  H
  H155     1.0000 0.26370  0.62700  0.55500  Biso   1.000  H
  H156     1.0000 0.73630  0.62700  0.94500  Biso   1.000  H
  H157     1.0000 0.23630  0.87300  0.44500  Biso   1.000  H
  H158     1.0000 0.76370  0.87300  0.05500  Biso   1.000  H
  H159     1.0000 0.73630  0.37300  0.44500  Biso   1.000  H
  H160     1.0000 0.26370  0.37300  0.05500  Biso   1.000  H
