data_image0
_cell_length_a       7.4235
_cell_length_b       17.475
_cell_length_c       18.053
_cell_angle_alpha    90
_cell_angle_beta     98.188
_cell_angle_gamma    90

_symmetry_space_group_name_H-M    "P 1"
_symmetry_int_tables_number       1

loop_
  _symmetry_equiv_pos_as_xyz
  'x, y, z'

loop_
  _atom_site_label
  _atom_site_occupancy
  _atom_site_fract_x
  _atom_site_fract_y
  _atom_site_fract_z
  _atom_site_thermal_displace_type
  _atom_site_B_iso_or_equiv
  _atom_site_type_symbol
  Cu1      1.0000 0.41788  0.62384  0.10971  Biso   1.000  Cu
  Cu2      1.0000 0.58212  0.12384  0.39029  Biso   1.000  Cu
  Cu3      1.0000 0.58212  0.37616  0.89029  Biso   1.000  Cu
  Cu4      1.0000 0.41788  0.87616  0.60971  Biso   1.000  Cu
  N1       1.0000 0.33060  0.65433  0.00279  Biso   1.000  N
  N2       1.0000 0.66940  0.15433  0.49721  Biso   1.000  N
  N3       1.0000 0.66940  0.34567  0.99721  Biso   1.000  N
  N4       1.0000 0.33060  0.84567  0.50279  Biso   1.000  N
  N5       1.0000 0.32780  0.52235  0.06863  Biso   1.000  N
  N6       1.0000 0.67220  0.02235  0.43137  Biso   1.000  N
  N7       1.0000 0.67220  0.47765  0.93137  Biso   1.000  N
  N8       1.0000 0.32780  0.97765  0.56863  Biso   1.000  N
  O1       1.0000 0.42650  0.93932  0.19835  Biso   1.000  O
  O2       1.0000 0.57350  0.43932  0.30165  Biso   1.000  O
  O3       1.0000 0.57350  0.06068  0.80165  Biso   1.000  O
  O4       1.0000 0.42650  0.56068  0.69835  Biso   1.000  O
  O5       1.0000 0.48630  0.08114  0.29366  Biso   1.000  O
  O6       1.0000 0.51370  0.58114  0.20634  Biso   1.000  O
  O7       1.0000 0.51370  0.91886  0.70634  Biso   1.000  O
  O8       1.0000 0.48630  0.41886  0.79366  Biso   1.000  O
  O9       1.0000 0.18820  0.09819  0.29298  Biso   1.000  O
  O10      1.0000 0.81180  0.59819  0.20702  Biso   1.000  O
  O11      1.0000 0.81180  0.90181  0.70702  Biso   1.000  O
  O12      1.0000 0.18820  0.40181  0.79298  Biso   1.000  O
  O13      1.0000 0.36340  0.77983  0.19838  Biso   1.000  O
  O14      1.0000 0.63660  0.27983  0.30162  Biso   1.000  O
  O15      1.0000 0.63660  0.22017  0.80162  Biso   1.000  O
  O16      1.0000 0.36340  0.72017  0.69838  Biso   1.000  O
  O17      1.0000 0.53730  0.72067  0.12721  Biso   1.000  O
  O18      1.0000 0.46270  0.22067  0.37279  Biso   1.000  O
  O19      1.0000 0.46270  0.27933  0.87279  Biso   1.000  O
  O20      1.0000 0.53730  0.77933  0.62721  Biso   1.000  O
  O21      1.0000 0.13580  0.66083  0.14824  Biso   1.000  O
  O22      1.0000 0.86420  0.16083  0.35176  Biso   1.000  O
  O23      1.0000 0.86420  0.33917  0.85176  Biso   1.000  O
  O24      1.0000 0.13580  0.83917  0.64824  Biso   1.000  O
  H1       1.0000 0.16900  0.70230  0.17080  Biso   1.000  H
  H2       1.0000 0.83100  0.20230  0.32920  Biso   1.000  H
  H3       1.0000 0.83100  0.29770  0.82920  Biso   1.000  H
  H4       1.0000 0.16900  0.79770  0.67080  Biso   1.000  H
  H5       1.0000 0.04850  0.64480  0.16980  Biso   1.000  H
  H6       1.0000 0.95150  0.14480  0.33020  Biso   1.000  H
  H7       1.0000 0.95150  0.35520  0.83020  Biso   1.000  H
  H8       1.0000 0.04850  0.85520  0.66980  Biso   1.000  H
  C1       1.0000 0.32090  0.08195  0.26283  Biso   1.000  C
  C2       1.0000 0.67910  0.58195  0.23717  Biso   1.000  C
  C3       1.0000 0.67910  0.91805  0.73717  Biso   1.000  C
  C4       1.0000 0.32090  0.41805  0.76283  Biso   1.000  C
  C5       1.0000 0.29240  0.06403  0.18006  Biso   1.000  C
  C6       1.0000 0.70760  0.56403  0.31994  Biso   1.000  C
  C7       1.0000 0.70760  0.93597  0.81994  Biso   1.000  C
  C8       1.0000 0.29240  0.43597  0.68006  Biso   1.000  C
  C9       1.0000 0.19970  0.11672  0.13170  Biso   1.000  C
  C10      1.0000 0.80030  0.61672  0.36830  Biso   1.000  C
  C11      1.0000 0.80030  0.88328  0.86830  Biso   1.000  C
  C12      1.0000 0.19970  0.38328  0.63170  Biso   1.000  C
  H9       1.0000 0.15220  0.16050  0.15100  Biso   1.000  H
  H10      1.0000 0.84780  0.66050  0.34900  Biso   1.000  H
  H11      1.0000 0.84780  0.83950  0.84900  Biso   1.000  H
  H12      1.0000 0.15220  0.33950  0.65100  Biso   1.000  H
  C13      1.0000 0.17630  0.10540  0.05493  Biso   1.000  C
  C14      1.0000 0.82370  0.60540  0.44507  Biso   1.000  C
  C15      1.0000 0.82370  0.89460  0.94507  Biso   1.000  C
  C16      1.0000 0.17630  0.39460  0.55493  Biso   1.000  C
  H13      1.0000 0.11610  0.14190  0.02300  Biso   1.000  H
  H14      1.0000 0.88390  0.64190  0.47700  Biso   1.000  H
  H15      1.0000 0.88390  0.85810  0.97700  Biso   1.000  H
  H16      1.0000 0.11610  0.35810  0.52300  Biso   1.000  H
  C17      1.0000 0.24240  0.04010  0.02647  Biso   1.000  C
  C18      1.0000 0.75760  0.54010  0.47353  Biso   1.000  C
  C19      1.0000 0.75760  0.95990  0.97353  Biso   1.000  C
  C20      1.0000 0.24240  0.45990  0.52647  Biso   1.000  C
  H17      1.0000 0.22840  0.03270  0.97500  Biso   1.000  H
  H18      1.0000 0.77160  0.53270  0.52500  Biso   1.000  H
  H19      1.0000 0.77160  0.96730  0.02500  Biso   1.000  H
  H20      1.0000 0.22840  0.46730  0.47500  Biso   1.000  H
  C21      1.0000 0.32940  0.98550  0.07367  Biso   1.000  C
  C22      1.0000 0.67060  0.48550  0.42633  Biso   1.000  C
  C23      1.0000 0.67060  0.01450  0.92633  Biso   1.000  C
  C24      1.0000 0.32940  0.51450  0.57367  Biso   1.000  C
  H21      1.0000 0.37130  0.94070  0.05420  Biso   1.000  H
  H22      1.0000 0.62870  0.44070  0.44580  Biso   1.000  H
  H23      1.0000 0.62870  0.05930  0.94580  Biso   1.000  H
  H24      1.0000 0.37130  0.55930  0.55420  Biso   1.000  H
  C25      1.0000 0.35430  0.99754  0.15049  Biso   1.000  C
  C26      1.0000 0.64570  0.49754  0.34951  Biso   1.000  C
  C27      1.0000 0.64570  0.00246  0.84951  Biso   1.000  C
  C28      1.0000 0.35430  0.50246  0.65049  Biso   1.000  C
  C29      1.0000 0.60090  0.91544  0.18894  Biso   1.000  C
  C30      1.0000 0.39910  0.41544  0.31106  Biso   1.000  C
  C31      1.0000 0.39910  0.08456  0.81106  Biso   1.000  C
  C32      1.0000 0.60090  0.58456  0.68894  Biso   1.000  C
  C33      1.0000 0.73780  0.97019  0.19715  Biso   1.000  C
  C34      1.0000 0.26220  0.47019  0.30285  Biso   1.000  C
  C35      1.0000 0.26220  0.02981  0.80285  Biso   1.000  C
  C36      1.0000 0.73780  0.52981  0.69715  Biso   1.000  C
  H25      1.0000 0.71100  0.02070  0.20760  Biso   1.000  H
  H26      1.0000 0.28900  0.52070  0.29240  Biso   1.000  H
  H27      1.0000 0.28900  0.97930  0.79240  Biso   1.000  H
  H28      1.0000 0.71100  0.47930  0.70760  Biso   1.000  H
  C37      1.0000 0.91320  0.94950  0.18986  Biso   1.000  C
  C38      1.0000 0.08680  0.44950  0.31014  Biso   1.000  C
  C39      1.0000 0.08680  0.05050  0.81014  Biso   1.000  C
  C40      1.0000 0.91320  0.55050  0.68986  Biso   1.000  C
  H29      1.0000 0.00520  0.98600  0.19570  Biso   1.000  H
  H30      1.0000 0.99480  0.48600  0.30430  Biso   1.000  H
  H31      1.0000 0.99480  0.01400  0.80430  Biso   1.000  H
  H32      1.0000 0.00520  0.51400  0.69570  Biso   1.000  H
  C41      1.0000 0.95310  0.87480  0.17389  Biso   1.000  C
  C42      1.0000 0.04690  0.37480  0.32611  Biso   1.000  C
  C43      1.0000 0.04690  0.12520  0.82611  Biso   1.000  C
  C44      1.0000 0.95310  0.62520  0.67389  Biso   1.000  C
  H33      1.0000 0.07160  0.86090  0.16870  Biso   1.000  H
  H34      1.0000 0.92840  0.36090  0.33130  Biso   1.000  H
  H35      1.0000 0.92840  0.13910  0.83130  Biso   1.000  H
  H36      1.0000 0.07160  0.63910  0.66870  Biso   1.000  H
  C45      1.0000 0.81670  0.82106  0.16569  Biso   1.000  C
  C46      1.0000 0.18330  0.32106  0.33431  Biso   1.000  C
  C47      1.0000 0.18330  0.17894  0.83431  Biso   1.000  C
  C48      1.0000 0.81670  0.67894  0.66569  Biso   1.000  C
  H37      1.0000 0.84450  0.77080  0.15460  Biso   1.000  H
  H38      1.0000 0.15550  0.27080  0.34540  Biso   1.000  H
  H39      1.0000 0.15550  0.22920  0.84540  Biso   1.000  H
  H40      1.0000 0.84450  0.72920  0.65460  Biso   1.000  H
  C49      1.0000 0.63760  0.83974  0.17359  Biso   1.000  C
  C50      1.0000 0.36240  0.33974  0.32641  Biso   1.000  C
  C51      1.0000 0.36240  0.16026  0.82641  Biso   1.000  C
  C52      1.0000 0.63760  0.66026  0.67359  Biso   1.000  C
  C53      1.0000 0.49840  0.77630  0.16651  Biso   1.000  C
  C54      1.0000 0.50160  0.27630  0.33349  Biso   1.000  C
  C55      1.0000 0.50160  0.22370  0.83349  Biso   1.000  C
  C56      1.0000 0.49840  0.72370  0.66651  Biso   1.000  C
  C57      1.0000 0.30150  0.82190  0.87010  Biso   1.000  C
  C58      1.0000 0.69850  0.32190  0.62990  Biso   1.000  C
  C59      1.0000 0.69850  0.17810  0.12990  Biso   1.000  C
  C60      1.0000 0.30150  0.67810  0.37010  Biso   1.000  C
  H41      1.0000 0.35080  0.85480  0.91060  Biso   1.000  H
  H42      1.0000 0.64920  0.35480  0.58940  Biso   1.000  H
  H43      1.0000 0.64920  0.14520  0.08940  Biso   1.000  H
  H44      1.0000 0.35080  0.64520  0.41060  Biso   1.000  H
  H45      1.0000 0.18300  0.83990  0.84910  Biso   1.000  H
  H46      1.0000 0.81700  0.33990  0.65090  Biso   1.000  H
  H47      1.0000 0.81700  0.16010  0.15090  Biso   1.000  H
  H48      1.0000 0.18300  0.66010  0.34910  Biso   1.000  H
  H49      1.0000 0.38020  0.82220  0.83230  Biso   1.000  H
  H50      1.0000 0.61980  0.32220  0.66770  Biso   1.000  H
  H51      1.0000 0.61980  0.17780  0.16770  Biso   1.000  H
  H52      1.0000 0.38020  0.67780  0.33230  Biso   1.000  H
  C61      1.0000 0.28640  0.74140  0.89902  Biso   1.000  C
  C62      1.0000 0.71360  0.24140  0.60098  Biso   1.000  C
  C63      1.0000 0.71360  0.25860  0.10098  Biso   1.000  C
  C64      1.0000 0.28640  0.75860  0.39902  Biso   1.000  C
  C65      1.0000 0.22450  0.68040  0.85315  Biso   1.000  C
  C66      1.0000 0.77550  0.18040  0.64685  Biso   1.000  C
  C67      1.0000 0.77550  0.31960  0.14685  Biso   1.000  C
  C68      1.0000 0.22450  0.81960  0.35315  Biso   1.000  C
  H53      1.0000 0.18990  0.68860  0.80220  Biso   1.000  H
  H54      1.0000 0.81010  0.18860  0.69780  Biso   1.000  H
  H55      1.0000 0.81010  0.31140  0.19780  Biso   1.000  H
  H56      1.0000 0.18990  0.81140  0.30220  Biso   1.000  H
  C69      1.0000 0.21360  0.60830  0.88202  Biso   1.000  C
  C70      1.0000 0.78640  0.10830  0.61798  Biso   1.000  C
  C71      1.0000 0.78640  0.39170  0.11798  Biso   1.000  C
  C72      1.0000 0.21360  0.89170  0.38202  Biso   1.000  C
  H57      1.0000 0.17120  0.56780  0.85090  Biso   1.000  H
  H58      1.0000 0.82880  0.06780  0.64910  Biso   1.000  H
  H59      1.0000 0.82880  0.43220  0.14910  Biso   1.000  H
  H60      1.0000 0.17120  0.93220  0.35090  Biso   1.000  H
  C73      1.0000 0.26600  0.59610  0.95756  Biso   1.000  C
  C74      1.0000 0.73400  0.09610  0.54244  Biso   1.000  C
  C75      1.0000 0.73400  0.40390  0.04244  Biso   1.000  C
  C76      1.0000 0.26600  0.90390  0.45756  Biso   1.000  C
  C77      1.0000 0.33970  0.72440  0.97383  Biso   1.000  C
  C78      1.0000 0.66030  0.22440  0.52617  Biso   1.000  C
  C79      1.0000 0.66030  0.27560  0.02617  Biso   1.000  C
  C80      1.0000 0.33970  0.77560  0.47383  Biso   1.000  C
  H61      1.0000 0.38420  0.76390  0.00580  Biso   1.000  H
  H62      1.0000 0.61580  0.26390  0.49420  Biso   1.000  H
  H63      1.0000 0.61580  0.23610  0.99420  Biso   1.000  H
  H64      1.0000 0.38420  0.73610  0.50580  Biso   1.000  H
  C81      1.0000 0.26040  0.52224  0.99492  Biso   1.000  C
  C82      1.0000 0.73960  0.02224  0.50508  Biso   1.000  C
  C83      1.0000 0.73960  0.47776  0.00508  Biso   1.000  C
  C84      1.0000 0.26040  0.97776  0.49492  Biso   1.000  C
  C85      1.0000 0.19260  0.45540  0.96111  Biso   1.000  C
  C86      1.0000 0.80740  0.95540  0.53889  Biso   1.000  C
  C87      1.0000 0.80740  0.54460  0.03889  Biso   1.000  C
  C88      1.0000 0.19260  0.04460  0.46111  Biso   1.000  C
  H65      1.0000 0.14710  0.45510  0.91040  Biso   1.000  H
  H66      1.0000 0.85290  0.95510  0.58960  Biso   1.000  H
  H67      1.0000 0.85290  0.54490  0.08960  Biso   1.000  H
  H68      1.0000 0.14710  0.04490  0.41040  Biso   1.000  H
  C89      1.0000 0.19190  0.38961  0.00190  Biso   1.000  C
  C90      1.0000 0.80810  0.88961  0.49810  Biso   1.000  C
  C91      1.0000 0.80810  0.61039  0.99810  Biso   1.000  C
  C92      1.0000 0.19190  0.11039  0.50190  Biso   1.000  C
  H69      1.0000 0.14530  0.34480  0.97880  Biso   1.000  H
  H70      1.0000 0.85470  0.84480  0.52120  Biso   1.000  H
  H71      1.0000 0.85470  0.65520  0.02120  Biso   1.000  H
  H72      1.0000 0.14530  0.15520  0.47880  Biso   1.000  H
  C93      1.0000 0.26010  0.38895  0.07754  Biso   1.000  C
  C94      1.0000 0.73990  0.88895  0.42246  Biso   1.000  C
  C95      1.0000 0.73990  0.61105  0.92246  Biso   1.000  C
  C96      1.0000 0.26010  0.11105  0.57754  Biso   1.000  C
  C97      1.0000 0.26160  0.31850  0.12450  Biso   1.000  C
  C98      1.0000 0.73840  0.81850  0.37550  Biso   1.000  C
  C99      1.0000 0.73840  0.68150  0.87550  Biso   1.000  C
  C100     1.0000 0.26160  0.18150  0.62450  Biso   1.000  C
  H73      1.0000 0.36770  0.31870  0.16170  Biso   1.000  H
  H74      1.0000 0.63230  0.81870  0.33830  Biso   1.000  H
  H75      1.0000 0.63230  0.68130  0.83830  Biso   1.000  H
  H76      1.0000 0.36770  0.18130  0.66170  Biso   1.000  H
  H77      1.0000 0.26370  0.27400  0.09330  Biso   1.000  H
  H78      1.0000 0.73630  0.77400  0.40670  Biso   1.000  H
  H79      1.0000 0.73630  0.72600  0.90670  Biso   1.000  H
  H80      1.0000 0.26370  0.22600  0.59330  Biso   1.000  H
  H81      1.0000 0.15440  0.31740  0.14860  Biso   1.000  H
  H82      1.0000 0.84560  0.81740  0.35140  Biso   1.000  H
  H83      1.0000 0.84560  0.68260  0.85140  Biso   1.000  H
  H84      1.0000 0.15440  0.18260  0.64860  Biso   1.000  H
  C101     1.0000 0.32660  0.45785  0.10777  Biso   1.000  C
  C102     1.0000 0.67340  0.95785  0.39223  Biso   1.000  C
  C103     1.0000 0.67340  0.54215  0.89223  Biso   1.000  C
  C104     1.0000 0.32660  0.04215  0.60777  Biso   1.000  C
  H85      1.0000 0.37330  0.45920  0.15840  Biso   1.000  H
  H86      1.0000 0.62670  0.95920  0.34160  Biso   1.000  H
  H87      1.0000 0.62670  0.54080  0.84160  Biso   1.000  H
  H88      1.0000 0.37330  0.04080  0.65840  Biso   1.000  H
