data_image0
_cell_length_a       7.4743
_cell_length_b       14.997
_cell_length_c       9.479
_cell_angle_alpha    90
_cell_angle_beta     122.31
_cell_angle_gamma    90

_symmetry_space_group_name_H-M    "P 1"
_symmetry_int_tables_number       1

loop_
  _symmetry_equiv_pos_as_xyz
  'x, y, z'

loop_
  _atom_site_label
  _atom_site_occupancy
  _atom_site_fract_x
  _atom_site_fract_y
  _atom_site_fract_z
  _atom_site_thermal_displace_type
  _atom_site_B_iso_or_equiv
  _atom_site_type_symbol
  Cu1      1.0000 0.35975  0.01316  0.29370  Biso   1.000  Cu
  Cu2      1.0000 0.64025  0.51316  0.20630  Biso   1.000  Cu
  Cu3      1.0000 0.64025  0.98684  0.70630  Biso   1.000  Cu
  Cu4      1.0000 0.35975  0.48684  0.79370  Biso   1.000  Cu
  Cu5      1.0000 0.50000  0.00000  0.00000  Biso   1.000  Cu
  Cu6      1.0000 0.50000  0.50000  0.50000  Biso   1.000  Cu
  O1       1.0000 0.77280  0.91180  0.03590  Biso   1.000  O
  O2       1.0000 0.22720  0.41180  0.46410  Biso   1.000  O
  O3       1.0000 0.22720  0.08820  0.96410  Biso   1.000  O
  O4       1.0000 0.77280  0.58820  0.53590  Biso   1.000  O
  O5       1.0000 0.12150  0.92970  0.15280  Biso   1.000  O
  O6       1.0000 0.87850  0.42970  0.34720  Biso   1.000  O
  O7       1.0000 0.87850  0.07030  0.84720  Biso   1.000  O
  O8       1.0000 0.12150  0.57030  0.65280  Biso   1.000  O
  N1       1.0000 0.53880  0.95560  0.22230  Biso   1.000  N
  N2       1.0000 0.46120  0.45560  0.27770  Biso   1.000  N
  N3       1.0000 0.46120  0.04440  0.77770  Biso   1.000  N
  N4       1.0000 0.53880  0.54440  0.72230  Biso   1.000  N
  N5       1.0000 0.56230  0.87470  0.24550  Biso   1.000  N
  N6       1.0000 0.43770  0.37470  0.25450  Biso   1.000  N
  N7       1.0000 0.43770  0.12530  0.75450  Biso   1.000  N
  N8       1.0000 0.56230  0.62530  0.74550  Biso   1.000  N
  N9       1.0000 0.58660  0.79990  0.26950  Biso   1.000  N
  N10      1.0000 0.41340  0.29990  0.23050  Biso   1.000  N
  N11      1.0000 0.41340  0.20010  0.73050  Biso   1.000  N
  N12      1.0000 0.58660  0.70010  0.76950  Biso   1.000  N
  N13      1.0000 0.57590  0.08950  0.46730  Biso   1.000  N
  N14      1.0000 0.42410  0.58950  0.03270  Biso   1.000  N
  N15      1.0000 0.42410  0.91050  0.53270  Biso   1.000  N
  N16      1.0000 0.57590  0.41050  0.96730  Biso   1.000  N
  N17      1.0000 0.75460  0.09330  0.49770  Biso   1.000  N
  N18      1.0000 0.24540  0.59330  0.00230  Biso   1.000  N
  N19      1.0000 0.24540  0.90670  0.50230  Biso   1.000  N
  N20      1.0000 0.75460  0.40670  0.99770  Biso   1.000  N
  N21      1.0000 0.92810  0.09870  0.53670  Biso   1.000  N
  N22      1.0000 0.07190  0.59870  0.96330  Biso   1.000  N
  N23      1.0000 0.07190  0.90130  0.46330  Biso   1.000  N
  N24      1.0000 0.92810  0.40130  0.03670  Biso   1.000  N
  N25      1.0000 0.11810  0.08960  0.26480  Biso   1.000  N
  N26      1.0000 0.88190  0.58960  0.23520  Biso   1.000  N
  N27      1.0000 0.88190  0.91040  0.73520  Biso   1.000  N
  N28      1.0000 0.11810  0.41040  0.76480  Biso   1.000  N
  N29      1.0000 0.74620  0.08270  0.13090  Biso   1.000  N
  N30      1.0000 0.25380  0.58270  0.36910  Biso   1.000  N
  N31      1.0000 0.25380  0.91730  0.86910  Biso   1.000  N
  N32      1.0000 0.74620  0.41730  0.63090  Biso   1.000  N
  C1       1.0000 0.94070  0.95360  0.11730  Biso   1.000  C
  C2       1.0000 0.05930  0.45360  0.38270  Biso   1.000  C
  C3       1.0000 0.05930  0.04640  0.88270  Biso   1.000  C
  C4       1.0000 0.94070  0.54640  0.61730  Biso   1.000  C
  C5       1.0000 0.93200  0.04810  0.17600  Biso   1.000  C
  C6       1.0000 0.06800  0.54810  0.32400  Biso   1.000  C
  C7       1.0000 0.06800  0.95190  0.82400  Biso   1.000  C
  C8       1.0000 0.93200  0.45190  0.67600  Biso   1.000  C
  C9       1.0000 0.74140  0.16820  0.17220  Biso   1.000  C
  C10      1.0000 0.25860  0.66820  0.32780  Biso   1.000  C
  C11      1.0000 0.25860  0.83180  0.82780  Biso   1.000  C
  C12      1.0000 0.74140  0.33180  0.67220  Biso   1.000  C
  C13      1.0000 0.92860  0.21670  0.26470  Biso   1.000  C
  C14      1.0000 0.07140  0.71670  0.23530  Biso   1.000  C
  C15      1.0000 0.07140  0.78330  0.73530  Biso   1.000  C
  C16      1.0000 0.92860  0.28330  0.76470  Biso   1.000  C
  C17      1.0000 0.11610  0.17460  0.30940  Biso   1.000  C
  C18      1.0000 0.88390  0.67460  0.19060  Biso   1.000  C
  C19      1.0000 0.88390  0.82540  0.69060  Biso   1.000  C
  C20      1.0000 0.11610  0.32540  0.80940  Biso   1.000  C
  H1       1.0000 0.61250  0.19510  0.13880  Biso   1.000  H
  H2       1.0000 0.38750  0.69510  0.36120  Biso   1.000  H
  H3       1.0000 0.38750  0.80490  0.86120  Biso   1.000  H
  H4       1.0000 0.61250  0.30490  0.63880  Biso   1.000  H
  H5       1.0000 0.92720  0.27550  0.29530  Biso   1.000  H
  H6       1.0000 0.07280  0.77550  0.20470  Biso   1.000  H
  H7       1.0000 0.07280  0.72450  0.70470  Biso   1.000  H
  H8       1.0000 0.92720  0.22450  0.79530  Biso   1.000  H
  H9       1.0000 0.24310  0.20550  0.37130  Biso   1.000  H
  H10      1.0000 0.75690  0.70550  0.12870  Biso   1.000  H
  H11      1.0000 0.75690  0.79450  0.62870  Biso   1.000  H
  H12      1.0000 0.24310  0.29450  0.87130  Biso   1.000  H
