data_image0
_cell_length_a       8.6678
_cell_length_b       10.2623
_cell_length_c       13.8748
_cell_angle_alpha    96.872
_cell_angle_beta     99.419
_cell_angle_gamma    99.748

_symmetry_space_group_name_H-M    "P 1"
_symmetry_int_tables_number       1

loop_
  _symmetry_equiv_pos_as_xyz
  'x, y, z'

loop_
  _atom_site_label
  _atom_site_occupancy
  _atom_site_fract_x
  _atom_site_fract_y
  _atom_site_fract_z
  _atom_site_thermal_displace_type
  _atom_site_B_iso_or_equiv
  _atom_site_type_symbol
  Er1      1.0000 0.24246  0.75076  0.49690  Biso   1.000  Er
  Er2      1.0000 0.75754  0.24924  0.50310  Biso   1.000  Er
  Br1      1.0000 0.63182  0.80237  0.94355  Biso   1.000  Br
  Br2      1.0000 0.36818  0.19763  0.05645  Biso   1.000  Br
  Cu1      1.0000 0.86112  0.70254  0.05289  Biso   1.000  Cu
  Cu2      1.0000 0.13888  0.29746  0.94711  Biso   1.000  Cu
  O1       1.0000 0.80750  0.52450  0.97290  Biso   1.000  O
  O2       1.0000 0.19250  0.47550  0.02710  Biso   1.000  O
  O3       1.0000 0.85610  0.41050  0.83910  Biso   1.000  O
  O4       1.0000 0.14390  0.58950  0.16090  Biso   1.000  O
  O5       1.0000 0.95050  0.86380  0.14745  Biso   1.000  O
  O6       1.0000 0.04950  0.13620  0.85255  Biso   1.000  O
  O7       1.0000 0.92560  0.96940  0.29159  Biso   1.000  O
  O8       1.0000 0.07440  0.03060  0.70841  Biso   1.000  O
  O9       1.0000 0.51540  0.83330  0.49529  Biso   1.000  O
  O10      1.0000 0.48460  0.16670  0.50471  Biso   1.000  O
  O11      1.0000 0.70240  0.01340  0.49841  Biso   1.000  O
  O12      1.0000 0.29760  0.98660  0.50159  Biso   1.000  O
  O13      1.0000 0.01960  0.59610  0.40579  Biso   1.000  O
  O14      1.0000 0.98040  0.40390  0.59421  Biso   1.000  O
  O15      1.0000 0.84360  0.41150  0.40878  Biso   1.000  O
  O16      1.0000 0.15640  0.58850  0.59122  Biso   1.000  O
  N1       1.0000 0.01420  0.73790  0.96269  Biso   1.000  N
  N2       1.0000 0.98580  0.26210  0.03731  Biso   1.000  N
  N3       1.0000 0.18920  0.75260  0.81330  Biso   1.000  N
  N4       1.0000 0.81080  0.24740  0.18670  Biso   1.000  N
  N5       1.0000 0.74410  0.65130  0.15850  Biso   1.000  N
  N6       1.0000 0.25590  0.34870  0.84150  Biso   1.000  N
  N7       1.0000 0.59470  0.62460  0.31850  Biso   1.000  N
  N8       1.0000 0.40530  0.37540  0.68150  Biso   1.000  N
  C1       1.0000 0.87660  0.51310  0.89890  Biso   1.000  C
  C2       1.0000 0.12340  0.48690  0.10110  Biso   1.000  C
  C3       1.0000 0.99420  0.63450  0.88910  Biso   1.000  C
  C4       1.0000 0.00580  0.36550  0.11090  Biso   1.000  C
  C5       1.0000 0.08000  0.64380  0.81440  Biso   1.000  C
  C6       1.0000 0.92000  0.35620  0.18560  Biso   1.000  C
  H1       1.0000 0.06170  0.57250  0.76310  Biso   1.000  H
  H2       1.0000 0.93830  0.42750  0.23690  Biso   1.000  H
  C7       1.0000 0.20980  0.85210  0.88760  Biso   1.000  C
  C8       1.0000 0.79020  0.14790  0.11240  Biso   1.000  C
  H3       1.0000 0.28670  0.92810  0.88990  Biso   1.000  H
  H4       1.0000 0.71330  0.07190  0.11010  Biso   1.000  H
  C9       1.0000 0.12100  0.84690  0.96180  Biso   1.000  C
  C10      1.0000 0.87900  0.15310  0.03820  Biso   1.000  C
  H5       1.0000 0.13610  0.91990  0.01130  Biso   1.000  H
  H6       1.0000 0.86390  0.08010  0.98870  Biso   1.000  H
  C11      1.0000 0.89320  0.87110  0.22680  Biso   1.000  C
  C12      1.0000 0.10680  0.12890  0.77320  Biso   1.000  C
  C13      1.0000 0.77570  0.74920  0.23640  Biso   1.000  C
  C14      1.0000 0.22430  0.25080  0.76360  Biso   1.000  C
  C15      1.0000 0.69990  0.73500  0.31570  Biso   1.000  C
  C16      1.0000 0.30010  0.26500  0.68430  Biso   1.000  C
  H7       1.0000 0.72260  0.80430  0.36870  Biso   1.000  H
  H8       1.0000 0.27740  0.19570  0.63130  Biso   1.000  H
  C17      1.0000 0.56690  0.52840  0.24120  Biso   1.000  C
  C18      1.0000 0.43310  0.47160  0.75880  Biso   1.000  C
  H9       1.0000 0.49620  0.44950  0.24170  Biso   1.000  H
  H10      1.0000 0.50380  0.55050  0.75830  Biso   1.000  H
  C19      1.0000 0.63910  0.54080  0.16010  Biso   1.000  C
  C20      1.0000 0.36090  0.45920  0.83990  Biso   1.000  C
  H11      1.0000 0.61440  0.47200  0.10670  Biso   1.000  H
  H12      1.0000 0.38560  0.52800  0.89330  Biso   1.000  H
  C21      1.0000 0.56380  0.95580  0.49830  Biso   1.000  C
  C22      1.0000 0.43620  0.04420  0.50170  Biso   1.000  C
  C23      1.0000 0.96010  0.50240  0.44610  Biso   1.000  C
  C24      1.0000 0.03990  0.49760  0.55390  Biso   1.000  C
  O17      1.0000 0.35630  0.81510  0.66122  Biso   1.000  O
  O18      1.0000 0.64370  0.18490  0.33878  Biso   1.000  O
  H13      1.0000 0.41290  0.88820  0.68450  Biso   1.000  H
  H14      1.0000 0.58710  0.11180  0.31550  Biso   1.000  H
  H15      1.0000 0.31440  0.78770  0.70570  Biso   1.000  H
  H16      1.0000 0.68560  0.21230  0.29430  Biso   1.000  H
  O19      1.0000 0.02710  0.83920  0.53680  Biso   1.000  O
  O20      1.0000 0.97290  0.16080  0.46320  Biso   1.000  O
  H17      1.0000 0.04740  0.90820  0.57680  Biso   1.000  H
  H18      1.0000 0.95260  0.09180  0.42320  Biso   1.000  H
  H19      1.0000 0.94200  0.79650  0.54430  Biso   1.000  H
  H20      1.0000 0.05800  0.20350  0.45570  Biso   1.000  H
  O21      1.0000 0.21660  0.77600  0.33238  Biso   1.000  O
  O22      1.0000 0.78340  0.22400  0.66762  Biso   1.000  O
  H21      1.0000 0.18660  0.71380  0.28650  Biso   1.000  H
  H22      1.0000 0.81340  0.28620  0.71350  Biso   1.000  H
  H23      1.0000 0.27010  0.83660  0.31180  Biso   1.000  H
  H24      1.0000 0.72990  0.16340  0.68820  Biso   1.000  H
  O23      1.0000 0.36730  0.57750  0.44690  Biso   1.000  O
  O24      1.0000 0.63270  0.42250  0.55310  Biso   1.000  O
  H25      1.0000 0.33470  0.49640  0.43980  Biso   1.000  H
  H26      1.0000 0.66530  0.50360  0.56020  Biso   1.000  H
  H27      1.0000 0.44100  0.59070  0.41680  Biso   1.000  H
  H28      1.0000 0.55900  0.40930  0.58320  Biso   1.000  H
  O25      1.0000 0.59450  0.02920  0.73380  Biso   1.000  O
  O26      1.0000 0.40550  0.97080  0.26620  Biso   1.000  O
  H29      1.0000 0.57490  0.06530  0.78510  Biso   1.000  H
  H30      1.0000 0.42510  0.93470  0.21490  Biso   1.000  H
  H31      1.0000 0.66030  0.98290  0.74940  Biso   1.000  H
  H32      1.0000 0.33970  0.01710  0.25060  Biso   1.000  H
  O27      1.0000 0.81420  0.85440  0.75690  Biso   1.000  O
  O28      1.0000 0.18580  0.14560  0.24310  Biso   1.000  O
  H33      1.0000 0.89290  0.91050  0.75520  Biso   1.000  H
  H34      1.0000 0.10710  0.08950  0.24480  Biso   1.000  H
  H35      1.0000 0.81100  0.85070  0.81520  Biso   1.000  H
  H36      1.0000 0.18900  0.14930  0.18480  Biso   1.000  H
  O29      1.0000 0.74800  0.69410  0.57620  Biso   1.000  O
  O30      1.0000 0.25200  0.30590  0.42380  Biso   1.000  O
  H37      1.0000 0.69190  0.73450  0.54210  Biso   1.000  H
  H38      1.0000 0.30810  0.26550  0.45790  Biso   1.000  H
  H39      1.0000 0.76220  0.73130  0.63360  Biso   1.000  H
  H40      1.0000 0.23780  0.26870  0.36640  Biso   1.000  H
  O31      1.0000 0.58900  0.21990  0.88120  Biso   1.000  O
  O32      1.0000 0.41100  0.78010  0.11880  Biso   1.000  O
  H41      1.0000 0.65080  0.29170  0.88770  Biso   1.000  H
  H42      1.0000 0.34920  0.70830  0.11230  Biso   1.000  H
  H43      1.0000 0.54310  0.22290  0.92840  Biso   1.000  H
  H44      1.0000 0.45690  0.77710  0.07160  Biso   1.000  H
