data_image0
_cell_length_a       8.674
_cell_length_b       7.7115
_cell_length_c       17.143
_cell_angle_alpha    90
_cell_angle_beta     94.47
_cell_angle_gamma    90

_symmetry_space_group_name_H-M    "P 1"
_symmetry_int_tables_number       1

loop_
  _symmetry_equiv_pos_as_xyz
  'x, y, z'

loop_
  _atom_site_label
  _atom_site_occupancy
  _atom_site_fract_x
  _atom_site_fract_y
  _atom_site_fract_z
  _atom_site_thermal_displace_type
  _atom_site_B_iso_or_equiv
  _atom_site_type_symbol
  Cu1      1.0000 0.00000  0.50000  0.00000  Biso   1.000  Cu
  Cu2      1.0000 0.50000  0.00000  0.50000  Biso   1.000  Cu
  S1       1.0000 0.46504  0.24580  0.03114  Biso   1.000  S
  S2       1.0000 0.03496  0.74580  0.46886  Biso   1.000  S
  S3       1.0000 0.53496  0.75420  0.96886  Biso   1.000  S
  S4       1.0000 0.96504  0.25420  0.53114  Biso   1.000  S
  S5       1.0000 0.46553  0.22380  0.20602  Biso   1.000  S
  S6       1.0000 0.03447  0.72380  0.29398  Biso   1.000  S
  S7       1.0000 0.53447  0.77620  0.79398  Biso   1.000  S
  S8       1.0000 0.96553  0.27620  0.70602  Biso   1.000  S
  S9       1.0000 0.28075  0.36820  0.88081  Biso   1.000  S
  S10      1.0000 0.21925  0.86820  0.61919  Biso   1.000  S
  S11      1.0000 0.71925  0.63180  0.11919  Biso   1.000  S
  S12      1.0000 0.78075  0.13180  0.38081  Biso   1.000  S
  O1       1.0000 0.46430  0.61300  0.23150  Biso   1.000  O
  O2       1.0000 0.03570  0.11300  0.26850  Biso   1.000  O
  O3       1.0000 0.53570  0.38700  0.76850  Biso   1.000  O
  O4       1.0000 0.96430  0.88700  0.73150  Biso   1.000  O
  O5       1.0000 0.92660  0.27770  0.95160  Biso   1.000  O
  O6       1.0000 0.57340  0.77770  0.54840  Biso   1.000  O
  O7       1.0000 0.07340  0.72230  0.04840  Biso   1.000  O
  O8       1.0000 0.42660  0.22230  0.45160  Biso   1.000  O
  O9       1.0000 0.86000  0.26850  0.06920  Biso   1.000  O
  O10      1.0000 0.64000  0.76850  0.43080  Biso   1.000  O
  O11      1.0000 0.14000  0.73150  0.93080  Biso   1.000  O
  O12      1.0000 0.36000  0.23150  0.56920  Biso   1.000  O
  O13      1.0000 0.80190  0.05550  0.98920  Biso   1.000  O
  O14      1.0000 0.69810  0.55550  0.51080  Biso   1.000  O
  O15      1.0000 0.19810  0.94450  0.01080  Biso   1.000  O
  O16      1.0000 0.30190  0.44450  0.48920  Biso   1.000  O
  N1       1.0000 0.20450  0.39370  0.02760  Biso   1.000  N
  N2       1.0000 0.29550  0.89370  0.47240  Biso   1.000  N
  N3       1.0000 0.79550  0.60630  0.97240  Biso   1.000  N
  N4       1.0000 0.70450  0.10630  0.52760  Biso   1.000  N
  N5       1.0000 0.24670  0.37010  0.10630  Biso   1.000  N
  N6       1.0000 0.25330  0.87010  0.39370  Biso   1.000  N
  N7       1.0000 0.75330  0.62990  0.89370  Biso   1.000  N
  N8       1.0000 0.74670  0.12990  0.60630  Biso   1.000  N
  N9       1.0000 0.85970  0.19540  0.00550  Biso   1.000  N
  N10      1.0000 0.64030  0.69540  0.49450  Biso   1.000  N
  N11      1.0000 0.14030  0.80460  0.99450  Biso   1.000  N
  N12      1.0000 0.35970  0.30460  0.50550  Biso   1.000  N
  C1       1.0000 0.37930  0.29330  0.11620  Biso   1.000  C
  C2       1.0000 0.12070  0.79330  0.38380  Biso   1.000  C
  C3       1.0000 0.62070  0.70670  0.88380  Biso   1.000  C
  C4       1.0000 0.87930  0.20670  0.61620  Biso   1.000  C
  C5       1.0000 0.30490  0.33530  0.98060  Biso   1.000  C
  C6       1.0000 0.19510  0.83530  0.51940  Biso   1.000  C
  C7       1.0000 0.69510  0.66470  0.01940  Biso   1.000  C
  C8       1.0000 0.80490  0.16470  0.48060  Biso   1.000  C
  C9       1.0000 0.36620  0.35530  0.27440  Biso   1.000  C
  C10      1.0000 0.13380  0.85530  0.22560  Biso   1.000  C
  C11      1.0000 0.63380  0.64470  0.72560  Biso   1.000  C
  C12      1.0000 0.86620  0.14470  0.77440  Biso   1.000  C
  C13      1.0000 0.44980  0.51600  0.29840  Biso   1.000  C
  C14      1.0000 0.05020  0.01600  0.20160  Biso   1.000  C
  C15      1.0000 0.55020  0.48400  0.70160  Biso   1.000  C
  C16      1.0000 0.94980  0.98400  0.79840  Biso   1.000  C
  C17      1.0000 0.57550  0.75360  0.24020  Biso   1.000  C
  C18      1.0000 0.92450  0.25360  0.25980  Biso   1.000  C
  C19      1.0000 0.42450  0.24640  0.75980  Biso   1.000  C
  C20      1.0000 0.07550  0.74640  0.74020  Biso   1.000  C
  C21      1.0000 0.39570  0.19720  0.84220  Biso   1.000  C
  C22      1.0000 0.10430  0.69720  0.65780  Biso   1.000  C
  C23      1.0000 0.60430  0.80280  0.15780  Biso   1.000  C
  C24      1.0000 0.89570  0.30280  0.34220  Biso   1.000  C
