data_image0
_cell_length_a       10.901
_cell_length_b       15.23
_cell_length_c       15.633
_cell_angle_alpha    97.984
_cell_angle_beta     99.498
_cell_angle_gamma    105.188

_symmetry_space_group_name_H-M    "P 1"
_symmetry_int_tables_number       1

loop_
  _symmetry_equiv_pos_as_xyz
  'x, y, z'

loop_
  _atom_site_label
  _atom_site_occupancy
  _atom_site_fract_x
  _atom_site_fract_y
  _atom_site_fract_z
  _atom_site_thermal_displace_type
  _atom_site_B_iso_or_equiv
  _atom_site_type_symbol
  Cu1      1.0000 0.81583  0.25102  0.28006  Biso   1.000  Cu
  Cu2      1.0000 0.18417  0.74898  0.71994  Biso   1.000  Cu
  S1       1.0000 0.75590  0.42610  0.66306  Biso   1.000  S
  S2       1.0000 0.24410  0.57390  0.33694  Biso   1.000  S
  S3       1.0000 0.57570  0.12890  0.38983  Biso   1.000  S
  S4       1.0000 0.42430  0.87110  0.61017  Biso   1.000  S
  S5       1.0000 0.32260  0.26256  0.83284  Biso   1.000  S
  S6       1.0000 0.67740  0.73744  0.16716  Biso   1.000  S
  S7       1.0000 0.18060  0.21060  0.14081  Biso   1.000  S
  S8       1.0000 0.81940  0.78940  0.85919  Biso   1.000  S
  C1       1.0000 0.11710  0.43270  0.04070  Biso   1.000  C
  C2       1.0000 0.88290  0.56730  0.95930  Biso   1.000  C
  H1       1.0000 0.06260  0.40280  0.07440  Biso   1.000  H
  H2       1.0000 0.93740  0.59720  0.92560  Biso   1.000  H
  C3       1.0000 0.31670  0.53500  0.03590  Biso   1.000  C
  C4       1.0000 0.68330  0.46500  0.96410  Biso   1.000  C
  H3       1.0000 0.39750  0.57480  0.06550  Biso   1.000  H
  H4       1.0000 0.60250  0.42520  0.93450  Biso   1.000  H
  C5       1.0000 0.28340  0.52170  0.94880  Biso   1.000  C
  C6       1.0000 0.71660  0.47830  0.05120  Biso   1.000  C
  H5       1.0000 0.34160  0.55140  0.91720  Biso   1.000  H
  H6       1.0000 0.65840  0.44860  0.08280  Biso   1.000  H
  C7       1.0000 0.16190  0.46360  0.90410  Biso   1.000  C
  C8       1.0000 0.83810  0.53640  0.09590  Biso   1.000  C
  H7       1.0000 0.13740  0.45650  0.84300  Biso   1.000  H
  H8       1.0000 0.86260  0.54350  0.15700  Biso   1.000  H
  C9       1.0000 0.07700  0.41620  0.95090  Biso   1.000  C
  C10      1.0000 0.92300  0.58380  0.04910  Biso   1.000  C
  C11      1.0000 0.94690  0.35150  0.90920  Biso   1.000  C
  C12      1.0000 0.05310  0.64850  0.09080  Biso   1.000  C
  C13      1.0000 0.89770  0.33130  0.81840  Biso   1.000  C
  C14      1.0000 0.10230  0.66870  0.18160  Biso   1.000  C
  H9       1.0000 0.94770  0.35780  0.78060  Biso   1.000  H
  H10      1.0000 0.05230  0.64220  0.21940  Biso   1.000  H
  C15      1.0000 0.77420  0.27160  0.78480  Biso   1.000  C
  C16      1.0000 0.22580  0.72840  0.21520  Biso   1.000  C
  C17      1.0000 0.70190  0.23390  0.84310  Biso   1.000  C
  C18      1.0000 0.29810  0.76610  0.15690  Biso   1.000  C
  H11      1.0000 0.61720  0.19540  0.82270  Biso   1.000  H
  H12      1.0000 0.38280  0.80460  0.17730  Biso   1.000  H
  C19      1.0000 0.75930  0.25520  0.93270  Biso   1.000  C
  C20      1.0000 0.24070  0.74480  0.06730  Biso   1.000  C
  C21      1.0000 0.68860  0.21550  0.00020  Biso   1.000  C
  C22      1.0000 0.31140  0.78450  0.99980  Biso   1.000  C
  C23      1.0000 0.56990  0.15110  0.97990  Biso   1.000  C
  C24      1.0000 0.43010  0.84890  0.02010  Biso   1.000  C
  H13      1.0000 0.52740  0.12780  0.92120  Biso   1.000  H
  H14      1.0000 0.47260  0.87220  0.07880  Biso   1.000  H
  C25      1.0000 0.51320  0.12050  0.04730  Biso   1.000  C
  C26      1.0000 0.48680  0.87950  0.95270  Biso   1.000  C
  H15      1.0000 0.43060  0.07840  0.03460  Biso   1.000  H
  H16      1.0000 0.56940  0.92160  0.96540  Biso   1.000  H
  C27      1.0000 0.57910  0.15250  0.13240  Biso   1.000  C
  C28      1.0000 0.42090  0.84750  0.86760  Biso   1.000  C
  H17      1.0000 0.53800  0.13380  0.17720  Biso   1.000  H
  H18      1.0000 0.46200  0.86620  0.82280  Biso   1.000  H
  C29      1.0000 0.75310  0.24060  0.08840  Biso   1.000  C
  C30      1.0000 0.24690  0.75940  0.91160  Biso   1.000  C
  H19      1.0000 0.83700  0.28100  0.10170  Biso   1.000  H
  H20      1.0000 0.16300  0.71900  0.89830  Biso   1.000  H
  C31      1.0000 0.71960  0.24210  0.68680  Biso   1.000  C
  C32      1.0000 0.28040  0.75790  0.31320  Biso   1.000  C
  C33      1.0000 0.71310  0.30440  0.62760  Biso   1.000  C
  C34      1.0000 0.28690  0.69560  0.37240  Biso   1.000  C
  C35      1.0000 0.66940  0.26890  0.53700  Biso   1.000  C
  C36      1.0000 0.33060  0.73110  0.46300  Biso   1.000  C
  H21      1.0000 0.66470  0.30930  0.49790  Biso   1.000  H
  H22      1.0000 0.33530  0.69070  0.50210  Biso   1.000  H
  C37      1.0000 0.63320  0.17470  0.50500  Biso   1.000  C
  C38      1.0000 0.36680  0.82530  0.49500  Biso   1.000  C
  C39      1.0000 0.63550  0.11470  0.56260  Biso   1.000  C
  C40      1.0000 0.36450  0.88530  0.43740  Biso   1.000  C
  H23      1.0000 0.60700  0.05120  0.54100  Biso   1.000  H
  H24      1.0000 0.39300  0.94880  0.45900  Biso   1.000  H
  C41      1.0000 0.67980  0.14760  0.65250  Biso   1.000  C
  C42      1.0000 0.32020  0.85240  0.34750  Biso   1.000  C
  H25      1.0000 0.68310  0.10590  0.69040  Biso   1.000  H
  H26      1.0000 0.31690  0.89410  0.30960  Biso   1.000  H
  C43      1.0000 0.93050  0.22070  0.45460  Biso   1.000  C
  C44      1.0000 0.06950  0.77930  0.54540  Biso   1.000  C
  H27      1.0000 0.88300  0.15940  0.43070  Biso   1.000  H
  H28      1.0000 0.11700  0.84060  0.56930  Biso   1.000  H
  C45      1.0000 0.00240  0.37200  0.43640  Biso   1.000  C
  C46      1.0000 0.99760  0.62800  0.56360  Biso   1.000  C
  H29      1.0000 0.00310  0.41560  0.40020  Biso   1.000  H
  H30      1.0000 0.99690  0.58440  0.59980  Biso   1.000  H
  C47      1.0000 0.07410  0.40030  0.51920  Biso   1.000  C
  C48      1.0000 0.92590  0.59970  0.48080  Biso   1.000  C
  H31      1.0000 0.12200  0.46200  0.54040  Biso   1.000  H
  H32      1.0000 0.87800  0.53800  0.45960  Biso   1.000  H
  C49      1.0000 0.07410  0.33390  0.57200  Biso   1.000  C
  C50      1.0000 0.92590  0.66610  0.42800  Biso   1.000  C
  H33      1.0000 0.12530  0.35080  0.62880  Biso   1.000  H
  H34      1.0000 0.87470  0.64920  0.37120  Biso   1.000  H
  C51      1.0000 0.99790  0.24240  0.54050  Biso   1.000  C
  C52      1.0000 0.00210  0.75760  0.45950  Biso   1.000  C
  C53      1.0000 0.98670  0.17170  0.59860  Biso   1.000  C
  C54      1.0000 0.01330  0.82830  0.40140  Biso   1.000  C
  C55      1.0000 0.03610  0.19630  0.68760  Biso   1.000  C
  C56      1.0000 0.96390  0.80370  0.31240  Biso   1.000  C
  H35      1.0000 0.07750  0.25840  0.71260  Biso   1.000  H
  H36      1.0000 0.92250  0.74160  0.28740  Biso   1.000  H
  C57      1.0000 0.02570  0.13030  0.74190  Biso   1.000  C
  C58      1.0000 0.97430  0.86970  0.25810  Biso   1.000  C
  C59      1.0000 0.95880  0.03860  0.69790  Biso   1.000  C
  C60      1.0000 0.04120  0.96140  0.30210  Biso   1.000  C
  H37      1.0000 0.94890  0.99090  0.72970  Biso   1.000  H
  H38      1.0000 0.05110  0.00910  0.27030  Biso   1.000  H
  C61      1.0000 0.90760  0.01900  0.60810  Biso   1.000  C
  C62      1.0000 0.09240  0.98100  0.39190  Biso   1.000  C
  C63      1.0000 0.82700  0.92310  0.56080  Biso   1.000  C
  C64      1.0000 0.17300  0.07690  0.43920  Biso   1.000  C
  C65      1.0000 0.79570  0.85000  0.60350  Biso   1.000  C
  C66      1.0000 0.20430  0.15000  0.39650  Biso   1.000  C
  H39      1.0000 0.82760  0.85910  0.66400  Biso   1.000  H
  H40      1.0000 0.17240  0.14090  0.33600  Biso   1.000  H
  C67      1.0000 0.72130  0.76680  0.56080  Biso   1.000  C
  C68      1.0000 0.27870  0.23320  0.43920  Biso   1.000  C
  H41      1.0000 0.70520  0.71850  0.59170  Biso   1.000  H
  H42      1.0000 0.29480  0.28150  0.40830  Biso   1.000  H
  C69      1.0000 0.66940  0.75070  0.47530  Biso   1.000  C
  C70      1.0000 0.33060  0.24930  0.52470  Biso   1.000  C
  H43      1.0000 0.61460  0.69240  0.44700  Biso   1.000  H
  H44      1.0000 0.38540  0.30760  0.55300  Biso   1.000  H
  C71      1.0000 0.77460  0.90750  0.47090  Biso   1.000  C
  C72      1.0000 0.22540  0.09250  0.52910  Biso   1.000  C
  H45      1.0000 0.79190  0.95540  0.43960  Biso   1.000  H
  H46      1.0000 0.20810  0.04460  0.56040  Biso   1.000  H
  C73      1.0000 0.06960  0.15310  0.83780  Biso   1.000  C
  C74      1.0000 0.93040  0.84690  0.16220  Biso   1.000  C
  C75      1.0000 0.19530  0.21180  0.88490  Biso   1.000  C
  C76      1.0000 0.80470  0.78820  0.11510  Biso   1.000  C
  C77      1.0000 0.22580  0.22760  0.97650  Biso   1.000  C
  C78      1.0000 0.77420  0.77240  0.02350  Biso   1.000  C
  H47      1.0000 0.30770  0.26460  0.00710  Biso   1.000  H
  H48      1.0000 0.69230  0.73540  0.99290  Biso   1.000  H
  C79      1.0000 0.13240  0.18750  0.02290  Biso   1.000  C
  C80      1.0000 0.86760  0.81250  0.97710  Biso   1.000  C
  C81      1.0000 0.01470  0.13150  0.98000  Biso   1.000  C
  C82      1.0000 0.98530  0.86850  0.02000  Biso   1.000  C
  H49      1.0000 0.95470  0.10450  0.01160  Biso   1.000  H
  H50      1.0000 0.04530  0.89550  0.98840  Biso   1.000  H
  C83      1.0000 0.98320  0.11420  0.88890  Biso   1.000  C
  C84      1.0000 0.01680  0.88580  0.11110  Biso   1.000  C
  H51      1.0000 0.90140  0.07520  0.86030  Biso   1.000  H
  H52      1.0000 0.09860  0.92480  0.13970  Biso   1.000  H
  N1       1.0000 0.23430  0.49140  0.08120  Biso   1.000  N
  N2       1.0000 0.76570  0.50860  0.91880  Biso   1.000  N
  H53      1.0000 0.25680  0.50100  0.13790  Biso   1.000  H
  H54      1.0000 0.74320  0.49900  0.86210  Biso   1.000  H
  N3       1.0000 0.87680  0.31420  0.96600  Biso   1.000  N
  N4       1.0000 0.12320  0.68580  0.03400  Biso   1.000  N
  N5       1.0000 0.70310  0.21100  0.15530  Biso   1.000  N
  N6       1.0000 0.29690  0.78900  0.84470  Biso   1.000  N
  N7       1.0000 0.93050  0.28490  0.40350  Biso   1.000  N
  N8       1.0000 0.06950  0.71510  0.59650  Biso   1.000  N
  N9       1.0000 0.92300  0.08350  0.55830  Biso   1.000  N
  N10      1.0000 0.07700  0.91650  0.44170  Biso   1.000  N
  N11      1.0000 0.69740  0.82130  0.42880  Biso   1.000  N
  N12      1.0000 0.30260  0.17870  0.57120  Biso   1.000  N
  H55      1.0000 0.66610  0.81100  0.37290  Biso   1.000  H
  H56      1.0000 0.33390  0.18900  0.62710  Biso   1.000  H
  O1       1.0000 0.88460  0.14320  0.25870  Biso   1.000  O
  O2       1.0000 0.11540  0.85680  0.74130  Biso   1.000  O
  H57      1.0000 0.93440  0.13060  0.22550  Biso   1.000  H
  H58      1.0000 0.06560  0.86940  0.77450  Biso   1.000  H
  H59      1.0000 0.86680  0.09970  0.28740  Biso   1.000  H
  H60      1.0000 0.13320  0.90030  0.71260  Biso   1.000  H
  O3       1.0000 0.89720  0.46090  0.68500  Biso   1.000  O
  O4       1.0000 0.10280  0.53910  0.31500  Biso   1.000  O
  O5       1.0000 0.99260  0.35200  0.23280  Biso   1.000  O
  O6       1.0000 0.00740  0.64800  0.76720  Biso   1.000  O
  H61      1.0000 0.04080  0.34080  0.19770  Biso   1.000  H
  H62      1.0000 0.95920  0.65920  0.80230  Biso   1.000  H
  H63      1.0000 0.02170  0.40880  0.25700  Biso   1.000  H
  H64      1.0000 0.97830  0.59120  0.74300  Biso   1.000  H
  O7       1.0000 0.69870  0.46060  0.59080  Biso   1.000  O
  O8       1.0000 0.30130  0.53940  0.40920  Biso   1.000  O
  O9       1.0000 0.69800  0.44000  0.73960  Biso   1.000  O
  O10      1.0000 0.30200  0.56000  0.26040  Biso   1.000  O
  O11      1.0000 0.74390  0.36220  0.29470  Biso   1.000  O
  O12      1.0000 0.25610  0.63780  0.70530  Biso   1.000  O
  H65      1.0000 0.70860  0.38600  0.25490  Biso   1.000  H
  H66      1.0000 0.29140  0.61400  0.74510  Biso   1.000  H
  H67      1.0000 0.77310  0.40390  0.34140  Biso   1.000  H
  H68      1.0000 0.22690  0.59610  0.65860  Biso   1.000  H
  O13      1.0000 0.63760  0.18640  0.34590  Biso   1.000  O
  O14      1.0000 0.36240  0.81360  0.65410  Biso   1.000  O
  O15      1.0000 0.62510  0.04230  0.37490  Biso   1.000  O
  O16      1.0000 0.37490  0.95770  0.62510  Biso   1.000  O
  O17      1.0000 0.44130  0.09300  0.37580  Biso   1.000  O
  O18      1.0000 0.55870  0.90700  0.62420  Biso   1.000  O
  O19      1.0000 0.32970  0.18770  0.76910  Biso   1.000  O
  O20      1.0000 0.67030  0.81230  0.23090  Biso   1.000  O
  O21      1.0000 0.28280  0.33440  0.79150  Biso   1.000  O
  O22      1.0000 0.71720  0.66560  0.20850  Biso   1.000  O
  O23      1.0000 0.43780  0.29890  0.90210  Biso   1.000  O
  O24      1.0000 0.56220  0.70110  0.09790  Biso   1.000  O
  O25      1.0000 0.30400  0.19480  0.16120  Biso   1.000  O
  O26      1.0000 0.69600  0.80520  0.83880  Biso   1.000  O
  O27      1.0000 0.19410  0.30480  0.16990  Biso   1.000  O
  O28      1.0000 0.80590  0.69520  0.83010  Biso   1.000  O
  O29      1.0000 0.08520  0.14750  0.17110  Biso   1.000  O
  O30      1.0000 0.91480  0.85250  0.82890  Biso   1.000  O
  O31      1.0000 0.32490  0.01710  0.19640  Biso   1.000  O
  O32      1.0000 0.67510  0.98290  0.80360  Biso   1.000  O
  O33      1.0000 0.68380  0.99090  0.21770  Biso   1.000  O
  O34      1.0000 0.31620  0.00910  0.78230  Biso   1.000  O
  O35      1.0000 0.44900  0.46330  0.72720  Biso   1.000  O
  O36      1.0000 0.55100  0.53670  0.27280  Biso   1.000  O
  O37      1.0000 0.65340  0.63000  0.65290  Biso   1.000  O
  O38      1.0000 0.34660  0.37000  0.34710  Biso   1.000  O
  O39      1.0000 0.53630  0.36010  0.17750  Biso   1.000  O
  O40      1.0000 0.46370  0.63990  0.82250  Biso   1.000  O
  O41      1.0000 0.63600  0.45020  0.40920  Biso   1.000  O
  O42      1.0000 0.36400  0.54980  0.59080  Biso   1.000  O
