data_image0
_cell_length_a       13.587
_cell_length_b       15.135
_cell_length_c       15.167
_cell_angle_alpha    114.432
_cell_angle_beta     106.905
_cell_angle_gamma    103.336

_symmetry_space_group_name_H-M    "P 1"
_symmetry_int_tables_number       1

loop_
  _symmetry_equiv_pos_as_xyz
  'x, y, z'

loop_
  _atom_site_label
  _atom_site_occupancy
  _atom_site_fract_x
  _atom_site_fract_y
  _atom_site_fract_z
  _atom_site_thermal_displace_type
  _atom_site_B_iso_or_equiv
  _atom_site_type_symbol
  Cu1      1.0000 0.95045  0.74189  0.99480  Biso   1.000  Cu
  Cu2      1.0000 0.04955  0.25811  0.00520  Biso   1.000  Cu
  S1       1.0000 0.30800  0.38370  0.68670  Biso   1.000  S
  S2       1.0000 0.69200  0.61630  0.31330  Biso   1.000  S
  S3       1.0000 0.11221  0.56969  0.93163  Biso   1.000  S
  S4       1.0000 0.88779  0.43031  0.06837  Biso   1.000  S
  S5       1.0000 0.73370  0.12970  0.35256  Biso   1.000  S
  S6       1.0000 0.26630  0.87030  0.64744  Biso   1.000  S
  S7       1.0000 0.68014  0.96839  0.93711  Biso   1.000  S
  S8       1.0000 0.31986  0.03161  0.06289  Biso   1.000  S
  C1       1.0000 0.74290  0.67610  0.80660  Biso   1.000  C
  C2       1.0000 0.25710  0.32390  0.19340  Biso   1.000  C
  H1       1.0000 0.71060  0.68330  0.85410  Biso   1.000  H
  H2       1.0000 0.28940  0.31670  0.14590  Biso   1.000  H
  C3       1.0000 0.89690  0.67880  0.77060  Biso   1.000  C
  C4       1.0000 0.10310  0.32120  0.22940  Biso   1.000  C
  H3       1.0000 0.97140  0.68660  0.79260  Biso   1.000  H
  H4       1.0000 0.02860  0.31340  0.20740  Biso   1.000  H
  C5       1.0000 0.83680  0.65520  0.66630  Biso   1.000  C
  C6       1.0000 0.16320  0.34480  0.33370  Biso   1.000  C
  H5       1.0000 0.87070  0.64800  0.62000  Biso   1.000  H
  H6       1.0000 0.12930  0.35200  0.38000  Biso   1.000  H
  C7       1.0000 0.72550  0.64280  0.63300  Biso   1.000  C
  C8       1.0000 0.27450  0.35720  0.36700  Biso   1.000  C
  H7       1.0000 0.68470  0.62960  0.56460  Biso   1.000  H
  H8       1.0000 0.31530  0.37040  0.43540  Biso   1.000  H
  C9       1.0000 0.67600  0.65010  0.70080  Biso   1.000  C
  C10      1.0000 0.32400  0.34990  0.29920  Biso   1.000  C
  C11      1.0000 0.55520  0.63360  0.66660  Biso   1.000  C
  C12      1.0000 0.44480  0.36640  0.33340  Biso   1.000  C
  C13      1.0000 0.49550  0.61490  0.72140  Biso   1.000  C
  C14      1.0000 0.50450  0.38510  0.27860  Biso   1.000  C
  H9       1.0000 0.53010  0.61330  0.78310  Biso   1.000  H
  H10      1.0000 0.46990  0.38670  0.21690  Biso   1.000  H
  C15      1.0000 0.38290  0.59850  0.68270  Biso   1.000  C
  C16      1.0000 0.61710  0.40150  0.31730  Biso   1.000  C
  C17      1.0000 0.33640  0.60320  0.59250  Biso   1.000  C
  C18      1.0000 0.66360  0.39680  0.40750  Biso   1.000  C
  H11      1.0000 0.26220  0.59600  0.56710  Biso   1.000  H
  H12      1.0000 0.73780  0.40400  0.43290  Biso   1.000  H
  C19      1.0000 0.39950  0.61850  0.53890  Biso   1.000  C
  C20      1.0000 0.60050  0.38150  0.46110  Biso   1.000  C
  C21      1.0000 0.35170  0.61630  0.43720  Biso   1.000  C
  C22      1.0000 0.64830  0.38370  0.56280  Biso   1.000  C
  C23      1.0000 0.24340  0.61210  0.39430  Biso   1.000  C
  C24      1.0000 0.75660  0.38790  0.60570  Biso   1.000  C
  H13      1.0000 0.19980  0.61460  0.43180  Biso   1.000  H
  H14      1.0000 0.80020  0.38540  0.56820  Biso   1.000  H
  C25      1.0000 0.26270  0.60230  0.24250  Biso   1.000  C
  C26      1.0000 0.73730  0.39770  0.75750  Biso   1.000  C
  H15      1.0000 0.23310  0.59660  0.17590  Biso   1.000  H
  H16      1.0000 0.76690  0.40340  0.82410  Biso   1.000  H
  C27      1.0000 0.41080  0.61460  0.37790  Biso   1.000  C
  C28      1.0000 0.58920  0.38540  0.62210  Biso   1.000  C
  H17      1.0000 0.48320  0.61750  0.40460  Biso   1.000  H
  H18      1.0000 0.51680  0.38250  0.59540  Biso   1.000  H
  C29      1.0000 0.31340  0.58460  0.74180  Biso   1.000  C
  C30      1.0000 0.68660  0.41540  0.25820  Biso   1.000  C
  C31      1.0000 0.28030  0.49590  0.75150  Biso   1.000  C
  C32      1.0000 0.71970  0.50410  0.24850  Biso   1.000  C
  C33      1.0000 0.20230  0.60420  0.29590  Biso   1.000  C
  C34      1.0000 0.79770  0.39580  0.70410  Biso   1.000  C
  H19      1.0000 0.12980  0.60010  0.26660  Biso   1.000  H
  H20      1.0000 0.87020  0.39990  0.73340  Biso   1.000  H
  C35      1.0000 0.21610  0.49080  0.80590  Biso   1.000  C
  C36      1.0000 0.78390  0.50920  0.19410  Biso   1.000  C
  H21      1.0000 0.19280  0.43090  0.81080  Biso   1.000  H
  H22      1.0000 0.80720  0.56910  0.18920  Biso   1.000  H
  C37      1.0000 0.18510  0.57380  0.85390  Biso   1.000  C
  C38      1.0000 0.81490  0.42620  0.14610  Biso   1.000  C
  C39      1.0000 0.21690  0.65970  0.84270  Biso   1.000  C
  C40      1.0000 0.78310  0.34030  0.15730  Biso   1.000  C
  H23      1.0000 0.19760  0.71610  0.87420  Biso   1.000  H
  H24      1.0000 0.80240  0.28390  0.12580  Biso   1.000  H
  C41      1.0000 0.27770  0.66240  0.78440  Biso   1.000  C
  C42      1.0000 0.72230  0.33760  0.21560  Biso   1.000  C
  H25      1.0000 0.29490  0.71930  0.77380  Biso   1.000  H
  H26      1.0000 0.70510  0.28070  0.22620  Biso   1.000  H
  C43      1.0000 0.55620  0.88160  0.56570  Biso   1.000  C
  C44      1.0000 0.44380  0.11840  0.43430  Biso   1.000  C
  H27      1.0000 0.48400  0.87980  0.54970  Biso   1.000  H
  H28      1.0000 0.51600  0.12020  0.45030  Biso   1.000  H
  C45      1.0000 0.71740  0.88460  0.68200  Biso   1.000  C
  C46      1.0000 0.28260  0.11540  0.31800  Biso   1.000  C
  H29      1.0000 0.75520  0.88620  0.74490  Biso   1.000  H
  H30      1.0000 0.24480  0.11380  0.25510  Biso   1.000  H
  C47      1.0000 0.76620  0.88270  0.61540  Biso   1.000  C
  C48      1.0000 0.23380  0.11730  0.38460  Biso   1.000  C
  H31      1.0000 0.83810  0.88350  0.63310  Biso   1.000  H
  H32      1.0000 0.16190  0.11650  0.36690  Biso   1.000  H
  C49      1.0000 0.70910  0.87970  0.51970  Biso   1.000  C
  C50      1.0000 0.29090  0.12030  0.48030  Biso   1.000  C
  H33      1.0000 0.74160  0.87630  0.47280  Biso   1.000  H
  H34      1.0000 0.25840  0.12370  0.52720  Biso   1.000  H
  C51      1.0000 0.60330  0.88180  0.49670  Biso   1.000  C
  C52      1.0000 0.39670  0.11820  0.50330  Biso   1.000  C
  C53      1.0000 0.53810  0.88350  0.40020  Biso   1.000  C
  C54      1.0000 0.46190  0.11650  0.59980  Biso   1.000  C
  C55      1.0000 0.58740  0.90710  0.33960  Biso   1.000  C
  C56      1.0000 0.41260  0.09290  0.66040  Biso   1.000  C
  H35      1.0000 0.66280  0.91980  0.35750  Biso   1.000  H
  H36      1.0000 0.33720  0.08020  0.64250  Biso   1.000  H
  C57      1.0000 0.52360  0.91160  0.25190  Biso   1.000  C
  C58      1.0000 0.47640  0.08840  0.74810  Biso   1.000  C
  C59      1.0000 0.40940  0.88580  0.22690  Biso   1.000  C
  C60      1.0000 0.59060  0.11420  0.77310  Biso   1.000  C
  H37      1.0000 0.36250  0.88380  0.16690  Biso   1.000  H
  H38      1.0000 0.63750  0.11620  0.83310  Biso   1.000  H
  C61      1.0000 0.36590  0.86340  0.29060  Biso   1.000  C
  C62      1.0000 0.63410  0.13660  0.70940  Biso   1.000  C
  C63      1.0000 0.24670  0.84240  0.27150  Biso   1.000  C
  C64      1.0000 0.75330  0.15760  0.72850  Biso   1.000  C
  C65      1.0000 0.21030  0.84750  0.34900  Biso   1.000  C
  C66      1.0000 0.78970  0.15250  0.65100  Biso   1.000  C
  H39      1.0000 0.26110  0.86450  0.41590  Biso   1.000  H
  H40      1.0000 0.73890  0.13550  0.58410  Biso   1.000  H
  C67      1.0000 0.09870  0.82760  0.32760  Biso   1.000  C
  C68      1.0000 0.90130  0.17240  0.67240  Biso   1.000  C
  H41      1.0000 0.07360  0.83370  0.37980  Biso   1.000  H
  H42      1.0000 0.92640  0.16630  0.62020  Biso   1.000  H
  C69      1.0000 0.02330  0.79710  0.22140  Biso   1.000  C
  C70      1.0000 0.97670  0.20290  0.77860  Biso   1.000  C
  H43      1.0000 0.94740  0.78030  0.20440  Biso   1.000  H
  H44      1.0000 0.05260  0.21970  0.79560  Biso   1.000  H
  C71      1.0000 0.16730  0.81380  0.17070  Biso   1.000  C
  C72      1.0000 0.83270  0.18620  0.82930  Biso   1.000  C
  H45      1.0000 0.19080  0.80960  0.11780  Biso   1.000  H
  H46      1.0000 0.80920  0.19040  0.88220  Biso   1.000  H
  C73      1.0000 0.56610  0.93130  0.17930  Biso   1.000  C
  C74      1.0000 0.43390  0.06870  0.82070  Biso   1.000  C
  C75      1.0000 0.65720  0.02390  0.21430  Biso   1.000  C
  C76      1.0000 0.34280  0.97610  0.78570  Biso   1.000  C
  C77      1.0000 0.69080  0.03640  0.14010  Biso   1.000  C
  C78      1.0000 0.30920  0.96360  0.85990  Biso   1.000  C
  H47      1.0000 0.75090  0.09770  0.16330  Biso   1.000  H
  H48      1.0000 0.24910  0.90230  0.83670  Biso   1.000  H
  C79      1.0000 0.63510  0.95800  0.03190  Biso   1.000  C
  C80      1.0000 0.36490  0.04200  0.96810  Biso   1.000  C
  C81      1.0000 0.54410  0.86620  0.99600  Biso   1.000  C
  C82      1.0000 0.45590  0.13380  0.00400  Biso   1.000  C
  H49      1.0000 0.50550  0.81380  0.92350  Biso   1.000  H
  H50      1.0000 0.49450  0.18620  0.07650  Biso   1.000  H
  C83      1.0000 0.51300  0.85520  0.07120  Biso   1.000  C
  C84      1.0000 0.48700  0.14480  0.92880  Biso   1.000  C
  H51      1.0000 0.45330  0.79350  0.04770  Biso   1.000  H
  H52      1.0000 0.54670  0.20650  0.95230  Biso   1.000  H
  N1       1.0000 0.85220  0.69070  0.84030  Biso   1.000  N
  N2       1.0000 0.14780  0.30930  0.15970  Biso   1.000  N
  N3       1.0000 0.50940  0.63480  0.57700  Biso   1.000  N
  N4       1.0000 0.49060  0.36520  0.42300  Biso   1.000  N
  N5       1.0000 0.37000  0.60880  0.28490  Biso   1.000  N
  N6       1.0000 0.63000  0.39120  0.71510  Biso   1.000  N
  H53      1.0000 0.41040  0.60920  0.25070  Biso   1.000  H
  H54      1.0000 0.58960  0.39080  0.74930  Biso   1.000  H
  N7       1.0000 0.61370  0.88400  0.65620  Biso   1.000  N
  N8       1.0000 0.38630  0.11600  0.34380  Biso   1.000  N
  H55      1.0000 0.58310  0.88510  0.69870  Biso   1.000  H
  H56      1.0000 0.41690  0.11490  0.30130  Biso   1.000  H
  N9       1.0000 0.42990  0.86320  0.37770  Biso   1.000  N
  N10      1.0000 0.57010  0.13680  0.62230  Biso   1.000  N
  N11      1.0000 0.05710  0.79220  0.14790  Biso   1.000  N
  N12      1.0000 0.94290  0.20780  0.85210  Biso   1.000  N
  O1       1.0000 0.04770  0.86480  0.99700  Biso   1.000  O
  O2       1.0000 0.95230  0.13520  0.00300  Biso   1.000  O
  H57      1.0000 0.10700  0.88840  0.99090  Biso   1.000  H
  H58      1.0000 0.89300  0.11160  0.00910  Biso   1.000  H
  H59      1.0000 0.02600  0.91480  0.01880  Biso   1.000  H
  H60      1.0000 0.97400  0.08520  0.98120  Biso   1.000  H
  O3       1.0000 0.24290  0.30160  0.69480  Biso   1.000  O
  O4       1.0000 0.75710  0.69840  0.30520  Biso   1.000  O
  O5       1.0000 0.85900  0.85260  0.06590  Biso   1.000  O
  O6       1.0000 0.14100  0.14740  0.93410  Biso   1.000  O
  H61      1.0000 0.84340  0.86840  0.11940  Biso   1.000  H
  H62      1.0000 0.15660  0.13160  0.88060  Biso   1.000  H
  H63      1.0000 0.81230  0.85920  0.02030  Biso   1.000  H
  H64      1.0000 0.18770  0.14080  0.97970  Biso   1.000  H
  O7       1.0000 0.42580  0.41730  0.75000  Biso   1.000  O
  O8       1.0000 0.57420  0.58270  0.25000  Biso   1.000  O
  O9       1.0000 0.84790  0.62230  0.98890  Biso   1.000  O
  O10      1.0000 0.15210  0.37770  0.01110  Biso   1.000  O
  H65      1.0000 0.78020  0.57930  0.94490  Biso   1.000  H
  H66      1.0000 0.21980  0.42070  0.05510  Biso   1.000  H
  H67      1.0000 0.87320  0.59890  0.02870  Biso   1.000  H
  H68      1.0000 0.12680  0.40110  0.97130  Biso   1.000  H
  O11      1.0000 0.30620  0.36750  0.59640  Biso   1.000  O
  O12      1.0000 0.69380  0.63250  0.40360  Biso   1.000  O
  O13      1.0000 0.04810  0.46150  0.89020  Biso   1.000  O
  O14      1.0000 0.95190  0.53850  0.10980  Biso   1.000  O
  O15      1.0000 0.20290  0.62100  0.04100  Biso   1.000  O
  O16      1.0000 0.79710  0.37900  0.95900  Biso   1.000  O
  O17      1.0000 0.04780  0.63250  0.92580  Biso   1.000  O
  O18      1.0000 0.95220  0.36750  0.07420  Biso   1.000  O
  O19      1.0000 0.80560  0.09120  0.40450  Biso   1.000  O
  O20      1.0000 0.19440  0.90880  0.59550  Biso   1.000  O
  O21      1.0000 0.65320  0.14680  0.39300  Biso   1.000  O
  O22      1.0000 0.34680  0.85320  0.60700  Biso   1.000  O
  O23      1.0000 0.79730  0.21870  0.34830  Biso   1.000  O
  O24      1.0000 0.20270  0.78130  0.65170  Biso   1.000  O
  O25      1.0000 0.75320  0.91320  0.92900  Biso   1.000  O
  O26      1.0000 0.24680  0.08680  0.07100  Biso   1.000  O
  O27      1.0000 0.57900  0.91660  0.83580  Biso   1.000  O
  O28      1.0000 0.42100  0.08340  0.16420  Biso   1.000  O
  O29      1.0000 0.73770  0.07950  0.97780  Biso   1.000  O
  O30      1.0000 0.26230  0.92050  0.02220  Biso   1.000  O
  O31      1.0000 0.83380  0.90470  0.25580  Biso   1.000  O
  O32      1.0000 0.16620  0.09530  0.74420  Biso   1.000  O
  O33      1.0000 0.35590  0.27270  0.84410  Biso   1.000  O
  O34      1.0000 0.64410  0.72730  0.15590  Biso   1.000  O
  O35      1.0000 0.42140  0.61910  0.10520  Biso   1.000  O
  O36      1.0000 0.57860  0.38090  0.89480  Biso   1.000  O
  O37      1.0000 0.96250  0.92680  0.85560  Biso   1.000  O
  O38      1.0000 0.03750  0.07320  0.14440  Biso   1.000  O
  O39      1.0000 0.64120  0.60330  0.96600  Biso   1.000  O
  O40      1.0000 0.35880  0.39670  0.03400  Biso   1.000  O
  O41      1.0000 0.02350  0.59590  0.48230  Biso   1.000  O
  O42      1.0000 0.97650  0.40410  0.51770  Biso   1.000  O
  O43      1.0000 0.94930  0.89100  0.48600  Biso   1.000  O
  O44      1.0000 0.05070  0.10900  0.51400  Biso   1.000  O
  O45      1.0000 0.00200  0.83700  0.65000  Biso   1.000  O
  O46      1.0000 0.99800  0.16300  0.35000  Biso   1.000  O
