data_image0
_cell_length_a       11.251
_cell_length_b       11.554
_cell_length_c       12.185
_cell_angle_alpha    81.72
_cell_angle_beta     84.72
_cell_angle_gamma    82.7

_symmetry_space_group_name_H-M    "P 1"
_symmetry_int_tables_number       1

loop_
  _symmetry_equiv_pos_as_xyz
  'x, y, z'

loop_
  _atom_site_label
  _atom_site_occupancy
  _atom_site_fract_x
  _atom_site_fract_y
  _atom_site_fract_z
  _atom_site_thermal_displace_type
  _atom_site_B_iso_or_equiv
  _atom_site_type_symbol
  Gd1      1.0000 0.41662  0.98108  0.66682  Biso   1.000  Gd
  Gd2      1.0000 0.58338  0.01892  0.33317  Biso   1.000  Gd
  Cu1      1.0000 0.50000  0.00000  0.00000  Biso   1.000  Cu
  Cu2      1.0000 0.00000  0.00000  0.00000  Biso   1.000  Cu
  N1       1.0000 0.93000  0.03270  0.85680  Biso   1.000  N
  N2       1.0000 0.07000  0.96730  0.14320  Biso   1.000  N
  O1       1.0000 0.38180  0.82690  0.57650  Biso   1.000  O
  O2       1.0000 0.61820  0.17310  0.42350  Biso   1.000  O
  O3       1.0000 0.47880  0.86370  0.41220  Biso   1.000  O
  O4       1.0000 0.52120  0.13630  0.58780  Biso   1.000  O
  O5       1.0000 0.29290  0.08880  0.53420  Biso   1.000  O
  O6       1.0000 0.70710  0.91120  0.46580  Biso   1.000  O
  O7       1.0000 0.39110  0.10550  0.36730  Biso   1.000  O
  O8       1.0000 0.60890  0.89450  0.63270  Biso   1.000  O
  O9       1.0000 0.45480  0.85570  0.83030  Biso   1.000  O
  O10      1.0000 0.54520  0.14430  0.16970  Biso   1.000  O
  O11      1.0000 0.42590  0.85650  0.01230  Biso   1.000  O
  O12      1.0000 0.57410  0.14350  0.98770  Biso   1.000  O
  O13      1.0000 0.38110  0.10950  0.79970  Biso   1.000  O
  O14      1.0000 0.61890  0.89050  0.20030  Biso   1.000  O
  O15      1.0000 0.34510  0.09760  0.98360  Biso   1.000  O
  O16      1.0000 0.65490  0.90240  0.01640  Biso   1.000  O
  O17      1.0000 0.21530  0.94410  0.73540  Biso   1.000  O
  O18      1.0000 0.78470  0.05590  0.26460  Biso   1.000  O
  O19      1.0000 0.14200  0.94080  0.91220  Biso   1.000  O
  O20      1.0000 0.85800  0.05920  0.08780  Biso   1.000  O
  C1       1.0000 0.42080  0.79990  0.48340  Biso   1.000  C
  C2       1.0000 0.57920  0.20010  0.51660  Biso   1.000  C
  C3       1.0000 0.39490  0.68510  0.45480  Biso   1.000  C
  C4       1.0000 0.60510  0.31490  0.54520  Biso   1.000  C
  C5       1.0000 0.31910  0.61830  0.52550  Biso   1.000  C
  C6       1.0000 0.68090  0.38170  0.47450  Biso   1.000  C
  H1       1.0000 0.28390  0.64550  0.59050  Biso   1.000  H
  H2       1.0000 0.71610  0.35450  0.40950  Biso   1.000  H
  C7       1.0000 0.29540  0.51070  0.49980  Biso   1.000  C
  C8       1.0000 0.70460  0.48930  0.50020  Biso   1.000  C
  H3       1.0000 0.24420  0.46550  0.54700  Biso   1.000  H
  H4       1.0000 0.75580  0.53450  0.45300  Biso   1.000  H
  C9       1.0000 0.34820  0.47250  0.40440  Biso   1.000  C
  C10      1.0000 0.65180  0.52750  0.59560  Biso   1.000  C
  H5       1.0000 0.33190  0.40100  0.38630  Biso   1.000  H
  H6       1.0000 0.66810  0.59900  0.61370  Biso   1.000  H
  C11      1.0000 0.42500  0.53770  0.33450  Biso   1.000  C
  C12      1.0000 0.57500  0.46230  0.66550  Biso   1.000  C
  H7       1.0000 0.46190  0.50940  0.27060  Biso   1.000  H
  H8       1.0000 0.53810  0.49060  0.72940  Biso   1.000  H
  C13      1.0000 0.44700  0.64390  0.35920  Biso   1.000  C
  C14      1.0000 0.55300  0.35610  0.64080  Biso   1.000  C
  H9       1.0000 0.49760  0.68890  0.31100  Biso   1.000  H
  H10      1.0000 0.50240  0.31110  0.68900  Biso   1.000  H
  C15      1.0000 0.30190  0.12740  0.43310  Biso   1.000  C
  C16      1.0000 0.69810  0.87260  0.56690  Biso   1.000  C
  C17      1.0000 0.19770  0.20660  0.38620  Biso   1.000  C
  C18      1.0000 0.80230  0.79340  0.61380  Biso   1.000  C
  C19      1.0000 0.19710  0.24780  0.27380  Biso   1.000  C
  C20      1.0000 0.80290  0.75220  0.72620  Biso   1.000  C
  H11      1.0000 0.26250  0.22700  0.22530  Biso   1.000  H
  H12      1.0000 0.73750  0.77300  0.77470  Biso   1.000  H
  C21      1.0000 0.09810  0.32060  0.23400  Biso   1.000  C
  C22      1.0000 0.90190  0.67940  0.76600  Biso   1.000  C
  H13      1.0000 0.09690  0.34920  0.15880  Biso   1.000  H
  H14      1.0000 0.90310  0.65080  0.84120  Biso   1.000  H
  C23      1.0000 0.00150  0.35030  0.30690  Biso   1.000  C
  C24      1.0000 0.99850  0.64970  0.69310  Biso   1.000  C
  H15      1.0000 0.93440  0.39760  0.28010  Biso   1.000  H
  H16      1.0000 0.06560  0.60240  0.71990  Biso   1.000  H
  C25      1.0000 0.00330  0.31170  0.41610  Biso   1.000  C
  C26      1.0000 0.99670  0.68830  0.58390  Biso   1.000  C
  H17      1.0000 0.93850  0.33420  0.46460  Biso   1.000  H
  H18      1.0000 0.06150  0.66580  0.53540  Biso   1.000  H
  C27      1.0000 0.10040  0.23920  0.45640  Biso   1.000  C
  C28      1.0000 0.89960  0.76080  0.54360  Biso   1.000  C
  H19      1.0000 0.10040  0.21190  0.53210  Biso   1.000  H
  H20      1.0000 0.89960  0.78810  0.46790  Biso   1.000  H
  C29      1.0000 0.42080  0.80990  0.92540  Biso   1.000  C
  C30      1.0000 0.57920  0.19010  0.07460  Biso   1.000  C
  C31      1.0000 0.37430  0.69300  0.94000  Biso   1.000  C
  C32      1.0000 0.62570  0.30700  0.06000  Biso   1.000  C
  C33      1.0000 0.34620  0.64590  0.85000  Biso   1.000  C
  C34      1.0000 0.65380  0.35410  0.15000  Biso   1.000  C
  H21      1.0000 0.35360  0.68830  0.77920  Biso   1.000  H
  H22      1.0000 0.64640  0.31170  0.22080  Biso   1.000  H
  C35      1.0000 0.30710  0.53650  0.86370  Biso   1.000  C
  C36      1.0000 0.69290  0.46350  0.13630  Biso   1.000  C
  H23      1.0000 0.28660  0.50600  0.80230  Biso   1.000  H
  H24      1.0000 0.71340  0.49400  0.19770  Biso   1.000  H
  C37      1.0000 0.29790  0.47170  0.96700  Biso   1.000  C
  C38      1.0000 0.70210  0.52830  0.03300  Biso   1.000  C
  H25      1.0000 0.27300  0.39700  0.97560  Biso   1.000  H
  H26      1.0000 0.72700  0.60300  0.02440  Biso   1.000  H
  C39      1.0000 0.32580  0.51780  0.05710  Biso   1.000  C
  C40      1.0000 0.67420  0.48220  0.94290  Biso   1.000  C
  H27      1.0000 0.32000  0.47430  0.12740  Biso   1.000  H
  H28      1.0000 0.68000  0.52570  0.87260  Biso   1.000  H
  C41      1.0000 0.36240  0.62850  0.04400  Biso   1.000  C
  C42      1.0000 0.63760  0.37150  0.95600  Biso   1.000  C
  H29      1.0000 0.37920  0.66020  0.10600  Biso   1.000  H
  H30      1.0000 0.62080  0.33980  0.89400  Biso   1.000  H
  C43      1.0000 0.31580  0.13250  0.88580  Biso   1.000  C
  C44      1.0000 0.68420  0.86750  0.11420  Biso   1.000  C
  C45      1.0000 0.19820  0.20830  0.87020  Biso   1.000  C
  C46      1.0000 0.80180  0.79170  0.12980  Biso   1.000  C
  C47      1.0000 0.16790  0.25820  0.76470  Biso   1.000  C
  C48      1.0000 0.83210  0.74180  0.23530  Biso   1.000  C
  H31      1.0000 0.22200  0.24740  0.70360  Biso   1.000  H
  H32      1.0000 0.77800  0.75260  0.29640  Biso   1.000  H
  C49      1.0000 0.05760  0.32400  0.74980  Biso   1.000  C
  C50      1.0000 0.94240  0.67600  0.25020  Biso   1.000  C
  H33      1.0000 0.03770  0.35740  0.67880  Biso   1.000  H
  H34      1.0000 0.96230  0.64260  0.32120  Biso   1.000  H
  C51      1.0000 0.97730  0.34010  0.83980  Biso   1.000  C
  C52      1.0000 0.02270  0.65990  0.16020  Biso   1.000  C
  H35      1.0000 0.90340  0.38460  0.82960  Biso   1.000  H
  H36      1.0000 0.09660  0.61540  0.17040  Biso   1.000  H
  C53      1.0000 0.00590  0.29060  0.94530  Biso   1.000  C
  C54      1.0000 0.99410  0.70940  0.05470  Biso   1.000  C
  H37      1.0000 0.95100  0.30100  0.00590  Biso   1.000  H
  H38      1.0000 0.04900  0.69900  0.99410  Biso   1.000  H
  C55      1.0000 0.11650  0.22530  0.96070  Biso   1.000  C
  C56      1.0000 0.88350  0.77470  0.03930  Biso   1.000  C
  H39      1.0000 0.13620  0.19270  0.03200  Biso   1.000  H
  H40      1.0000 0.86380  0.80730  0.96800  Biso   1.000  H
  C57      1.0000 0.13310  0.96000  0.80780  Biso   1.000  C
  C58      1.0000 0.86690  0.04000  0.19220  Biso   1.000  C
  C59      1.0000 0.00950  0.00660  0.77260  Biso   1.000  C
  C60      1.0000 0.99050  0.99340  0.22740  Biso   1.000  C
  C61      1.0000 0.97840  0.02600  0.66360  Biso   1.000  C
  C62      1.0000 0.02160  0.97400  0.33640  Biso   1.000  C
  H41      1.0000 0.03460  0.00810  0.60590  Biso   1.000  H
  H42      1.0000 0.96540  0.99190  0.39410  Biso   1.000  H
  C63      1.0000 0.86240  0.07230  0.64250  Biso   1.000  C
  C64      1.0000 0.13760  0.92770  0.35750  Biso   1.000  C
  H43      1.0000 0.83940  0.08600  0.56990  Biso   1.000  H
  H44      1.0000 0.16060  0.91400  0.43010  Biso   1.000  H
  C65      1.0000 0.78080  0.09810  0.72930  Biso   1.000  C
  C66      1.0000 0.21920  0.90190  0.27070  Biso   1.000  C
  H45      1.0000 0.70200  0.12850  0.71640  Biso   1.000  H
  H46      1.0000 0.29800  0.87150  0.28360  Biso   1.000  H
  C67      1.0000 0.81810  0.07820  0.83600  Biso   1.000  C
  C68      1.0000 0.18190  0.92180  0.16400  Biso   1.000  C
  H47      1.0000 0.76380  0.09710  0.89480  Biso   1.000  H
  H48      1.0000 0.23620  0.90290  0.10520  Biso   1.000  H
