data_image0
_cell_length_a       6.6407
_cell_length_b       7.4905
_cell_length_c       17.429
_cell_angle_alpha    90
_cell_angle_beta     96.018
_cell_angle_gamma    90

_symmetry_space_group_name_H-M    "P 1"
_symmetry_int_tables_number       1

loop_
  _symmetry_equiv_pos_as_xyz
  'x, y, z'

loop_
  _atom_site_label
  _atom_site_occupancy
  _atom_site_fract_x
  _atom_site_fract_y
  _atom_site_fract_z
  _atom_site_thermal_displace_type
  _atom_site_B_iso_or_equiv
  _atom_site_type_symbol
  Cu1      1.0000 0.06725  0.07952  0.24824  Biso   1.000  Cu
  Cu2      1.0000 0.43275  0.57952  0.25176  Biso   1.000  Cu
  Cu3      1.0000 0.93275  0.92048  0.75176  Biso   1.000  Cu
  Cu4      1.0000 0.56725  0.42048  0.74824  Biso   1.000  Cu
  O1       1.0000 0.84860  0.11160  0.16480  Biso   1.000  O
  O2       1.0000 0.65140  0.61160  0.33520  Biso   1.000  O
  O3       1.0000 0.15140  0.88840  0.83520  Biso   1.000  O
  O4       1.0000 0.34860  0.38840  0.66480  Biso   1.000  O
  O5       1.0000 0.46940  0.89400  0.20380  Biso   1.000  O
  O6       1.0000 0.03060  0.39400  0.29620  Biso   1.000  O
  O7       1.0000 0.53060  0.10600  0.79620  Biso   1.000  O
  O8       1.0000 0.96940  0.60600  0.70380  Biso   1.000  O
  O9       1.0000 0.25920  0.12390  0.17216  Biso   1.000  O
  O10      1.0000 0.24080  0.62390  0.32784  Biso   1.000  O
  O11      1.0000 0.74080  0.87610  0.82784  Biso   1.000  O
  O12      1.0000 0.75920  0.37610  0.67216  Biso   1.000  O
  N1       1.0000 0.86050  0.02250  0.31980  Biso   1.000  N
  N2       1.0000 0.63950  0.52250  0.18020  Biso   1.000  N
  N3       1.0000 0.13950  0.97750  0.68020  Biso   1.000  N
  N4       1.0000 0.36050  0.47750  0.81980  Biso   1.000  N
  N5       1.0000 0.27310  0.03330  0.33640  Biso   1.000  N
  N6       1.0000 0.22690  0.53330  0.16360  Biso   1.000  N
  N7       1.0000 0.72690  0.96670  0.66360  Biso   1.000  N
  N8       1.0000 0.77310  0.46670  0.83640  Biso   1.000  N
  C1       1.0000 0.69590  0.96420  0.98560  Biso   1.000  C
  C2       1.0000 0.80410  0.46420  0.51440  Biso   1.000  C
  C3       1.0000 0.30410  0.03580  0.01440  Biso   1.000  C
  C4       1.0000 0.19590  0.53580  0.48560  Biso   1.000  C
  H1       1.0000 0.82780  0.93850  0.97580  Biso   1.000  H
  H2       1.0000 0.67220  0.43850  0.52420  Biso   1.000  H
  H3       1.0000 0.17220  0.06150  0.02420  Biso   1.000  H
  H4       1.0000 0.32780  0.56150  0.47580  Biso   1.000  H
  C5       1.0000 0.45190  0.01070  0.07580  Biso   1.000  C
  C6       1.0000 0.04810  0.51070  0.42420  Biso   1.000  C
  C7       1.0000 0.54810  0.98930  0.92420  Biso   1.000  C
  C8       1.0000 0.95190  0.48930  0.57580  Biso   1.000  C
  C9       1.0000 0.39180  0.00840  0.15790  Biso   1.000  C
  C10      1.0000 0.10820  0.50840  0.34210  Biso   1.000  C
  C11      1.0000 0.60820  0.99160  0.84210  Biso   1.000  C
  C12      1.0000 0.89180  0.49160  0.65790  Biso   1.000  C
  C13      1.0000 0.65130  0.97650  0.06060  Biso   1.000  C
  C14      1.0000 0.84870  0.47650  0.43940  Biso   1.000  C
  C15      1.0000 0.34870  0.02350  0.93940  Biso   1.000  C
  C16      1.0000 0.15130  0.52350  0.56060  Biso   1.000  C
  C17      1.0000 0.17150  0.03810  0.40770  Biso   1.000  C
  C18      1.0000 0.32850  0.53810  0.09230  Biso   1.000  C
  C19      1.0000 0.82850  0.96190  0.59230  Biso   1.000  C
  C20      1.0000 0.67150  0.46190  0.90770  Biso   1.000  C
  H5       1.0000 0.16790  0.16000  0.42630  Biso   1.000  H
  H6       1.0000 0.33210  0.66000  0.07370  Biso   1.000  H
  H7       1.0000 0.83210  0.84000  0.57370  Biso   1.000  H
  H8       1.0000 0.66790  0.34000  0.92630  Biso   1.000  H
  H9       1.0000 0.24730  0.96670  0.44720  Biso   1.000  H
  H10      1.0000 0.25270  0.46670  0.05280  Biso   1.000  H
  H11      1.0000 0.75270  0.03330  0.55280  Biso   1.000  H
  H12      1.0000 0.74730  0.53330  0.94720  Biso   1.000  H
  C21      1.0000 0.96040  0.96760  0.39310  Biso   1.000  C
  C22      1.0000 0.53960  0.46760  0.10690  Biso   1.000  C
  C23      1.0000 0.03960  0.03240  0.60690  Biso   1.000  C
  C24      1.0000 0.46040  0.53240  0.89310  Biso   1.000  C
  H13      1.0000 0.96420  0.83830  0.39510  Biso   1.000  H
  H14      1.0000 0.53580  0.33830  0.10490  Biso   1.000  H
  H15      1.0000 0.03580  0.16170  0.60490  Biso   1.000  H
  H16      1.0000 0.46420  0.66170  0.89510  Biso   1.000  H
  H17      1.0000 0.88240  0.00890  0.43370  Biso   1.000  H
  H18      1.0000 0.61760  0.50890  0.06630  Biso   1.000  H
  H19      1.0000 0.11760  0.99110  0.56630  Biso   1.000  H
  H20      1.0000 0.38240  0.49110  0.93370  Biso   1.000  H
  C25      1.0000 0.81660  0.96680  0.12590  Biso   1.000  C
  C26      1.0000 0.68340  0.46680  0.37410  Biso   1.000  C
  C27      1.0000 0.18340  0.03320  0.87410  Biso   1.000  C
  C28      1.0000 0.31660  0.53320  0.62590  Biso   1.000  C
  O13      1.0000 0.91860  0.82680  0.13870  Biso   1.000  O
  O14      1.0000 0.58140  0.32680  0.36130  Biso   1.000  O
  O15      1.0000 0.08140  0.17320  0.86130  Biso   1.000  O
  O16      1.0000 0.41860  0.67320  0.63870  Biso   1.000  O
