data_image0
_cell_length_a       27.4504
_cell_length_b       12.196
_cell_length_c       11.6371
_cell_angle_alpha    90
_cell_angle_beta     108.087
_cell_angle_gamma    90

_symmetry_space_group_name_H-M    "P 1"
_symmetry_int_tables_number       1

loop_
  _symmetry_equiv_pos_as_xyz
  'x, y, z'

loop_
  _atom_site_label
  _atom_site_occupancy
  _atom_site_fract_x
  _atom_site_fract_y
  _atom_site_fract_z
  _atom_site_thermal_displace_type
  _atom_site_B_iso_or_equiv
  _atom_site_type_symbol
  Cu1      1.0000 0.25000  0.25000  0.00000  Biso   1.000  Cu
  Cu2      1.0000 0.75000  0.25000  0.50000  Biso   1.000  Cu
  Cu3      1.0000 0.75000  0.75000  0.00000  Biso   1.000  Cu
  Cu4      1.0000 0.25000  0.75000  0.50000  Biso   1.000  Cu
  Cu5      1.0000 0.50000  0.50000  0.50000  Biso   1.000  Cu
  Cu6      1.0000 0.50000  0.50000  0.00000  Biso   1.000  Cu
  Cu7      1.0000 0.00000  0.00000  0.50000  Biso   1.000  Cu
  Cu8      1.0000 0.00000  0.00000  0.00000  Biso   1.000  Cu
  O1       1.0000 0.40582  0.97057  0.72068  Biso   1.000  O
  O2       1.0000 0.59418  0.97057  0.77932  Biso   1.000  O
  O3       1.0000 0.90582  0.47057  0.72068  Biso   1.000  O
  O4       1.0000 0.09418  0.47057  0.77932  Biso   1.000  O
  O5       1.0000 0.59418  0.02943  0.27932  Biso   1.000  O
  O6       1.0000 0.40582  0.02943  0.22068  Biso   1.000  O
  O7       1.0000 0.09418  0.52943  0.27932  Biso   1.000  O
  O8       1.0000 0.90582  0.52943  0.22068  Biso   1.000  O
  O9       1.0000 0.19281  0.30530  0.59250  Biso   1.000  O
  O10      1.0000 0.80719  0.30530  0.90750  Biso   1.000  O
  O11      1.0000 0.69281  0.80530  0.59250  Biso   1.000  O
  O12      1.0000 0.30719  0.80530  0.90750  Biso   1.000  O
  O13      1.0000 0.80719  0.69470  0.40750  Biso   1.000  O
  O14      1.0000 0.19281  0.69470  0.09250  Biso   1.000  O
  O15      1.0000 0.30719  0.19470  0.40750  Biso   1.000  O
  O16      1.0000 0.69281  0.19470  0.09250  Biso   1.000  O
  O17      1.0000 0.12235  0.26690  0.61840  Biso   1.000  O
  O18      1.0000 0.87765  0.26690  0.88160  Biso   1.000  O
  O19      1.0000 0.62235  0.76690  0.61840  Biso   1.000  O
  O20      1.0000 0.37765  0.76690  0.88160  Biso   1.000  O
  O21      1.0000 0.87765  0.73310  0.38160  Biso   1.000  O
  O22      1.0000 0.12235  0.73310  0.11840  Biso   1.000  O
  O23      1.0000 0.37765  0.23310  0.38160  Biso   1.000  O
  O24      1.0000 0.62235  0.23310  0.11840  Biso   1.000  O
  O25      1.0000 0.14872  0.16870  0.49620  Biso   1.000  O
  O26      1.0000 0.85128  0.16870  0.00380  Biso   1.000  O
  O27      1.0000 0.64872  0.66870  0.49620  Biso   1.000  O
  O28      1.0000 0.35128  0.66870  0.00380  Biso   1.000  O
  O29      1.0000 0.85128  0.83130  0.50380  Biso   1.000  O
  O30      1.0000 0.14872  0.83130  0.99620  Biso   1.000  O
  O31      1.0000 0.35128  0.33130  0.50380  Biso   1.000  O
  O32      1.0000 0.64872  0.33130  0.99620  Biso   1.000  O
  N1       1.0000 0.30294  0.19776  0.92012  Biso   1.000  N
  N2       1.0000 0.69706  0.19776  0.57988  Biso   1.000  N
  N3       1.0000 0.80294  0.69776  0.92012  Biso   1.000  N
  N4       1.0000 0.19706  0.69776  0.57988  Biso   1.000  N
  N5       1.0000 0.69706  0.80224  0.07988  Biso   1.000  N
  N6       1.0000 0.30294  0.80224  0.42012  Biso   1.000  N
  N7       1.0000 0.19706  0.30224  0.07988  Biso   1.000  N
  N8       1.0000 0.80294  0.30224  0.42012  Biso   1.000  N
  N9       1.0000 0.42973  0.13426  0.67990  Biso   1.000  N
  N10      1.0000 0.57027  0.13426  0.82010  Biso   1.000  N
  N11      1.0000 0.92973  0.63426  0.67990  Biso   1.000  N
  N12      1.0000 0.07027  0.63426  0.82010  Biso   1.000  N
  N13      1.0000 0.57027  0.86574  0.32010  Biso   1.000  N
  N14      1.0000 0.42973  0.86574  0.17990  Biso   1.000  N
  N15      1.0000 0.07027  0.36574  0.32010  Biso   1.000  N
  N16      1.0000 0.92973  0.36574  0.17990  Biso   1.000  N
  N17      1.0000 0.45275  0.05508  0.62630  Biso   1.000  N
  N18      1.0000 0.54725  0.05508  0.87370  Biso   1.000  N
  N19      1.0000 0.95275  0.55508  0.62630  Biso   1.000  N
  N20      1.0000 0.04725  0.55508  0.87370  Biso   1.000  N
  N21      1.0000 0.54725  0.94492  0.37370  Biso   1.000  N
  N22      1.0000 0.45275  0.94492  0.12630  Biso   1.000  N
  N23      1.0000 0.04725  0.44492  0.37370  Biso   1.000  N
  N24      1.0000 0.95275  0.44492  0.12630  Biso   1.000  N
  N25      1.0000 0.47917  0.64945  0.55222  Biso   1.000  N
  N26      1.0000 0.52083  0.64945  0.94778  Biso   1.000  N
  N27      1.0000 0.97917  0.14945  0.55222  Biso   1.000  N
  N28      1.0000 0.02083  0.14945  0.94778  Biso   1.000  N
  N29      1.0000 0.52083  0.35055  0.44778  Biso   1.000  N
  N30      1.0000 0.47917  0.35055  0.05222  Biso   1.000  N
  N31      1.0000 0.02083  0.85055  0.44778  Biso   1.000  N
  N32      1.0000 0.97917  0.85055  0.05222  Biso   1.000  N
  N33      1.0000 0.15420  0.00664  0.75370  Biso   1.000  N
  N34      1.0000 0.84580  0.00664  0.74630  Biso   1.000  N
  N35      1.0000 0.65420  0.50664  0.75370  Biso   1.000  N
  N36      1.0000 0.34580  0.50664  0.74630  Biso   1.000  N
  N37      1.0000 0.84580  0.99336  0.24630  Biso   1.000  N
  N38      1.0000 0.15420  0.99336  0.25370  Biso   1.000  N
  N39      1.0000 0.34580  0.49336  0.24630  Biso   1.000  N
  N40      1.0000 0.65420  0.49336  0.25370  Biso   1.000  N
  N41      1.0000 0.06668  0.00864  0.62170  Biso   1.000  N
  N42      1.0000 0.93332  0.00864  0.87830  Biso   1.000  N
  N43      1.0000 0.56668  0.50864  0.62170  Biso   1.000  N
  N44      1.0000 0.43332  0.50864  0.87830  Biso   1.000  N
  N45      1.0000 0.93332  0.99136  0.37830  Biso   1.000  N
  N46      1.0000 0.06668  0.99136  0.12170  Biso   1.000  N
  N47      1.0000 0.43332  0.49136  0.37830  Biso   1.000  N
  N48      1.0000 0.56668  0.49136  0.12170  Biso   1.000  N
  N49      1.0000 0.20098  0.14051  0.90178  Biso   1.000  N
  N50      1.0000 0.79902  0.14051  0.59822  Biso   1.000  N
  N51      1.0000 0.70098  0.64051  0.90178  Biso   1.000  N
  N52      1.0000 0.29902  0.64051  0.59822  Biso   1.000  N
  N53      1.0000 0.79902  0.85949  0.09822  Biso   1.000  N
  N54      1.0000 0.20098  0.85949  0.40178  Biso   1.000  N
  N55      1.0000 0.29902  0.35949  0.09822  Biso   1.000  N
  N56      1.0000 0.70098  0.35949  0.40178  Biso   1.000  N
  N57      1.0000 0.15389  0.24703  0.56800  Biso   1.000  N
  N58      1.0000 0.84611  0.24703  0.93200  Biso   1.000  N
  N59      1.0000 0.65389  0.74703  0.56800  Biso   1.000  N
  N60      1.0000 0.34611  0.74703  0.93200  Biso   1.000  N
  N61      1.0000 0.84611  0.75297  0.43200  Biso   1.000  N
  N62      1.0000 0.15389  0.75297  0.06800  Biso   1.000  N
  N63      1.0000 0.34611  0.25297  0.43200  Biso   1.000  N
  N64      1.0000 0.65389  0.25297  0.06800  Biso   1.000  N
  C1       1.0000 0.31591  0.09177  0.92380  Biso   1.000  C
  C2       1.0000 0.68409  0.09177  0.57620  Biso   1.000  C
  C3       1.0000 0.81591  0.59177  0.92380  Biso   1.000  C
  C4       1.0000 0.18409  0.59177  0.57620  Biso   1.000  C
  C5       1.0000 0.68409  0.90823  0.07620  Biso   1.000  C
  C6       1.0000 0.31591  0.90823  0.42380  Biso   1.000  C
  C7       1.0000 0.18409  0.40823  0.07620  Biso   1.000  C
  C8       1.0000 0.81591  0.40823  0.42380  Biso   1.000  C
  H1       1.0000 0.30170  0.04340  0.96610  Biso   1.000  H
  H2       1.0000 0.69830  0.04340  0.53390  Biso   1.000  H
  H3       1.0000 0.80170  0.54340  0.96610  Biso   1.000  H
  H4       1.0000 0.19830  0.54340  0.53390  Biso   1.000  H
  H5       1.0000 0.69830  0.95660  0.03390  Biso   1.000  H
  H6       1.0000 0.30170  0.95660  0.46610  Biso   1.000  H
  H7       1.0000 0.19830  0.45660  0.03390  Biso   1.000  H
  H8       1.0000 0.80170  0.45660  0.46610  Biso   1.000  H
  C9       1.0000 0.34947  0.05127  0.86740  Biso   1.000  C
  C10      1.0000 0.65053  0.05127  0.63260  Biso   1.000  C
  C11      1.0000 0.84947  0.55127  0.86740  Biso   1.000  C
  C12      1.0000 0.15053  0.55127  0.63260  Biso   1.000  C
  C13      1.0000 0.65053  0.94873  0.13260  Biso   1.000  C
  C14      1.0000 0.34947  0.94873  0.36740  Biso   1.000  C
  C15      1.0000 0.15053  0.44873  0.13260  Biso   1.000  C
  C16      1.0000 0.84947  0.44873  0.36740  Biso   1.000  C
  H9       1.0000 0.35840  0.97750  0.87370  Biso   1.000  H
  H10      1.0000 0.64160  0.97750  0.62630  Biso   1.000  H
  H11      1.0000 0.85840  0.47750  0.87370  Biso   1.000  H
  H12      1.0000 0.14160  0.47750  0.62630  Biso   1.000  H
  H13      1.0000 0.64160  0.02250  0.12630  Biso   1.000  H
  H14      1.0000 0.35840  0.02250  0.37370  Biso   1.000  H
  H15      1.0000 0.14160  0.52250  0.12630  Biso   1.000  H
  H16      1.0000 0.85840  0.52250  0.37370  Biso   1.000  H
  C17      1.0000 0.36961  0.12233  0.80130  Biso   1.000  C
  C18      1.0000 0.63039  0.12233  0.69870  Biso   1.000  C
  C19      1.0000 0.86961  0.62233  0.80130  Biso   1.000  C
  C20      1.0000 0.13039  0.62233  0.69870  Biso   1.000  C
  C21      1.0000 0.63039  0.87767  0.19870  Biso   1.000  C
  C22      1.0000 0.36961  0.87767  0.30130  Biso   1.000  C
  C23      1.0000 0.13039  0.37767  0.19870  Biso   1.000  C
  C24      1.0000 0.86961  0.37767  0.30130  Biso   1.000  C
  C25      1.0000 0.35665  0.23233  0.79740  Biso   1.000  C
  C26      1.0000 0.64335  0.23233  0.70260  Biso   1.000  C
  C27      1.0000 0.85665  0.73233  0.79740  Biso   1.000  C
  C28      1.0000 0.14335  0.73233  0.70260  Biso   1.000  C
  C29      1.0000 0.64335  0.76767  0.20260  Biso   1.000  C
  C30      1.0000 0.35665  0.76767  0.29740  Biso   1.000  C
  C31      1.0000 0.14335  0.26767  0.20260  Biso   1.000  C
  C32      1.0000 0.85665  0.26767  0.29740  Biso   1.000  C
  H17      1.0000 0.36990  0.28210  0.75420  Biso   1.000  H
  H18      1.0000 0.63010  0.28210  0.74580  Biso   1.000  H
  H19      1.0000 0.86990  0.78210  0.75420  Biso   1.000  H
  H20      1.0000 0.13010  0.78210  0.74580  Biso   1.000  H
  H21      1.0000 0.63010  0.71790  0.24580  Biso   1.000  H
  H22      1.0000 0.36990  0.71790  0.25420  Biso   1.000  H
  H23      1.0000 0.13010  0.21790  0.24580  Biso   1.000  H
  H24      1.0000 0.86990  0.21790  0.25420  Biso   1.000  H
  C33      1.0000 0.32369  0.26663  0.85890  Biso   1.000  C
  C34      1.0000 0.67631  0.26663  0.64110  Biso   1.000  C
  C35      1.0000 0.82369  0.76663  0.85890  Biso   1.000  C
  C36      1.0000 0.17631  0.76663  0.64110  Biso   1.000  C
  C37      1.0000 0.67631  0.73337  0.14110  Biso   1.000  C
  C38      1.0000 0.32369  0.73337  0.35890  Biso   1.000  C
  C39      1.0000 0.17631  0.23337  0.14110  Biso   1.000  C
  C40      1.0000 0.82369  0.23337  0.35890  Biso   1.000  C
  H25      1.0000 0.31560  0.34080  0.85770  Biso   1.000  H
  H26      1.0000 0.68440  0.34080  0.64230  Biso   1.000  H
  H27      1.0000 0.81560  0.84080  0.85770  Biso   1.000  H
  H28      1.0000 0.18440  0.84080  0.64230  Biso   1.000  H
  H29      1.0000 0.68440  0.65920  0.14230  Biso   1.000  H
  H30      1.0000 0.31560  0.65920  0.35770  Biso   1.000  H
  H31      1.0000 0.18440  0.15920  0.14230  Biso   1.000  H
  H32      1.0000 0.81560  0.15920  0.35770  Biso   1.000  H
  C41      1.0000 0.40276  0.08100  0.73350  Biso   1.000  C
  C42      1.0000 0.59724  0.08100  0.76650  Biso   1.000  C
  C43      1.0000 0.90276  0.58100  0.73350  Biso   1.000  C
  C44      1.0000 0.09724  0.58100  0.76650  Biso   1.000  C
  C45      1.0000 0.59724  0.91900  0.26650  Biso   1.000  C
  C46      1.0000 0.40276  0.91900  0.23350  Biso   1.000  C
  C47      1.0000 0.09724  0.41900  0.26650  Biso   1.000  C
  C48      1.0000 0.90276  0.41900  0.23350  Biso   1.000  C
  C49      1.0000 0.43764  0.96170  0.65230  Biso   1.000  C
  C50      1.0000 0.56236  0.96170  0.84770  Biso   1.000  C
  C51      1.0000 0.93764  0.46170  0.65230  Biso   1.000  C
  C52      1.0000 0.06236  0.46170  0.84770  Biso   1.000  C
  C53      1.0000 0.56236  0.03830  0.34770  Biso   1.000  C
  C54      1.0000 0.43764  0.03830  0.15230  Biso   1.000  C
  C55      1.0000 0.06236  0.53830  0.34770  Biso   1.000  C
  C56      1.0000 0.93764  0.53830  0.15230  Biso   1.000  C
  C57      1.0000 0.45081  0.85295  0.61800  Biso   1.000  C
  C58      1.0000 0.54919  0.85295  0.88200  Biso   1.000  C
  C59      1.0000 0.95081  0.35295  0.61800  Biso   1.000  C
  C60      1.0000 0.04919  0.35295  0.88200  Biso   1.000  C
  C61      1.0000 0.54919  0.14705  0.38200  Biso   1.000  C
  C62      1.0000 0.45081  0.14705  0.11800  Biso   1.000  C
  C63      1.0000 0.04919  0.64705  0.38200  Biso   1.000  C
  C64      1.0000 0.95081  0.64705  0.11800  Biso   1.000  C
  C65      1.0000 0.42808  0.75810  0.64150  Biso   1.000  C
  C66      1.0000 0.57192  0.75810  0.85850  Biso   1.000  C
  C67      1.0000 0.92808  0.25810  0.64150  Biso   1.000  C
  C68      1.0000 0.07192  0.25810  0.85850  Biso   1.000  C
  C69      1.0000 0.57192  0.24190  0.35850  Biso   1.000  C
  C70      1.0000 0.42808  0.24190  0.14150  Biso   1.000  C
  C71      1.0000 0.07192  0.74190  0.35850  Biso   1.000  C
  C72      1.0000 0.92808  0.74190  0.14150  Biso   1.000  C
  H33      1.0000 0.40320  0.76120  0.68040  Biso   1.000  H
  H34      1.0000 0.59680  0.76120  0.81960  Biso   1.000  H
  H35      1.0000 0.90320  0.26120  0.68040  Biso   1.000  H
  H36      1.0000 0.09680  0.26120  0.81960  Biso   1.000  H
  H37      1.0000 0.59680  0.23880  0.31960  Biso   1.000  H
  H38      1.0000 0.40320  0.23880  0.18040  Biso   1.000  H
  H39      1.0000 0.09680  0.73880  0.31960  Biso   1.000  H
  H40      1.0000 0.90320  0.73880  0.18040  Biso   1.000  H
  C73      1.0000 0.44283  0.65920  0.60660  Biso   1.000  C
  C74      1.0000 0.55717  0.65920  0.89340  Biso   1.000  C
  C75      1.0000 0.94283  0.15920  0.60660  Biso   1.000  C
  C76      1.0000 0.05717  0.15920  0.89340  Biso   1.000  C
  C77      1.0000 0.55717  0.34080  0.39340  Biso   1.000  C
  C78      1.0000 0.44283  0.34080  0.10660  Biso   1.000  C
  C79      1.0000 0.05717  0.84080  0.39340  Biso   1.000  C
  C80      1.0000 0.94283  0.84080  0.10660  Biso   1.000  C
  H41      1.0000 0.42680  0.59590  0.62130  Biso   1.000  H
  H42      1.0000 0.57320  0.59590  0.87870  Biso   1.000  H
  H43      1.0000 0.92680  0.09590  0.62130  Biso   1.000  H
  H44      1.0000 0.07320  0.09590  0.87870  Biso   1.000  H
  H45      1.0000 0.57320  0.40410  0.37870  Biso   1.000  H
  H46      1.0000 0.42680  0.40410  0.12130  Biso   1.000  H
  H47      1.0000 0.07320  0.90410  0.37870  Biso   1.000  H
  H48      1.0000 0.92680  0.90410  0.12130  Biso   1.000  H
  C81      1.0000 0.50102  0.74100  0.53070  Biso   1.000  C
  C82      1.0000 0.49898  0.74100  0.96930  Biso   1.000  C
  C83      1.0000 0.00102  0.24100  0.53070  Biso   1.000  C
  C84      1.0000 0.99898  0.24100  0.96930  Biso   1.000  C
  C85      1.0000 0.49898  0.25900  0.46930  Biso   1.000  C
  C86      1.0000 0.50102  0.25900  0.03070  Biso   1.000  C
  C87      1.0000 0.99898  0.75900  0.46930  Biso   1.000  C
  C88      1.0000 0.00102  0.75900  0.03070  Biso   1.000  C
  H49      1.0000 0.52630  0.73560  0.49330  Biso   1.000  H
  H50      1.0000 0.47370  0.73560  0.00670  Biso   1.000  H
  H51      1.0000 0.02630  0.23560  0.49330  Biso   1.000  H
  H52      1.0000 0.97370  0.23560  0.00670  Biso   1.000  H
  H53      1.0000 0.47370  0.26440  0.50670  Biso   1.000  H
  H54      1.0000 0.52630  0.26440  0.99330  Biso   1.000  H
  H55      1.0000 0.97370  0.76440  0.50670  Biso   1.000  H
  H56      1.0000 0.02630  0.76440  0.99330  Biso   1.000  H
  C89      1.0000 0.48798  0.84360  0.56120  Biso   1.000  C
  C90      1.0000 0.51202  0.84360  0.93880  Biso   1.000  C
  C91      1.0000 0.98798  0.34360  0.56120  Biso   1.000  C
  C92      1.0000 0.01202  0.34360  0.93880  Biso   1.000  C
  C93      1.0000 0.51202  0.15640  0.43880  Biso   1.000  C
  C94      1.0000 0.48798  0.15640  0.06120  Biso   1.000  C
  C95      1.0000 0.01202  0.65640  0.43880  Biso   1.000  C
  C96      1.0000 0.98798  0.65640  0.06120  Biso   1.000  C
  H57      1.0000 0.50400  0.90580  0.54370  Biso   1.000  H
  H58      1.0000 0.49600  0.90580  0.95630  Biso   1.000  H
  H59      1.0000 0.00400  0.40580  0.54370  Biso   1.000  H
  H60      1.0000 0.99600  0.40580  0.95630  Biso   1.000  H
  H61      1.0000 0.49600  0.09420  0.45630  Biso   1.000  H
  H62      1.0000 0.50400  0.09420  0.04370  Biso   1.000  H
  H63      1.0000 0.99600  0.59420  0.45630  Biso   1.000  H
  H64      1.0000 0.00400  0.59420  0.04370  Biso   1.000  H
  C97      1.0000 0.10743  0.01416  0.68510  Biso   1.000  C
  C98      1.0000 0.89257  0.01416  0.81490  Biso   1.000  C
  C99      1.0000 0.60743  0.51416  0.68510  Biso   1.000  C
  C100     1.0000 0.39257  0.51416  0.81490  Biso   1.000  C
  C101     1.0000 0.89257  0.98584  0.31490  Biso   1.000  C
  C102     1.0000 0.10743  0.98584  0.18510  Biso   1.000  C
  C103     1.0000 0.39257  0.48584  0.31490  Biso   1.000  C
  C104     1.0000 0.60743  0.48584  0.18510  Biso   1.000  C
  C105     1.0000 0.17715  0.08162  0.83090  Biso   1.000  C
  C106     1.0000 0.82285  0.08162  0.66910  Biso   1.000  C
  C107     1.0000 0.67715  0.58162  0.83090  Biso   1.000  C
  C108     1.0000 0.32285  0.58162  0.66910  Biso   1.000  C
  C109     1.0000 0.82285  0.91838  0.16910  Biso   1.000  C
  C110     1.0000 0.17715  0.91838  0.33090  Biso   1.000  C
  C111     1.0000 0.32285  0.41838  0.16910  Biso   1.000  C
  C112     1.0000 0.67715  0.41838  0.33090  Biso   1.000  C
  O33      1.0000 0.28038  0.11928  0.15290  Biso   1.000  O
  O34      1.0000 0.71962  0.11928  0.34710  Biso   1.000  O
  O35      1.0000 0.78038  0.61928  0.15290  Biso   1.000  O
  O36      1.0000 0.21962  0.61928  0.34710  Biso   1.000  O
  O37      1.0000 0.71962  0.88072  0.84710  Biso   1.000  O
  O38      1.0000 0.28038  0.88072  0.65290  Biso   1.000  O
  O39      1.0000 0.21962  0.38072  0.84710  Biso   1.000  O
  O40      1.0000 0.78038  0.38072  0.65290  Biso   1.000  O
  H65      1.0000 0.29200  0.14190  0.22510  Biso   1.000  H
  H66      1.0000 0.70800  0.14190  0.27490  Biso   1.000  H
  H67      1.0000 0.79200  0.64190  0.22510  Biso   1.000  H
  H68      1.0000 0.20800  0.64190  0.27490  Biso   1.000  H
  H69      1.0000 0.70800  0.85810  0.77490  Biso   1.000  H
  H70      1.0000 0.29200  0.85810  0.72510  Biso   1.000  H
  H71      1.0000 0.20800  0.35810  0.77490  Biso   1.000  H
  H72      1.0000 0.79200  0.35810  0.72510  Biso   1.000  H
  H73      1.0000 0.27280  0.05200  0.13950  Biso   1.000  H
  H74      1.0000 0.72720  0.05200  0.36050  Biso   1.000  H
  H75      1.0000 0.77280  0.55200  0.13950  Biso   1.000  H
  H76      1.0000 0.22720  0.55200  0.36050  Biso   1.000  H
  H77      1.0000 0.72720  0.94800  0.86050  Biso   1.000  H
  H78      1.0000 0.27280  0.94800  0.63950  Biso   1.000  H
  H79      1.0000 0.22720  0.44800  0.86050  Biso   1.000  H
  H80      1.0000 0.77280  0.44800  0.63950  Biso   1.000  H
  O41      1.0000 0.24141  0.40480  0.42670  Biso   1.000  O
  O42      1.0000 0.75859  0.40480  0.07330  Biso   1.000  O
  O43      1.0000 0.74141  0.90480  0.42670  Biso   1.000  O
  O44      1.0000 0.25859  0.90480  0.07330  Biso   1.000  O
  O45      1.0000 0.75859  0.59520  0.57330  Biso   1.000  O
  O46      1.0000 0.24141  0.59520  0.92670  Biso   1.000  O
  O47      1.0000 0.25859  0.09520  0.57330  Biso   1.000  O
  O48      1.0000 0.74141  0.09520  0.92670  Biso   1.000  O
  H81      1.0000 0.27230  0.38530  0.43960  Biso   1.000  H
  H82      1.0000 0.72770  0.38530  0.06040  Biso   1.000  H
  H83      1.0000 0.77230  0.88530  0.43960  Biso   1.000  H
  H84      1.0000 0.22770  0.88530  0.06040  Biso   1.000  H
  H85      1.0000 0.72770  0.61470  0.56040  Biso   1.000  H
  H86      1.0000 0.27230  0.61470  0.93960  Biso   1.000  H
  H87      1.0000 0.22770  0.11470  0.56040  Biso   1.000  H
  H88      1.0000 0.77230  0.11470  0.93960  Biso   1.000  H
  H89      1.0000 0.22180  0.36420  0.45310  Biso   1.000  H
  H90      1.0000 0.77820  0.36420  0.04690  Biso   1.000  H
  H91      1.0000 0.72180  0.86420  0.45310  Biso   1.000  H
  H92      1.0000 0.27820  0.86420  0.04690  Biso   1.000  H
  H93      1.0000 0.77820  0.63580  0.54690  Biso   1.000  H
  H94      1.0000 0.22180  0.63580  0.95310  Biso   1.000  H
  H95      1.0000 0.27820  0.13580  0.54690  Biso   1.000  H
  H96      1.0000 0.72180  0.13580  0.95310  Biso   1.000  H
  O49      1.0000 0.54634  0.60100  0.36460  Biso   1.000  O
  O50      1.0000 0.45366  0.60100  0.13540  Biso   1.000  O
  O51      1.0000 0.04634  0.10100  0.36460  Biso   1.000  O
  O52      1.0000 0.95366  0.10100  0.13540  Biso   1.000  O
  O53      1.0000 0.45366  0.39900  0.63540  Biso   1.000  O
  O54      1.0000 0.54634  0.39900  0.86460  Biso   1.000  O
  O55      1.0000 0.95366  0.89900  0.63540  Biso   1.000  O
  O56      1.0000 0.04634  0.89900  0.86460  Biso   1.000  O
  H97      1.0000 0.54790  0.65520  0.32230  Biso   1.000  H
  H98      1.0000 0.45210  0.65520  0.17770  Biso   1.000  H
  H99      1.0000 0.04790  0.15520  0.32230  Biso   1.000  H
  H100     1.0000 0.95210  0.15520  0.17770  Biso   1.000  H
  H101     1.0000 0.45210  0.34480  0.67770  Biso   1.000  H
  H102     1.0000 0.54790  0.34480  0.82230  Biso   1.000  H
  H103     1.0000 0.95210  0.84480  0.67770  Biso   1.000  H
  H104     1.0000 0.04790  0.84480  0.82230  Biso   1.000  H
  H105     1.0000 0.57390  0.57130  0.40980  Biso   1.000  H
  H106     1.0000 0.42610  0.57130  0.09020  Biso   1.000  H
  H107     1.0000 0.07390  0.07130  0.40980  Biso   1.000  H
  H108     1.0000 0.92610  0.07130  0.09020  Biso   1.000  H
  H109     1.0000 0.42610  0.42870  0.59020  Biso   1.000  H
  H110     1.0000 0.57390  0.42870  0.90980  Biso   1.000  H
  H111     1.0000 0.92610  0.92870  0.59020  Biso   1.000  H
  H112     1.0000 0.07390  0.92870  0.90980  Biso   1.000  H
