data_image0
_cell_length_a       7.532
_cell_length_b       11.604
_cell_length_c       14.208
_cell_angle_alpha    81.018
_cell_angle_beta     79.496
_cell_angle_gamma    73.902

_symmetry_space_group_name_H-M    "P 1"
_symmetry_int_tables_number       1

loop_
  _symmetry_equiv_pos_as_xyz
  'x, y, z'

loop_
  _atom_site_label
  _atom_site_occupancy
  _atom_site_fract_x
  _atom_site_fract_y
  _atom_site_fract_z
  _atom_site_thermal_displace_type
  _atom_site_B_iso_or_equiv
  _atom_site_type_symbol
  C1       1.0000 0.57790  0.33530  0.47850  Biso   1.000  C
  C2       1.0000 0.42210  0.66470  0.52150  Biso   1.000  C
  H1       1.0000 0.61780  0.34490  0.53440  Biso   1.000  H
  H2       1.0000 0.38220  0.65510  0.46560  Biso   1.000  H
  C3       1.0000 0.47990  0.25110  0.48400  Biso   1.000  C
  C4       1.0000 0.52010  0.74890  0.51600  Biso   1.000  C
  H3       1.0000 0.45270  0.20620  0.54250  Biso   1.000  H
  H4       1.0000 0.54730  0.79380  0.45750  Biso   1.000  H
  C5       1.0000 0.42120  0.23330  0.40220  Biso   1.000  C
  C6       1.0000 0.57880  0.76670  0.59780  Biso   1.000  C
  C7       1.0000 0.46050  0.30470  0.31850  Biso   1.000  C
  C8       1.0000 0.53950  0.69530  0.68150  Biso   1.000  C
  H5       1.0000 0.42060  0.29740  0.26200  Biso   1.000  H
  H6       1.0000 0.57940  0.70260  0.73800  Biso   1.000  H
  C9       1.0000 0.56100  0.38810  0.32000  Biso   1.000  C
  C10      1.0000 0.43900  0.61190  0.68000  Biso   1.000  C
  H7       1.0000 0.58860  0.43530  0.26290  Biso   1.000  H
  H8       1.0000 0.41140  0.56470  0.73710  Biso   1.000  H
  C11      1.0000 0.31520  0.14190  0.40600  Biso   1.000  C
  C12      1.0000 0.68480  0.85810  0.59400  Biso   1.000  C
  C13      1.0000 0.06430  0.02430  0.47170  Biso   1.000  C
  C14      1.0000 0.93570  0.97570  0.52830  Biso   1.000  C
  C15      1.0000 0.35030  0.05590  0.34730  Biso   1.000  C
  C16      1.0000 0.64970  0.94410  0.65270  Biso   1.000  C
  C17      1.0000 0.50670  0.03240  0.26760  Biso   1.000  C
  C18      1.0000 0.49330  0.96760  0.73240  Biso   1.000  C
  C19      1.0000 0.68490  0.03130  0.27870  Biso   1.000  C
  C20      1.0000 0.31510  0.96870  0.72130  Biso   1.000  C
  H9       1.0000 0.70990  0.04150  0.33820  Biso   1.000  H
  H10      1.0000 0.29010  0.95850  0.66180  Biso   1.000  H
  C21      1.0000 0.82640  0.01500  0.20160  Biso   1.000  C
  C22      1.0000 0.17360  0.98500  0.79840  Biso   1.000  C
  H11      1.0000 0.94600  0.01430  0.21070  Biso   1.000  H
  H12      1.0000 0.05400  0.98570  0.78930  Biso   1.000  H
  C23      1.0000 0.63040  0.99470  0.10610  Biso   1.000  C
  C24      1.0000 0.36960  0.00530  0.89390  Biso   1.000  C
  H13      1.0000 0.61120  0.97960  0.04680  Biso   1.000  H
  H14      1.0000 0.38880  0.02040  0.95320  Biso   1.000  H
  C25      1.0000 0.48070  0.01010  0.17940  Biso   1.000  C
  C26      1.0000 0.51930  0.98990  0.82060  Biso   1.000  C
  H15      1.0000 0.36440  0.00550  0.16930  Biso   1.000  H
  H16      1.0000 0.63560  0.99450  0.83070  Biso   1.000  H
  C27      1.0000 0.39150  0.68180  0.11120  Biso   1.000  C
  C28      1.0000 0.60850  0.31820  0.88880  Biso   1.000  C
  C29      1.0000 0.22870  0.75600  0.05660  Biso   1.000  C
  C30      1.0000 0.77130  0.24400  0.94340  Biso   1.000  C
  C31      1.0000 0.01260  0.75540  0.94750  Biso   1.000  C
  C32      1.0000 0.98740  0.24460  0.05250  Biso   1.000  C
  C33      1.0000 0.16210  0.70020  0.99860  Biso   1.000  C
  C34      1.0000 0.83790  0.29980  0.00140  Biso   1.000  C
  H17      1.0000 0.22030  0.61930  0.99240  Biso   1.000  H
  H18      1.0000 0.77970  0.38070  0.00760  Biso   1.000  H
  C35      1.0000 0.95940  0.68210  0.88400  Biso   1.000  C
  C36      1.0000 0.04060  0.31790  0.11600  Biso   1.000  C
  Cu1      1.0000 0.00000  0.00000  0.00000  Biso   1.000  Cu
  F1       1.0000 0.36490  0.70060  0.20020  Biso   1.000  F
  F2       1.0000 0.63510  0.29940  0.79980  Biso   1.000  F
  F3       1.0000 0.05620  0.57150  0.88430  Biso   1.000  F
  F4       1.0000 0.94380  0.42850  0.11570  Biso   1.000  F
  F5       1.0000 0.98400  0.72460  0.79510  Biso   1.000  F
  F6       1.0000 0.01600  0.27540  0.20490  Biso   1.000  F
  F7       1.0000 0.79120  0.68200  0.90120  Biso   1.000  F
  F8       1.0000 0.20880  0.31800  0.09880  Biso   1.000  F
  F9       1.0000 0.43030  0.57080  0.10490  Biso   1.000  F
  F10      1.0000 0.56970  0.42920  0.89510  Biso   1.000  F
  F11      1.0000 0.53890  0.71760  0.07980  Biso   1.000  F
  F12      1.0000 0.46110  0.28240  0.92020  Biso   1.000  F
  N1       1.0000 0.62010  0.40430  0.39860  Biso   1.000  N
  N2       1.0000 0.37990  0.59570  0.60140  Biso   1.000  N
  N3       1.0000 0.79940  0.00020  0.11500  Biso   1.000  N
  N4       1.0000 0.20060  0.99980  0.88500  Biso   1.000  N
  O1       1.0000 0.91800  0.86220  0.94570  Biso   1.000  O
  O2       1.0000 0.08200  0.13780  0.05430  Biso   1.000  O
  O3       1.0000 0.18350  0.86270  0.07320  Biso   1.000  O
  O4       1.0000 0.81650  0.13730  0.92680  Biso   1.000  O
  S1       1.0000 0.19384  0.96388  0.36624  Biso   1.000  S
  S2       1.0000 0.80616  0.03612  0.63376  Biso   1.000  S
  S3       1.0000 0.12200  0.15094  0.49614  Biso   1.000  S
  S4       1.0000 0.87800  0.84906  0.50386  Biso   1.000  S
  C37      1.0000 0.09100  0.42460  0.66200  Biso   1.000  C
  C38      1.0000 0.90900  0.57540  0.33800  Biso   1.000  C
  H19      1.0000 0.06870  0.49610  0.69430  Biso   1.000  H
  H20      1.0000 0.93130  0.50390  0.30570  Biso   1.000  H
  H21      1.0000 0.17570  0.43100  0.60240  Biso   1.000  H
  H22      1.0000 0.82430  0.56900  0.39760  Biso   1.000  H
  Cl1      1.0000 0.17150  0.29510  0.73490  Biso   1.000  Cl
  Cl2      1.0000 0.82850  0.70490  0.26510  Biso   1.000  Cl
  Cl3      1.0000 0.88710  0.39960  0.64350  Biso   1.000  Cl
  Cl4      1.0000 0.11290  0.60040  0.35650  Biso   1.000  Cl
  C39      1.0000 0.01900  0.46220  0.68650  Biso   1.000  C
  C40      1.0000 0.98100  0.53780  0.31350  Biso   1.000  C
  H23      1.0000 0.91510  0.48540  0.73710  Biso   1.000  H
  H24      1.0000 0.08490  0.51460  0.26290  Biso   1.000  H
  H25      1.0000 0.07680  0.52900  0.66880  Biso   1.000  H
  H26      1.0000 0.92320  0.47100  0.33120  Biso   1.000  H
  Cl5      1.0000 0.93100  0.44430  0.58900  Biso   1.000  Cl
  Cl6      1.0000 0.06900  0.55570  0.41100  Biso   1.000  Cl
  Cl7      1.0000 0.18060  0.33940  0.73410  Biso   1.000  Cl
  Cl8      1.0000 0.81940  0.66060  0.26590  Biso   1.000  Cl
