data_image0
_cell_length_a       23.9841
_cell_length_b       5.8831
_cell_length_c       41.7264
_cell_angle_alpha    90
_cell_angle_beta     106.501
_cell_angle_gamma    90

_symmetry_space_group_name_H-M    "P 1"
_symmetry_int_tables_number       1

loop_
  _symmetry_equiv_pos_as_xyz
  'x, y, z'

loop_
  _atom_site_label
  _atom_site_occupancy
  _atom_site_fract_x
  _atom_site_fract_y
  _atom_site_fract_z
  _atom_site_thermal_displace_type
  _atom_site_B_iso_or_equiv
  _atom_site_type_symbol
  Cu1      1.0000 0.25000  0.82326  0.50000  Biso   1.000  Cu
  Cu2      1.0000 0.75000  0.32326  0.00000  Biso   1.000  Cu
  Cu3      1.0000 0.75000  0.17674  0.50000  Biso   1.000  Cu
  Cu4      1.0000 0.25000  0.67674  0.00000  Biso   1.000  Cu
  O1       1.0000 0.32401  0.82010  0.48934  Biso   1.000  O
  O2       1.0000 0.17599  0.82010  0.51066  Biso   1.000  O
  O3       1.0000 0.82401  0.32010  0.98934  Biso   1.000  O
  O4       1.0000 0.67599  0.32010  0.01066  Biso   1.000  O
  O5       1.0000 0.67599  0.17990  0.51066  Biso   1.000  O
  O6       1.0000 0.82401  0.17990  0.48934  Biso   1.000  O
  O7       1.0000 0.17599  0.67990  0.01066  Biso   1.000  O
  O8       1.0000 0.32401  0.67990  0.98934  Biso   1.000  O
  O9       1.0000 0.25000  0.20010  0.50000  Biso   1.000  O
  O10      1.0000 0.75000  0.70010  0.00000  Biso   1.000  O
  O11      1.0000 0.75000  0.79990  0.50000  Biso   1.000  O
  O12      1.0000 0.25000  0.29990  0.00000  Biso   1.000  O
  N1       1.0000 0.20786  0.80060  0.45044  Biso   1.000  N
  N2       1.0000 0.29214  0.80060  0.54956  Biso   1.000  N
  N3       1.0000 0.70786  0.30060  0.95044  Biso   1.000  N
  N4       1.0000 0.79214  0.30060  0.04956  Biso   1.000  N
  N5       1.0000 0.79214  0.19940  0.54956  Biso   1.000  N
  N6       1.0000 0.70786  0.19940  0.45044  Biso   1.000  N
  N7       1.0000 0.29214  0.69940  0.04956  Biso   1.000  N
  N8       1.0000 0.20786  0.69940  0.95044  Biso   1.000  N
  C1       1.0000 0.35500  0.64160  0.49377  Biso   1.000  C
  C2       1.0000 0.14500  0.64160  0.50623  Biso   1.000  C
  C3       1.0000 0.85500  0.14160  0.99377  Biso   1.000  C
  C4       1.0000 0.64500  0.14160  0.00623  Biso   1.000  C
  C5       1.0000 0.64500  0.35840  0.50623  Biso   1.000  C
  C6       1.0000 0.85500  0.35840  0.49377  Biso   1.000  C
  C7       1.0000 0.14500  0.85840  0.00623  Biso   1.000  C
  C8       1.0000 0.35500  0.85840  0.99377  Biso   1.000  C
  H1       1.0000 0.21500  0.29190  0.48220  Biso   1.000  H
  H2       1.0000 0.28500  0.29190  0.51780  Biso   1.000  H
  H3       1.0000 0.71500  0.79190  0.98220  Biso   1.000  H
  H4       1.0000 0.78500  0.79190  0.01780  Biso   1.000  H
  H5       1.0000 0.78500  0.70810  0.51780  Biso   1.000  H
  H6       1.0000 0.71500  0.70810  0.48220  Biso   1.000  H
  H7       1.0000 0.28500  0.20810  0.01780  Biso   1.000  H
  H8       1.0000 0.21500  0.20810  0.98220  Biso   1.000  H
  C9       1.0000 0.21962  0.63800  0.43053  Biso   1.000  C
  C10      1.0000 0.28038  0.63800  0.56947  Biso   1.000  C
  C11      1.0000 0.71962  0.13800  0.93053  Biso   1.000  C
  C12      1.0000 0.78038  0.13800  0.06947  Biso   1.000  C
  C13      1.0000 0.78038  0.36200  0.56947  Biso   1.000  C
  C14      1.0000 0.71962  0.36200  0.43053  Biso   1.000  C
  C15      1.0000 0.28038  0.86200  0.06947  Biso   1.000  C
  C16      1.0000 0.21962  0.86200  0.93053  Biso   1.000  C
  C17      1.0000 0.16726  0.95240  0.43663  Biso   1.000  C
  C18      1.0000 0.33274  0.95240  0.56337  Biso   1.000  C
  C19      1.0000 0.66726  0.45240  0.93663  Biso   1.000  C
  C20      1.0000 0.83274  0.45240  0.06337  Biso   1.000  C
  C21      1.0000 0.83274  0.04760  0.56337  Biso   1.000  C
  C22      1.0000 0.66726  0.04760  0.43663  Biso   1.000  C
  C23      1.0000 0.33274  0.54760  0.06337  Biso   1.000  C
  C24      1.0000 0.16726  0.54760  0.93663  Biso   1.000  C
  O13      1.0000 0.34346  0.46180  0.50583  Biso   1.000  O
  O14      1.0000 0.15654  0.46180  0.49417  Biso   1.000  O
  O15      1.0000 0.84346  0.96180  0.00583  Biso   1.000  O
  O16      1.0000 0.65654  0.96180  0.99417  Biso   1.000  O
  O17      1.0000 0.65654  0.53820  0.49417  Biso   1.000  O
  O18      1.0000 0.84346  0.53820  0.50583  Biso   1.000  O
  O19      1.0000 0.15654  0.03820  0.99417  Biso   1.000  O
  O20      1.0000 0.34346  0.03820  0.00583  Biso   1.000  O
  C25      1.0000 0.41075  0.65830  0.48356  Biso   1.000  C
  C26      1.0000 0.08925  0.65830  0.51644  Biso   1.000  C
  C27      1.0000 0.91075  0.15830  0.98356  Biso   1.000  C
  C28      1.0000 0.58925  0.15830  0.01644  Biso   1.000  C
  C29      1.0000 0.58925  0.34170  0.51644  Biso   1.000  C
  C30      1.0000 0.91075  0.34170  0.48356  Biso   1.000  C
  C31      1.0000 0.08925  0.84170  0.01644  Biso   1.000  C
  C32      1.0000 0.41075  0.84170  0.98356  Biso   1.000  C
  H9       1.0000 0.24810  0.52860  0.44010  Biso   1.000  H
  H10      1.0000 0.25190  0.52860  0.55990  Biso   1.000  H
  H11      1.0000 0.74810  0.02860  0.94010  Biso   1.000  H
  H12      1.0000 0.75190  0.02860  0.05990  Biso   1.000  H
  H13      1.0000 0.75190  0.47140  0.55990  Biso   1.000  H
  H14      1.0000 0.74810  0.47140  0.44010  Biso   1.000  H
  H15      1.0000 0.25190  0.97140  0.05990  Biso   1.000  H
  H16      1.0000 0.24810  0.97140  0.94010  Biso   1.000  H
  C33      1.0000 0.19192  0.62520  0.39705  Biso   1.000  C
  C34      1.0000 0.30808  0.62520  0.60295  Biso   1.000  C
  C35      1.0000 0.69192  0.12520  0.89705  Biso   1.000  C
  C36      1.0000 0.80808  0.12520  0.10295  Biso   1.000  C
  C37      1.0000 0.80808  0.37480  0.60295  Biso   1.000  C
  C38      1.0000 0.69192  0.37480  0.39705  Biso   1.000  C
  C39      1.0000 0.30808  0.87480  0.10295  Biso   1.000  C
  C40      1.0000 0.19192  0.87480  0.89705  Biso   1.000  C
  H17      1.0000 0.15790  0.06430  0.45030  Biso   1.000  H
  H18      1.0000 0.34210  0.06430  0.54970  Biso   1.000  H
  H19      1.0000 0.65790  0.56430  0.95030  Biso   1.000  H
  H20      1.0000 0.84210  0.56430  0.04970  Biso   1.000  H
  H21      1.0000 0.84210  0.93570  0.54970  Biso   1.000  H
  H22      1.0000 0.65790  0.93570  0.45030  Biso   1.000  H
  H23      1.0000 0.34210  0.43570  0.04970  Biso   1.000  H
  H24      1.0000 0.15790  0.43570  0.95030  Biso   1.000  H
  C41      1.0000 0.13809  0.95280  0.40286  Biso   1.000  C
  C42      1.0000 0.36191  0.95280  0.59714  Biso   1.000  C
  C43      1.0000 0.63809  0.45280  0.90286  Biso   1.000  C
  C44      1.0000 0.86191  0.45280  0.09714  Biso   1.000  C
  C45      1.0000 0.86191  0.04720  0.59714  Biso   1.000  C
  C46      1.0000 0.63809  0.04720  0.40286  Biso   1.000  C
  C47      1.0000 0.36191  0.54720  0.09714  Biso   1.000  C
  C48      1.0000 0.13809  0.54720  0.90286  Biso   1.000  C
  H25      1.0000 0.44310  0.69350  0.50330  Biso   1.000  H
  H26      1.0000 0.05690  0.69350  0.49670  Biso   1.000  H
  H27      1.0000 0.94310  0.19350  0.00330  Biso   1.000  H
  H28      1.0000 0.55690  0.19350  0.99670  Biso   1.000  H
  H29      1.0000 0.55690  0.30650  0.49670  Biso   1.000  H
  H30      1.0000 0.94310  0.30650  0.50330  Biso   1.000  H
  H31      1.0000 0.05690  0.80650  0.99670  Biso   1.000  H
  H32      1.0000 0.44310  0.80650  0.00330  Biso   1.000  H
  H33      1.0000 0.40730  0.78340  0.46760  Biso   1.000  H
  H34      1.0000 0.09270  0.78340  0.53240  Biso   1.000  H
  H35      1.0000 0.90730  0.28340  0.96760  Biso   1.000  H
  H36      1.0000 0.59270  0.28340  0.03240  Biso   1.000  H
  H37      1.0000 0.59270  0.21660  0.53240  Biso   1.000  H
  H38      1.0000 0.90730  0.21660  0.46760  Biso   1.000  H
  H39      1.0000 0.09270  0.71660  0.03240  Biso   1.000  H
  H40      1.0000 0.40730  0.71660  0.96760  Biso   1.000  H
  C49      1.0000 0.42429  0.43830  0.46767  Biso   1.000  C
  C50      1.0000 0.07571  0.43830  0.53233  Biso   1.000  C
  C51      1.0000 0.92429  0.93830  0.96767  Biso   1.000  C
  C52      1.0000 0.57571  0.93830  0.03233  Biso   1.000  C
  C53      1.0000 0.57571  0.56170  0.53233  Biso   1.000  C
  C54      1.0000 0.92429  0.56170  0.46767  Biso   1.000  C
  C55      1.0000 0.07571  0.06170  0.03233  Biso   1.000  C
  C56      1.0000 0.42429  0.06170  0.96767  Biso   1.000  C
  H41      1.0000 0.20090  0.50790  0.38410  Biso   1.000  H
  H42      1.0000 0.29910  0.50790  0.61590  Biso   1.000  H
  H43      1.0000 0.70090  0.00790  0.88410  Biso   1.000  H
  H44      1.0000 0.79910  0.00790  0.11590  Biso   1.000  H
  H45      1.0000 0.79910  0.49210  0.61590  Biso   1.000  H
  H46      1.0000 0.70090  0.49210  0.38410  Biso   1.000  H
  H47      1.0000 0.29910  0.99210  0.11590  Biso   1.000  H
  H48      1.0000 0.20090  0.99210  0.88410  Biso   1.000  H
  C57      1.0000 0.15042  0.78690  0.38248  Biso   1.000  C
  C58      1.0000 0.34958  0.78690  0.61752  Biso   1.000  C
  C59      1.0000 0.65042  0.28690  0.88248  Biso   1.000  C
  C60      1.0000 0.84958  0.28690  0.11752  Biso   1.000  C
  C61      1.0000 0.84958  0.21310  0.61752  Biso   1.000  C
  C62      1.0000 0.65042  0.21310  0.38248  Biso   1.000  C
  C63      1.0000 0.34958  0.71310  0.11752  Biso   1.000  C
  C64      1.0000 0.15042  0.71310  0.88248  Biso   1.000  C
  H49      1.0000 0.11010  0.06510  0.39390  Biso   1.000  H
  H50      1.0000 0.38990  0.06510  0.60610  Biso   1.000  H
  H51      1.0000 0.61010  0.56510  0.89390  Biso   1.000  H
  H52      1.0000 0.88990  0.56510  0.10610  Biso   1.000  H
  H53      1.0000 0.88990  0.93490  0.60610  Biso   1.000  H
  H54      1.0000 0.61010  0.93490  0.39390  Biso   1.000  H
  H55      1.0000 0.38990  0.43490  0.10610  Biso   1.000  H
  H56      1.0000 0.11010  0.43490  0.89390  Biso   1.000  H
  C65      1.0000 0.37913  0.38090  0.43521  Biso   1.000  C
  C66      1.0000 0.12087  0.38090  0.56479  Biso   1.000  C
  C67      1.0000 0.87913  0.88090  0.93521  Biso   1.000  C
  C68      1.0000 0.62087  0.88090  0.06479  Biso   1.000  C
  C69      1.0000 0.62087  0.61910  0.56479  Biso   1.000  C
  C70      1.0000 0.87913  0.61910  0.43521  Biso   1.000  C
  C71      1.0000 0.12087  0.11910  0.06479  Biso   1.000  C
  C72      1.0000 0.37913  0.11910  0.93521  Biso   1.000  C
  H57      1.0000 0.46230  0.45300  0.46350  Biso   1.000  H
  H58      1.0000 0.03770  0.45300  0.53650  Biso   1.000  H
  H59      1.0000 0.96230  0.95300  0.96350  Biso   1.000  H
  H60      1.0000 0.53770  0.95300  0.03650  Biso   1.000  H
  H61      1.0000 0.53770  0.54700  0.53650  Biso   1.000  H
  H62      1.0000 0.96230  0.54700  0.46350  Biso   1.000  H
  H63      1.0000 0.03770  0.04700  0.03650  Biso   1.000  H
  H64      1.0000 0.46230  0.04700  0.96350  Biso   1.000  H
  H65      1.0000 0.42680  0.31280  0.48350  Biso   1.000  H
  H66      1.0000 0.07320  0.31280  0.51650  Biso   1.000  H
  H67      1.0000 0.92680  0.81280  0.98350  Biso   1.000  H
  H68      1.0000 0.57320  0.81280  0.01650  Biso   1.000  H
  H69      1.0000 0.57320  0.68720  0.51650  Biso   1.000  H
  H70      1.0000 0.92680  0.68720  0.48350  Biso   1.000  H
  H71      1.0000 0.07320  0.18720  0.01650  Biso   1.000  H
  H72      1.0000 0.42680  0.18720  0.98350  Biso   1.000  H
  S1       1.0000 0.10863  0.78790  0.34017  Biso   1.000  S
  S2       1.0000 0.39137  0.78790  0.65983  Biso   1.000  S
  S3       1.0000 0.60863  0.28790  0.84017  Biso   1.000  S
  S4       1.0000 0.89137  0.28790  0.15983  Biso   1.000  S
  S5       1.0000 0.89137  0.21210  0.65983  Biso   1.000  S
  S6       1.0000 0.60863  0.21210  0.34017  Biso   1.000  S
  S7       1.0000 0.39137  0.71210  0.15983  Biso   1.000  S
  S8       1.0000 0.10863  0.71210  0.84017  Biso   1.000  S
  C73      1.0000 0.34060  0.20140  0.43302  Biso   1.000  C
  C74      1.0000 0.15940  0.20140  0.56698  Biso   1.000  C
  C75      1.0000 0.84060  0.70140  0.93302  Biso   1.000  C
  C76      1.0000 0.65940  0.70140  0.06698  Biso   1.000  C
  C77      1.0000 0.65940  0.79860  0.56698  Biso   1.000  C
  C78      1.0000 0.84060  0.79860  0.43302  Biso   1.000  C
  C79      1.0000 0.15940  0.29860  0.06698  Biso   1.000  C
  C80      1.0000 0.34060  0.29860  0.93302  Biso   1.000  C
  C81      1.0000 0.37550  0.50560  0.40644  Biso   1.000  C
  C82      1.0000 0.12450  0.50560  0.59356  Biso   1.000  C
  C83      1.0000 0.87550  0.00560  0.90644  Biso   1.000  C
  C84      1.0000 0.62450  0.00560  0.09356  Biso   1.000  C
  C85      1.0000 0.62450  0.49440  0.59356  Biso   1.000  C
  C86      1.0000 0.87550  0.49440  0.40644  Biso   1.000  C
  C87      1.0000 0.12450  0.99440  0.09356  Biso   1.000  C
  C88      1.0000 0.37550  0.99440  0.90644  Biso   1.000  C
  C89      1.0000 0.15120  0.62680  0.31967  Biso   1.000  C
  C90      1.0000 0.34880  0.62680  0.68033  Biso   1.000  C
  C91      1.0000 0.65120  0.12680  0.81967  Biso   1.000  C
  C92      1.0000 0.84880  0.12680  0.18033  Biso   1.000  C
  C93      1.0000 0.84880  0.37320  0.68033  Biso   1.000  C
  C94      1.0000 0.65120  0.37320  0.31967  Biso   1.000  C
  C95      1.0000 0.34880  0.87320  0.18033  Biso   1.000  C
  C96      1.0000 0.15120  0.87320  0.81967  Biso   1.000  C
  H73      1.0000 0.34180  0.11540  0.45220  Biso   1.000  H
  H74      1.0000 0.15820  0.11540  0.54780  Biso   1.000  H
  H75      1.0000 0.84180  0.61540  0.95220  Biso   1.000  H
  H76      1.0000 0.65820  0.61540  0.04780  Biso   1.000  H
  H77      1.0000 0.65820  0.88460  0.54780  Biso   1.000  H
  H78      1.0000 0.84180  0.88460  0.45220  Biso   1.000  H
  H79      1.0000 0.15820  0.38460  0.04780  Biso   1.000  H
  H80      1.0000 0.34180  0.38460  0.95220  Biso   1.000  H
  C97      1.0000 0.30040  0.14740  0.40264  Biso   1.000  C
  C98      1.0000 0.19960  0.14740  0.59736  Biso   1.000  C
  C99      1.0000 0.80040  0.64740  0.90264  Biso   1.000  C
  C100     1.0000 0.69960  0.64740  0.09736  Biso   1.000  C
  C101     1.0000 0.69960  0.85260  0.59736  Biso   1.000  C
  C102     1.0000 0.80040  0.85260  0.40264  Biso   1.000  C
  C103     1.0000 0.19960  0.35260  0.09736  Biso   1.000  C
  C104     1.0000 0.30040  0.35260  0.90264  Biso   1.000  C
  H81      1.0000 0.40080  0.62910  0.40730  Biso   1.000  H
  H82      1.0000 0.09920  0.62910  0.59270  Biso   1.000  H
  H83      1.0000 0.90080  0.12910  0.90730  Biso   1.000  H
  H84      1.0000 0.59920  0.12910  0.09270  Biso   1.000  H
  H85      1.0000 0.59920  0.37090  0.59270  Biso   1.000  H
  H86      1.0000 0.90080  0.37090  0.40730  Biso   1.000  H
  H87      1.0000 0.09920  0.87090  0.09270  Biso   1.000  H
  H88      1.0000 0.40080  0.87090  0.90730  Biso   1.000  H
  C105     1.0000 0.33520  0.45040  0.37641  Biso   1.000  C
  C106     1.0000 0.16480  0.45040  0.62359  Biso   1.000  C
  C107     1.0000 0.83520  0.95040  0.87641  Biso   1.000  C
  C108     1.0000 0.66480  0.95040  0.12359  Biso   1.000  C
  C109     1.0000 0.66480  0.54960  0.62359  Biso   1.000  C
  C110     1.0000 0.83520  0.54960  0.37641  Biso   1.000  C
  C111     1.0000 0.16480  0.04960  0.12359  Biso   1.000  C
  C112     1.0000 0.33520  0.04960  0.87641  Biso   1.000  C
  C113     1.0000 0.13220  0.42650  0.30576  Biso   1.000  C
  C114     1.0000 0.36780  0.42650  0.69424  Biso   1.000  C
  C115     1.0000 0.63220  0.92650  0.80576  Biso   1.000  C
  C116     1.0000 0.86780  0.92650  0.19424  Biso   1.000  C
  C117     1.0000 0.86780  0.57350  0.69424  Biso   1.000  C
  C118     1.0000 0.63220  0.57350  0.30576  Biso   1.000  C
  C119     1.0000 0.36780  0.07350  0.19424  Biso   1.000  C
  C120     1.0000 0.13220  0.07350  0.80576  Biso   1.000  C
  C121     1.0000 0.20140  0.70920  0.31470  Biso   1.000  C
  C122     1.0000 0.29860  0.70920  0.68530  Biso   1.000  C
  C123     1.0000 0.70140  0.20920  0.81470  Biso   1.000  C
  C124     1.0000 0.79860  0.20920  0.18530  Biso   1.000  C
  C125     1.0000 0.79860  0.29080  0.68530  Biso   1.000  C
  C126     1.0000 0.70140  0.29080  0.31470  Biso   1.000  C
  C127     1.0000 0.29860  0.79080  0.18530  Biso   1.000  C
  C128     1.0000 0.20140  0.79080  0.81470  Biso   1.000  C
  H89      1.0000 0.27480  0.02460  0.40140  Biso   1.000  H
  H90      1.0000 0.22520  0.02460  0.59860  Biso   1.000  H
  H91      1.0000 0.77480  0.52460  0.90140  Biso   1.000  H
  H92      1.0000 0.72520  0.52460  0.09860  Biso   1.000  H
  H93      1.0000 0.72520  0.97540  0.59860  Biso   1.000  H
  H94      1.0000 0.77480  0.97540  0.40140  Biso   1.000  H
  H95      1.0000 0.22520  0.47540  0.09860  Biso   1.000  H
  H96      1.0000 0.27480  0.47540  0.90140  Biso   1.000  H
  C129     1.0000 0.29780  0.27210  0.37456  Biso   1.000  C
  C130     1.0000 0.20220  0.27210  0.62544  Biso   1.000  C
  C131     1.0000 0.79780  0.77210  0.87456  Biso   1.000  C
  C132     1.0000 0.70220  0.77210  0.12544  Biso   1.000  C
  C133     1.0000 0.70220  0.72790  0.62544  Biso   1.000  C
  C134     1.0000 0.79780  0.72790  0.37456  Biso   1.000  C
  C135     1.0000 0.20220  0.22790  0.12544  Biso   1.000  C
  C136     1.0000 0.29780  0.22790  0.87456  Biso   1.000  C
  H97      1.0000 0.33360  0.53620  0.35720  Biso   1.000  H
  H98      1.0000 0.16640  0.53620  0.64280  Biso   1.000  H
  H99      1.0000 0.83360  0.03620  0.85720  Biso   1.000  H
  H100     1.0000 0.66640  0.03620  0.14280  Biso   1.000  H
  H101     1.0000 0.66640  0.46380  0.64280  Biso   1.000  H
  H102     1.0000 0.83360  0.46380  0.35720  Biso   1.000  H
  H103     1.0000 0.16640  0.96380  0.14280  Biso   1.000  H
  H104     1.0000 0.33360  0.96380  0.85720  Biso   1.000  H
  H105     1.0000 0.09860  0.36000  0.30900  Biso   1.000  H
  H106     1.0000 0.40140  0.36000  0.69100  Biso   1.000  H
  H107     1.0000 0.59860  0.86000  0.80900  Biso   1.000  H
  H108     1.0000 0.90140  0.86000  0.19100  Biso   1.000  H
  H109     1.0000 0.90140  0.64000  0.69100  Biso   1.000  H
  H110     1.0000 0.59860  0.64000  0.30900  Biso   1.000  H
  H111     1.0000 0.40140  0.14000  0.19100  Biso   1.000  H
  H112     1.0000 0.09860  0.14000  0.80900  Biso   1.000  H
  C137     1.0000 0.16240  0.31860  0.28663  Biso   1.000  C
  C138     1.0000 0.33760  0.31860  0.71337  Biso   1.000  C
  C139     1.0000 0.66240  0.81860  0.78663  Biso   1.000  C
  C140     1.0000 0.83760  0.81860  0.21337  Biso   1.000  C
  C141     1.0000 0.83760  0.68140  0.71337  Biso   1.000  C
  C142     1.0000 0.66240  0.68140  0.28663  Biso   1.000  C
  C143     1.0000 0.33760  0.18140  0.21337  Biso   1.000  C
  C144     1.0000 0.16240  0.18140  0.78663  Biso   1.000  C
  C145     1.0000 0.22960  0.58970  0.29560  Biso   1.000  C
  C146     1.0000 0.27040  0.58970  0.70440  Biso   1.000  C
  C147     1.0000 0.72960  0.08970  0.79560  Biso   1.000  C
  C148     1.0000 0.77040  0.08970  0.20440  Biso   1.000  C
  C149     1.0000 0.77040  0.41030  0.70440  Biso   1.000  C
  C150     1.0000 0.72960  0.41030  0.29560  Biso   1.000  C
  C151     1.0000 0.27040  0.91030  0.20440  Biso   1.000  C
  C152     1.0000 0.22960  0.91030  0.79560  Biso   1.000  C
  H113     1.0000 0.21670  0.84830  0.32440  Biso   1.000  H
  H114     1.0000 0.28330  0.84830  0.67560  Biso   1.000  H
  H115     1.0000 0.71670  0.34830  0.82440  Biso   1.000  H
  H116     1.0000 0.78330  0.34830  0.17560  Biso   1.000  H
  H117     1.0000 0.78330  0.15170  0.67560  Biso   1.000  H
  H118     1.0000 0.71670  0.15170  0.32440  Biso   1.000  H
  H119     1.0000 0.28330  0.65170  0.17560  Biso   1.000  H
  H120     1.0000 0.21670  0.65170  0.82440  Biso   1.000  H
  H121     1.0000 0.27050  0.23550  0.35420  Biso   1.000  H
  H122     1.0000 0.22950  0.23550  0.64580  Biso   1.000  H
  H123     1.0000 0.77050  0.73550  0.85420  Biso   1.000  H
  H124     1.0000 0.72950  0.73550  0.14580  Biso   1.000  H
  H125     1.0000 0.72950  0.76450  0.64580  Biso   1.000  H
  H126     1.0000 0.77050  0.76450  0.35420  Biso   1.000  H
  H127     1.0000 0.22950  0.26450  0.14580  Biso   1.000  H
  H128     1.0000 0.27050  0.26450  0.85420  Biso   1.000  H
  N9       1.0000 0.21037  0.39990  0.28152  Biso   1.000  N
  N10      1.0000 0.28963  0.39990  0.71848  Biso   1.000  N
  N11      1.0000 0.71037  0.89990  0.78152  Biso   1.000  N
  N12      1.0000 0.78963  0.89990  0.21848  Biso   1.000  N
  N13      1.0000 0.78963  0.60010  0.71848  Biso   1.000  N
  N14      1.0000 0.71037  0.60010  0.28152  Biso   1.000  N
  N15      1.0000 0.28963  0.10010  0.21848  Biso   1.000  N
  N16      1.0000 0.21037  0.10010  0.78152  Biso   1.000  N
  H129     1.0000 0.14800  0.17910  0.27660  Biso   1.000  H
  H130     1.0000 0.35200  0.17910  0.72340  Biso   1.000  H
  H131     1.0000 0.64800  0.67910  0.77660  Biso   1.000  H
  H132     1.0000 0.85200  0.67910  0.22340  Biso   1.000  H
  H133     1.0000 0.85200  0.82090  0.72340  Biso   1.000  H
  H134     1.0000 0.64800  0.82090  0.27660  Biso   1.000  H
  H135     1.0000 0.35200  0.32090  0.22340  Biso   1.000  H
  H136     1.0000 0.14800  0.32090  0.77660  Biso   1.000  H
  H137     1.0000 0.26430  0.64920  0.29270  Biso   1.000  H
  H138     1.0000 0.23570  0.64920  0.70730  Biso   1.000  H
  H139     1.0000 0.76430  0.14920  0.79270  Biso   1.000  H
  H140     1.0000 0.73570  0.14920  0.20730  Biso   1.000  H
  H141     1.0000 0.73570  0.35080  0.70730  Biso   1.000  H
  H142     1.0000 0.76430  0.35080  0.29270  Biso   1.000  H
  H143     1.0000 0.23570  0.85080  0.20730  Biso   1.000  H
  H144     1.0000 0.26430  0.85080  0.79270  Biso   1.000  H
  Cu5      1.0000 0.25000  0.25000  0.25000  Biso   1.000  Cu
  Cu6      1.0000 0.25000  0.25000  0.75000  Biso   1.000  Cu
  Cu7      1.0000 0.75000  0.75000  0.75000  Biso   1.000  Cu
  Cu8      1.0000 0.75000  0.75000  0.25000  Biso   1.000  Cu
  O21      1.0000 0.29496  0.05920  0.28630  Biso   1.000  O
  O22      1.0000 0.20504  0.05920  0.71370  Biso   1.000  O
  O23      1.0000 0.79496  0.55920  0.78630  Biso   1.000  O
  O24      1.0000 0.70504  0.55920  0.21370  Biso   1.000  O
  O25      1.0000 0.70504  0.94080  0.71370  Biso   1.000  O
  O26      1.0000 0.79496  0.94080  0.28630  Biso   1.000  O
  O27      1.0000 0.20504  0.44080  0.21370  Biso   1.000  O
  O28      1.0000 0.29496  0.44080  0.78630  Biso   1.000  O
  O29      1.0000 0.35880  0.31710  0.29342  Biso   1.000  O
  O30      1.0000 0.14120  0.31710  0.70658  Biso   1.000  O
  O31      1.0000 0.85880  0.81710  0.79342  Biso   1.000  O
  O32      1.0000 0.64120  0.81710  0.20658  Biso   1.000  O
  O33      1.0000 0.64120  0.68290  0.70658  Biso   1.000  O
  O34      1.0000 0.85880  0.68290  0.29342  Biso   1.000  O
  O35      1.0000 0.14120  0.18290  0.20658  Biso   1.000  O
  O36      1.0000 0.35880  0.18290  0.79342  Biso   1.000  O
  O37      1.0000 0.31630  0.61470  0.25720  Biso   1.000  O
  O38      1.0000 0.18370  0.61470  0.74280  Biso   1.000  O
  O39      1.0000 0.81630  0.11470  0.75720  Biso   1.000  O
  O40      1.0000 0.68370  0.11470  0.24280  Biso   1.000  O
  O41      1.0000 0.68370  0.38530  0.74280  Biso   1.000  O
  O42      1.0000 0.81630  0.38530  0.25720  Biso   1.000  O
  O43      1.0000 0.18370  0.88530  0.24280  Biso   1.000  O
  O44      1.0000 0.31630  0.88530  0.75720  Biso   1.000  O
  C153     1.0000 0.34380  0.13560  0.30064  Biso   1.000  C
  C154     1.0000 0.15620  0.13560  0.69936  Biso   1.000  C
  C155     1.0000 0.84380  0.63560  0.80064  Biso   1.000  C
  C156     1.0000 0.65620  0.63560  0.19936  Biso   1.000  C
  C157     1.0000 0.65620  0.86440  0.69936  Biso   1.000  C
  C158     1.0000 0.84380  0.86440  0.30064  Biso   1.000  C
  C159     1.0000 0.15620  0.36440  0.19936  Biso   1.000  C
  C160     1.0000 0.34380  0.36440  0.80064  Biso   1.000  C
  C161     1.0000 0.38160  0.98450  0.32865  Biso   1.000  C
  C162     1.0000 0.11840  0.98450  0.67135  Biso   1.000  C
  C163     1.0000 0.88160  0.48450  0.82865  Biso   1.000  C
  C164     1.0000 0.61840  0.48450  0.17135  Biso   1.000  C
  C165     1.0000 0.61840  0.01550  0.67135  Biso   1.000  C
  C166     1.0000 0.88160  0.01550  0.32865  Biso   1.000  C
  C167     1.0000 0.11840  0.51550  0.17135  Biso   1.000  C
  C168     1.0000 0.38160  0.51550  0.82865  Biso   1.000  C
  H145     1.0000 0.36070  0.95910  0.34540  Biso   1.000  H
  H146     1.0000 0.13930  0.95910  0.65460  Biso   1.000  H
  H147     1.0000 0.86070  0.45910  0.84540  Biso   1.000  H
  H148     1.0000 0.63930  0.45910  0.15460  Biso   1.000  H
  H149     1.0000 0.63930  0.04090  0.65460  Biso   1.000  H
  H150     1.0000 0.86070  0.04090  0.34540  Biso   1.000  H
  H151     1.0000 0.13930  0.54090  0.15460  Biso   1.000  H
  H152     1.0000 0.36070  0.54090  0.84540  Biso   1.000  H
  H153     1.0000 0.38670  0.83630  0.31910  Biso   1.000  H
  H154     1.0000 0.11330  0.83630  0.68090  Biso   1.000  H
  H155     1.0000 0.88670  0.33630  0.81910  Biso   1.000  H
  H156     1.0000 0.61330  0.33630  0.18090  Biso   1.000  H
  H157     1.0000 0.61330  0.16370  0.68090  Biso   1.000  H
  H158     1.0000 0.88670  0.16370  0.31910  Biso   1.000  H
  H159     1.0000 0.11330  0.66370  0.18090  Biso   1.000  H
  H160     1.0000 0.38670  0.66370  0.81910  Biso   1.000  H
  C169     1.0000 0.44000  0.08050  0.34561  Biso   1.000  C
  C170     1.0000 0.06000  0.08050  0.65439  Biso   1.000  C
  C171     1.0000 0.94000  0.58050  0.84561  Biso   1.000  C
  C172     1.0000 0.56000  0.58050  0.15439  Biso   1.000  C
  C173     1.0000 0.56000  0.91950  0.65439  Biso   1.000  C
  C174     1.0000 0.94000  0.91950  0.34561  Biso   1.000  C
  C175     1.0000 0.06000  0.41950  0.15439  Biso   1.000  C
  C176     1.0000 0.44000  0.41950  0.84561  Biso   1.000  C
  C177     1.0000 0.47440  0.92690  0.37340  Biso   1.000  C
  C178     1.0000 0.02560  0.92690  0.62660  Biso   1.000  C
  C179     1.0000 0.97440  0.42690  0.87340  Biso   1.000  C
  C180     1.0000 0.52560  0.42690  0.12660  Biso   1.000  C
  C181     1.0000 0.52560  0.07310  0.62660  Biso   1.000  C
  C182     1.0000 0.97440  0.07310  0.37340  Biso   1.000  C
  C183     1.0000 0.02560  0.57310  0.12660  Biso   1.000  C
  C184     1.0000 0.47440  0.57310  0.87340  Biso   1.000  C
  H161     1.0000 0.43540  0.22990  0.35490  Biso   1.000  H
  H162     1.0000 0.06460  0.22990  0.64510  Biso   1.000  H
  H163     1.0000 0.93540  0.72990  0.85490  Biso   1.000  H
  H164     1.0000 0.56460  0.72990  0.14510  Biso   1.000  H
  H165     1.0000 0.56460  0.77010  0.64510  Biso   1.000  H
  H166     1.0000 0.93540  0.77010  0.35490  Biso   1.000  H
  H167     1.0000 0.06460  0.27010  0.14510  Biso   1.000  H
  H168     1.0000 0.43540  0.27010  0.85490  Biso   1.000  H
  H169     1.0000 0.46170  0.10140  0.32910  Biso   1.000  H
  H170     1.0000 0.03830  0.10140  0.67090  Biso   1.000  H
  H171     1.0000 0.96170  0.60140  0.82910  Biso   1.000  H
  H172     1.0000 0.53830  0.60140  0.17090  Biso   1.000  H
  H173     1.0000 0.53830  0.89860  0.67090  Biso   1.000  H
  H174     1.0000 0.96170  0.89860  0.32910  Biso   1.000  H
  H175     1.0000 0.03830  0.39860  0.17090  Biso   1.000  H
  H176     1.0000 0.46170  0.39860  0.82910  Biso   1.000  H
  C185     1.0000 0.48480  0.99920  0.40571  Biso   1.000  C
  C186     1.0000 0.01520  0.99920  0.59429  Biso   1.000  C
  C187     1.0000 0.98480  0.49920  0.90571  Biso   1.000  C
  C188     1.0000 0.51520  0.49920  0.09429  Biso   1.000  C
  C189     1.0000 0.51520  0.00080  0.59429  Biso   1.000  C
  C190     1.0000 0.98480  0.00080  0.40571  Biso   1.000  C
  C191     1.0000 0.01520  0.50080  0.09429  Biso   1.000  C
  C192     1.0000 0.48480  0.50080  0.90571  Biso   1.000  C
  C193     1.0000 0.49620  0.72000  0.36750  Biso   1.000  C
  C194     1.0000 0.00380  0.72000  0.63250  Biso   1.000  C
  C195     1.0000 0.99620  0.22000  0.86750  Biso   1.000  C
  C196     1.0000 0.50380  0.22000  0.13250  Biso   1.000  C
  C197     1.0000 0.50380  0.28000  0.63250  Biso   1.000  C
  C198     1.0000 0.99620  0.28000  0.36750  Biso   1.000  C
  C199     1.0000 0.00380  0.78000  0.13250  Biso   1.000  C
  C200     1.0000 0.49620  0.78000  0.86750  Biso   1.000  C
  H177     1.0000 0.46890  0.13770  0.41020  Biso   1.000  H
  H178     1.0000 0.03110  0.13770  0.58980  Biso   1.000  H
  H179     1.0000 0.96890  0.63770  0.91020  Biso   1.000  H
  H180     1.0000 0.53110  0.63770  0.08980  Biso   1.000  H
  H181     1.0000 0.53110  0.86230  0.58980  Biso   1.000  H
  H182     1.0000 0.96890  0.86230  0.41020  Biso   1.000  H
  H183     1.0000 0.03110  0.36230  0.08980  Biso   1.000  H
  H184     1.0000 0.46890  0.36230  0.91020  Biso   1.000  H
  C201     1.0000 0.51820  0.87090  0.43163  Biso   1.000  C
  C202     1.0000 0.98180  0.87090  0.56837  Biso   1.000  C
  C203     1.0000 0.01820  0.37090  0.93163  Biso   1.000  C
  C204     1.0000 0.48180  0.37090  0.06837  Biso   1.000  C
  C205     1.0000 0.48180  0.12910  0.56837  Biso   1.000  C
  C206     1.0000 0.01820  0.12910  0.43163  Biso   1.000  C
  C207     1.0000 0.98180  0.62910  0.06837  Biso   1.000  C
  C208     1.0000 0.51820  0.62910  0.93163  Biso   1.000  C
  H185     1.0000 0.48840  0.66490  0.34550  Biso   1.000  H
  H186     1.0000 0.01160  0.66490  0.65450  Biso   1.000  H
  H187     1.0000 0.98840  0.16490  0.84550  Biso   1.000  H
  H188     1.0000 0.51160  0.16490  0.15450  Biso   1.000  H
  H189     1.0000 0.51160  0.33510  0.65450  Biso   1.000  H
  H190     1.0000 0.98840  0.33510  0.34550  Biso   1.000  H
  H191     1.0000 0.01160  0.83510  0.15450  Biso   1.000  H
  H192     1.0000 0.48840  0.83510  0.84550  Biso   1.000  H
  C209     1.0000 0.52970  0.59240  0.39398  Biso   1.000  C
  C210     1.0000 0.97030  0.59240  0.60602  Biso   1.000  C
  C211     1.0000 0.02970  0.09240  0.89398  Biso   1.000  C
  C212     1.0000 0.47030  0.09240  0.10602  Biso   1.000  C
  C213     1.0000 0.47030  0.40760  0.60602  Biso   1.000  C
  C214     1.0000 0.02970  0.40760  0.39398  Biso   1.000  C
  C215     1.0000 0.97030  0.90760  0.10602  Biso   1.000  C
  C216     1.0000 0.52970  0.90760  0.89398  Biso   1.000  C
  C217     1.0000 0.54100  0.66780  0.42586  Biso   1.000  C
  C218     1.0000 0.95900  0.66780  0.57414  Biso   1.000  C
  C219     1.0000 0.04100  0.16780  0.92586  Biso   1.000  C
  C220     1.0000 0.45900  0.16780  0.07414  Biso   1.000  C
  C221     1.0000 0.45900  0.33220  0.57414  Biso   1.000  C
  C222     1.0000 0.04100  0.33220  0.42586  Biso   1.000  C
  C223     1.0000 0.95900  0.83220  0.07414  Biso   1.000  C
  C224     1.0000 0.54100  0.83220  0.92586  Biso   1.000  C
  H193     1.0000 0.52540  0.92400  0.45370  Biso   1.000  H
  H194     1.0000 0.97460  0.92400  0.54630  Biso   1.000  H
  H195     1.0000 0.02540  0.42400  0.95370  Biso   1.000  H
  H196     1.0000 0.47460  0.42400  0.04630  Biso   1.000  H
  H197     1.0000 0.47460  0.07600  0.54630  Biso   1.000  H
  H198     1.0000 0.02540  0.07600  0.45370  Biso   1.000  H
  H199     1.0000 0.97460  0.57600  0.04630  Biso   1.000  H
  H200     1.0000 0.52540  0.57600  0.95370  Biso   1.000  H
  H201     1.0000 0.54480  0.45170  0.38970  Biso   1.000  H
  H202     1.0000 0.95520  0.45170  0.61030  Biso   1.000  H
  H203     1.0000 0.04480  0.95170  0.88970  Biso   1.000  H
  H204     1.0000 0.45520  0.95170  0.11030  Biso   1.000  H
  H205     1.0000 0.45520  0.54830  0.61030  Biso   1.000  H
  H206     1.0000 0.04480  0.54830  0.38970  Biso   1.000  H
  H207     1.0000 0.95520  0.04830  0.11030  Biso   1.000  H
  H208     1.0000 0.54480  0.04830  0.88970  Biso   1.000  H
  H209     1.0000 0.56420  0.58170  0.44370  Biso   1.000  H
  H210     1.0000 0.93580  0.58170  0.55630  Biso   1.000  H
  H211     1.0000 0.06420  0.08170  0.94370  Biso   1.000  H
  H212     1.0000 0.43580  0.08170  0.05630  Biso   1.000  H
  H213     1.0000 0.43580  0.41830  0.55630  Biso   1.000  H
  H214     1.0000 0.06420  0.41830  0.44370  Biso   1.000  H
  H215     1.0000 0.93580  0.91830  0.05630  Biso   1.000  H
  H216     1.0000 0.56420  0.91830  0.94370  Biso   1.000  H
  O45      1.0000 0.99060  0.29200  0.25080  Biso   1.000  O
  O46      1.0000 0.50940  0.29200  0.74920  Biso   1.000  O
  O47      1.0000 0.49060  0.79200  0.75080  Biso   1.000  O
  O48      1.0000 0.00940  0.79200  0.24920  Biso   1.000  O
  O49      1.0000 0.00940  0.70800  0.74920  Biso   1.000  O
  O50      1.0000 0.49060  0.70800  0.25080  Biso   1.000  O
  O51      1.0000 0.50940  0.20800  0.24920  Biso   1.000  O
  O52      1.0000 0.99060  0.20800  0.75080  Biso   1.000  O
  O53      1.0000 0.00130  0.05300  0.25540  Biso   1.000  O
  O54      1.0000 0.49870  0.05300  0.74460  Biso   1.000  O
  O55      1.0000 0.50130  0.55300  0.75540  Biso   1.000  O
  O56      1.0000 0.99870  0.55300  0.24460  Biso   1.000  O
  O57      1.0000 0.99870  0.94700  0.74460  Biso   1.000  O
  O58      1.0000 0.50130  0.94700  0.25540  Biso   1.000  O
  O59      1.0000 0.49870  0.44700  0.24460  Biso   1.000  O
  O60      1.0000 0.00130  0.44700  0.75540  Biso   1.000  O
  H217     1.0000 0.28650  0.29190  0.49530  Biso   1.000  H
  H218     1.0000 0.21350  0.29190  0.50470  Biso   1.000  H
  H219     1.0000 0.78650  0.79190  0.99530  Biso   1.000  H
  H220     1.0000 0.71350  0.79190  0.00470  Biso   1.000  H
  H221     1.0000 0.71350  0.70810  0.50470  Biso   1.000  H
  H222     1.0000 0.78650  0.70810  0.49530  Biso   1.000  H
  H223     1.0000 0.21350  0.20810  0.00470  Biso   1.000  H
  H224     1.0000 0.28650  0.20810  0.99530  Biso   1.000  H
