data_image0
_cell_length_a       41.327
_cell_length_b       9.984
_cell_length_c       14.46
_cell_angle_alpha    90
_cell_angle_beta     96.217
_cell_angle_gamma    90

_symmetry_space_group_name_H-M    "P 1"
_symmetry_int_tables_number       1

loop_
  _symmetry_equiv_pos_as_xyz
  'x, y, z'

loop_
  _atom_site_label
  _atom_site_occupancy
  _atom_site_fract_x
  _atom_site_fract_y
  _atom_site_fract_z
  _atom_site_thermal_displace_type
  _atom_site_B_iso_or_equiv
  _atom_site_type_symbol
  Cu1      1.0000 0.10719  0.93640  0.72200  Biso   1.000  Cu
  Cu2      1.0000 0.89281  0.93640  0.27800  Biso   1.000  Cu
  Cu3      1.0000 0.60719  0.43640  0.72200  Biso   1.000  Cu
  Cu4      1.0000 0.39281  0.43640  0.27800  Biso   1.000  Cu
  Cu5      1.0000 0.15733  0.06939  0.05069  Biso   1.000  Cu
  Cu6      1.0000 0.84267  0.06939  0.94931  Biso   1.000  Cu
  Cu7      1.0000 0.65733  0.56939  0.05069  Biso   1.000  Cu
  Cu8      1.0000 0.34267  0.56939  0.94931  Biso   1.000  Cu
  Cu9      1.0000 0.11344  0.45721  0.21820  Biso   1.000  Cu
  Cu10     1.0000 0.88656  0.45721  0.78180  Biso   1.000  Cu
  Cu11     1.0000 0.61344  0.95721  0.21820  Biso   1.000  Cu
  Cu12     1.0000 0.38656  0.95721  0.78180  Biso   1.000  Cu
  Cu13     1.0000 0.15433  0.32716  0.55937  Biso   1.000  Cu
  Cu14     1.0000 0.84567  0.32716  0.44063  Biso   1.000  Cu
  Cu15     1.0000 0.65433  0.82716  0.55937  Biso   1.000  Cu
  Cu16     1.0000 0.34567  0.82716  0.44063  Biso   1.000  Cu
  O1       1.0000 0.11875  0.99650  0.85140  Biso   1.000  O
  O2       1.0000 0.88125  0.99650  0.14860  Biso   1.000  O
  O3       1.0000 0.61875  0.49650  0.85140  Biso   1.000  O
  O4       1.0000 0.38125  0.49650  0.14860  Biso   1.000  O
  O5       1.0000 0.12209  0.15020  0.96350  Biso   1.000  O
  O6       1.0000 0.87791  0.15020  0.03650  Biso   1.000  O
  O7       1.0000 0.62209  0.65020  0.96350  Biso   1.000  O
  O8       1.0000 0.37791  0.65020  0.03650  Biso   1.000  O
  O9       1.0000 0.12250  0.10760  0.67760  Biso   1.000  O
  O10      1.0000 0.87750  0.10760  0.32240  Biso   1.000  O
  O11      1.0000 0.62250  0.60760  0.67760  Biso   1.000  O
  O12      1.0000 0.37750  0.60760  0.32240  Biso   1.000  O
  O13      1.0000 0.12090  0.32630  0.64660  Biso   1.000  O
  O14      1.0000 0.87910  0.32630  0.35340  Biso   1.000  O
  O15      1.0000 0.62090  0.82630  0.64660  Biso   1.000  O
  O16      1.0000 0.37910  0.82630  0.35340  Biso   1.000  O
  O17      1.0000 0.12697  0.06780  0.14710  Biso   1.000  O
  O18      1.0000 0.87303  0.06780  0.85290  Biso   1.000  O
  O19      1.0000 0.62697  0.56780  0.14710  Biso   1.000  O
  O20      1.0000 0.37303  0.56780  0.85290  Biso   1.000  O
  O21      1.0000 0.12780  0.28740  0.16930  Biso   1.000  O
  O22      1.0000 0.87220  0.28740  0.83070  Biso   1.000  O
  O23      1.0000 0.62780  0.78740  0.16930  Biso   1.000  O
  O24      1.0000 0.37220  0.78740  0.83070  Biso   1.000  O
  O25      1.0000 0.12173  0.25320  0.46400  Biso   1.000  O
  O26      1.0000 0.87827  0.25320  0.53600  Biso   1.000  O
  O27      1.0000 0.62173  0.75320  0.46400  Biso   1.000  O
  O28      1.0000 0.37827  0.75320  0.53600  Biso   1.000  O
  O29      1.0000 0.12477  0.39320  0.34560  Biso   1.000  O
  O30      1.0000 0.87523  0.39320  0.65440  Biso   1.000  O
  O31      1.0000 0.62477  0.89320  0.34560  Biso   1.000  O
  O32      1.0000 0.37523  0.89320  0.65440  Biso   1.000  O
  N1       1.0000 0.05093  0.95160  0.69330  Biso   1.000  N
  N2       1.0000 0.94907  0.95160  0.30670  Biso   1.000  N
  N3       1.0000 0.55093  0.45160  0.69330  Biso   1.000  N
  N4       1.0000 0.44907  0.45160  0.30670  Biso   1.000  N
  N5       1.0000 0.10256  0.85940  0.59200  Biso   1.000  N
  N6       1.0000 0.89744  0.85940  0.40800  Biso   1.000  N
  N7       1.0000 0.60256  0.35940  0.59200  Biso   1.000  N
  N8       1.0000 0.39744  0.35940  0.40800  Biso   1.000  N
  N9       1.0000 0.09549  0.75070  0.76130  Biso   1.000  N
  N10      1.0000 0.90451  0.75070  0.23870  Biso   1.000  N
  N11      1.0000 0.59549  0.25070  0.76130  Biso   1.000  N
  N12      1.0000 0.40451  0.25070  0.23870  Biso   1.000  N
  N13      1.0000 0.18657  0.03720  0.94960  Biso   1.000  N
  N14      1.0000 0.81343  0.03720  0.05040  Biso   1.000  N
  N15      1.0000 0.68657  0.53720  0.94960  Biso   1.000  N
  N16      1.0000 0.31343  0.53720  0.05040  Biso   1.000  N
  N17      1.0000 0.18957  0.94950  0.12980  Biso   1.000  N
  N18      1.0000 0.81043  0.94950  0.87020  Biso   1.000  N
  N19      1.0000 0.68957  0.44950  0.12980  Biso   1.000  N
  N20      1.0000 0.31043  0.44950  0.87020  Biso   1.000  N
  N21      1.0000 0.19265  0.22810  0.09480  Biso   1.000  N
  N22      1.0000 0.80735  0.22810  0.90520  Biso   1.000  N
  N23      1.0000 0.69265  0.72810  0.09480  Biso   1.000  N
  N24      1.0000 0.30735  0.72810  0.90520  Biso   1.000  N
  N25      1.0000 0.10910  0.54490  0.09060  Biso   1.000  N
  N26      1.0000 0.89090  0.54490  0.90940  Biso   1.000  N
  N27      1.0000 0.60910  0.04490  0.09060  Biso   1.000  N
  N28      1.0000 0.39090  0.04490  0.90940  Biso   1.000  N
  N29      1.0000 0.05793  0.45480  0.19150  Biso   1.000  N
  N30      1.0000 0.94207  0.45480  0.80850  Biso   1.000  N
  N31      1.0000 0.55793  0.95480  0.19150  Biso   1.000  N
  N32      1.0000 0.44207  0.95480  0.80850  Biso   1.000  N
  N33      1.0000 0.10529  0.64500  0.26380  Biso   1.000  N
  N34      1.0000 0.89471  0.64500  0.73620  Biso   1.000  N
  N35      1.0000 0.60529  0.14500  0.26380  Biso   1.000  N
  N36      1.0000 0.39471  0.14500  0.73620  Biso   1.000  N
  N37      1.0000 0.18629  0.38210  0.46970  Biso   1.000  N
  N38      1.0000 0.81371  0.38210  0.53030  Biso   1.000  N
  N39      1.0000 0.68629  0.88210  0.46970  Biso   1.000  N
  N40      1.0000 0.31371  0.88210  0.53030  Biso   1.000  N
  N41      1.0000 0.18801  0.15940  0.58950  Biso   1.000  N
  N42      1.0000 0.81199  0.15940  0.41050  Biso   1.000  N
  N43      1.0000 0.68801  0.65940  0.58950  Biso   1.000  N
  N44      1.0000 0.31199  0.65940  0.41050  Biso   1.000  N
  N45      1.0000 0.18511  0.42610  0.65570  Biso   1.000  N
  N46      1.0000 0.81489  0.42610  0.34430  Biso   1.000  N
  N47      1.0000 0.68511  0.92610  0.65570  Biso   1.000  N
  N48      1.0000 0.31489  0.92610  0.34430  Biso   1.000  N
  C1       1.0000 0.04760  0.96100  0.59130  Biso   1.000  C
  C2       1.0000 0.95240  0.96100  0.40870  Biso   1.000  C
  C3       1.0000 0.54760  0.46100  0.59130  Biso   1.000  C
  C4       1.0000 0.45240  0.46100  0.40870  Biso   1.000  C
  H1       1.0000 0.02530  0.94020  0.56820  Biso   1.000  H
  H2       1.0000 0.97470  0.94020  0.43180  Biso   1.000  H
  H3       1.0000 0.52530  0.44020  0.56820  Biso   1.000  H
  H4       1.0000 0.47470  0.44020  0.43180  Biso   1.000  H
  H5       1.0000 0.05160  0.05300  0.57430  Biso   1.000  H
  H6       1.0000 0.94840  0.05300  0.42570  Biso   1.000  H
  H7       1.0000 0.55160  0.55300  0.57430  Biso   1.000  H
  H8       1.0000 0.44840  0.55300  0.42570  Biso   1.000  H
  C5       1.0000 0.06870  0.87550  0.54490  Biso   1.000  C
  C6       1.0000 0.93130  0.87550  0.45510  Biso   1.000  C
  C7       1.0000 0.56870  0.37550  0.54490  Biso   1.000  C
  C8       1.0000 0.43130  0.37550  0.45510  Biso   1.000  C
  H9       1.0000 0.07010  0.91070  0.48300  Biso   1.000  H
  H10      1.0000 0.92990  0.91070  0.51700  Biso   1.000  H
  H11      1.0000 0.57010  0.41070  0.48300  Biso   1.000  H
  H12      1.0000 0.42990  0.41070  0.51700  Biso   1.000  H
  H13      1.0000 0.05880  0.78750  0.53800  Biso   1.000  H
  H14      1.0000 0.94120  0.78750  0.46200  Biso   1.000  H
  H15      1.0000 0.55880  0.28750  0.53800  Biso   1.000  H
  H16      1.0000 0.44120  0.28750  0.46200  Biso   1.000  H
  C9       1.0000 0.11130  0.70930  0.60410  Biso   1.000  C
  C10      1.0000 0.88870  0.70930  0.39590  Biso   1.000  C
  C11      1.0000 0.61130  0.20930  0.60410  Biso   1.000  C
  C12      1.0000 0.38870  0.20930  0.39590  Biso   1.000  C
  H17      1.0000 0.10310  0.66060  0.54840  Biso   1.000  H
  H18      1.0000 0.89690  0.66060  0.45160  Biso   1.000  H
  H19      1.0000 0.60310  0.16060  0.54840  Biso   1.000  H
  H20      1.0000 0.39690  0.16060  0.45160  Biso   1.000  H
  H21      1.0000 0.13480  0.69900  0.61290  Biso   1.000  H
  H22      1.0000 0.86520  0.69900  0.38710  Biso   1.000  H
  H23      1.0000 0.63480  0.19900  0.61290  Biso   1.000  H
  H24      1.0000 0.36520  0.19900  0.38710  Biso   1.000  H
  C13      1.0000 0.09740  0.65490  0.68320  Biso   1.000  C
  C14      1.0000 0.90260  0.65490  0.31680  Biso   1.000  C
  C15      1.0000 0.59740  0.15490  0.68320  Biso   1.000  C
  C16      1.0000 0.40260  0.15490  0.31680  Biso   1.000  C
  H25      1.0000 0.11020  0.57820  0.70620  Biso   1.000  H
  H26      1.0000 0.88980  0.57820  0.29380  Biso   1.000  H
  H27      1.0000 0.61020  0.07820  0.70620  Biso   1.000  H
  H28      1.0000 0.38980  0.07820  0.29380  Biso   1.000  H
  H29      1.0000 0.07560  0.62320  0.66280  Biso   1.000  H
  H30      1.0000 0.92440  0.62320  0.33720  Biso   1.000  H
  H31      1.0000 0.57560  0.12320  0.66280  Biso   1.000  H
  H32      1.0000 0.42440  0.12320  0.33720  Biso   1.000  H
  C17      1.0000 0.06330  0.75810  0.79540  Biso   1.000  C
  C18      1.0000 0.93670  0.75810  0.20460  Biso   1.000  C
  C19      1.0000 0.56330  0.25810  0.79540  Biso   1.000  C
  C20      1.0000 0.43670  0.25810  0.20460  Biso   1.000  C
  H33      1.0000 0.06540  0.80500  0.85450  Biso   1.000  H
  H34      1.0000 0.93460  0.80500  0.14550  Biso   1.000  H
  H35      1.0000 0.56540  0.30500  0.85450  Biso   1.000  H
  H36      1.0000 0.43460  0.30500  0.14550  Biso   1.000  H
  H37      1.0000 0.05590  0.66790  0.80630  Biso   1.000  H
  H38      1.0000 0.94410  0.66790  0.19370  Biso   1.000  H
  H39      1.0000 0.55590  0.16790  0.80630  Biso   1.000  H
  H40      1.0000 0.44410  0.16790  0.19370  Biso   1.000  H
  C21      1.0000 0.03880  0.82600  0.73150  Biso   1.000  C
  C22      1.0000 0.96120  0.82600  0.26850  Biso   1.000  C
  C23      1.0000 0.53880  0.32600  0.73150  Biso   1.000  C
  C24      1.0000 0.46120  0.32600  0.26850  Biso   1.000  C
  H41      1.0000 0.03170  0.76610  0.68050  Biso   1.000  H
  H42      1.0000 0.96830  0.76610  0.31950  Biso   1.000  H
  H43      1.0000 0.53170  0.26610  0.68050  Biso   1.000  H
  H44      1.0000 0.46830  0.26610  0.31950  Biso   1.000  H
  H45      1.0000 0.02000  0.84620  0.76400  Biso   1.000  H
  H46      1.0000 0.98000  0.84620  0.23600  Biso   1.000  H
  H47      1.0000 0.52000  0.34620  0.76400  Biso   1.000  H
  H48      1.0000 0.48000  0.34620  0.23600  Biso   1.000  H
  C25      1.0000 0.11010  0.10640  0.88510  Biso   1.000  C
  C26      1.0000 0.88990  0.10640  0.11490  Biso   1.000  C
  C27      1.0000 0.61010  0.60640  0.88510  Biso   1.000  C
  C28      1.0000 0.38990  0.60640  0.11490  Biso   1.000  C
  C29      1.0000 0.08375  0.18810  0.83600  Biso   1.000  C
  C30      1.0000 0.91625  0.18810  0.16400  Biso   1.000  C
  C31      1.0000 0.58375  0.68810  0.83600  Biso   1.000  C
  C32      1.0000 0.41625  0.68810  0.16400  Biso   1.000  C
  C33      1.0000 0.05670  0.21200  0.88290  Biso   1.000  C
  C34      1.0000 0.94330  0.21200  0.11710  Biso   1.000  C
  C35      1.0000 0.55670  0.71200  0.88290  Biso   1.000  C
  C36      1.0000 0.44330  0.71200  0.11710  Biso   1.000  C
  H49      1.0000 0.05600  0.17530  0.94180  Biso   1.000  H
  H50      1.0000 0.94400  0.17530  0.05820  Biso   1.000  H
  H51      1.0000 0.55600  0.67530  0.94180  Biso   1.000  H
  H52      1.0000 0.44400  0.67530  0.05820  Biso   1.000  H
  C37      1.0000 0.03120  0.28640  0.84600  Biso   1.000  C
  C38      1.0000 0.96880  0.28640  0.15400  Biso   1.000  C
  C39      1.0000 0.53120  0.78640  0.84600  Biso   1.000  C
  C40      1.0000 0.46880  0.78640  0.15400  Biso   1.000  C
  H53      1.0000 0.01370  0.30140  0.87980  Biso   1.000  H
  H54      1.0000 0.98630  0.30140  0.12020  Biso   1.000  H
  H55      1.0000 0.51370  0.80140  0.87980  Biso   1.000  H
  H56      1.0000 0.48630  0.80140  0.12020  Biso   1.000  H
  C41      1.0000 0.03120  0.34060  0.75780  Biso   1.000  C
  C42      1.0000 0.96880  0.34060  0.24220  Biso   1.000  C
  C43      1.0000 0.53120  0.84060  0.75780  Biso   1.000  C
  C44      1.0000 0.46880  0.84060  0.24220  Biso   1.000  C
  H57      1.0000 0.01340  0.38950  0.73150  Biso   1.000  H
  H58      1.0000 0.98660  0.38950  0.26850  Biso   1.000  H
  H59      1.0000 0.51340  0.88950  0.73150  Biso   1.000  H
  H60      1.0000 0.48660  0.88950  0.26850  Biso   1.000  H
  C45      1.0000 0.05806  0.32150  0.70880  Biso   1.000  C
  C46      1.0000 0.94194  0.32150  0.29120  Biso   1.000  C
  C47      1.0000 0.55806  0.82150  0.70880  Biso   1.000  C
  C48      1.0000 0.44194  0.82150  0.29120  Biso   1.000  C
  H61      1.0000 0.05850  0.36110  0.65070  Biso   1.000  H
  H62      1.0000 0.94150  0.36110  0.34930  Biso   1.000  H
  H63      1.0000 0.55850  0.86110  0.65070  Biso   1.000  H
  H64      1.0000 0.44150  0.86110  0.34930  Biso   1.000  H
  C49      1.0000 0.08410  0.24440  0.74540  Biso   1.000  C
  C50      1.0000 0.91590  0.24440  0.25460  Biso   1.000  C
  C51      1.0000 0.58410  0.74440  0.74540  Biso   1.000  C
  C52      1.0000 0.41590  0.74440  0.25460  Biso   1.000  C
  C53      1.0000 0.11130  0.22300  0.68780  Biso   1.000  C
  C54      1.0000 0.88870  0.22300  0.31220  Biso   1.000  C
  C55      1.0000 0.61130  0.72300  0.68780  Biso   1.000  C
  C56      1.0000 0.38870  0.72300  0.31220  Biso   1.000  C
  C57      1.0000 0.21220  0.93150  0.97860  Biso   1.000  C
  C58      1.0000 0.78780  0.93150  0.02140  Biso   1.000  C
  C59      1.0000 0.71220  0.43150  0.97860  Biso   1.000  C
  C60      1.0000 0.28780  0.43150  0.02140  Biso   1.000  C
  H65      1.0000 0.21420  0.87020  0.92750  Biso   1.000  H
  H66      1.0000 0.78580  0.87020  0.07250  Biso   1.000  H
  H67      1.0000 0.71420  0.37020  0.92750  Biso   1.000  H
  H68      1.0000 0.28580  0.37020  0.07250  Biso   1.000  H
  H69      1.0000 0.23320  0.97390  0.99490  Biso   1.000  H
  H70      1.0000 0.76680  0.97390  0.00510  Biso   1.000  H
  H71      1.0000 0.73320  0.47390  0.99490  Biso   1.000  H
  H72      1.0000 0.26680  0.47390  0.00510  Biso   1.000  H
  C61      1.0000 0.20210  0.85500  0.06220  Biso   1.000  C
  C62      1.0000 0.79790  0.85500  0.93780  Biso   1.000  C
  C63      1.0000 0.70210  0.35500  0.06220  Biso   1.000  C
  C64      1.0000 0.29790  0.35500  0.93780  Biso   1.000  C
  H73      1.0000 0.18530  0.79040  0.04150  Biso   1.000  H
  H74      1.0000 0.81470  0.79040  0.95850  Biso   1.000  H
  H75      1.0000 0.68530  0.29040  0.04150  Biso   1.000  H
  H76      1.0000 0.31470  0.29040  0.95850  Biso   1.000  H
  H77      1.0000 0.22070  0.80640  0.09240  Biso   1.000  H
  H78      1.0000 0.77930  0.80640  0.90760  Biso   1.000  H
  H79      1.0000 0.72070  0.30640  0.09240  Biso   1.000  H
  H80      1.0000 0.27930  0.30640  0.90760  Biso   1.000  H
  C65      1.0000 0.21570  0.02940  0.18060  Biso   1.000  C
  C66      1.0000 0.78430  0.02940  0.81940  Biso   1.000  C
  C67      1.0000 0.71570  0.52940  0.18060  Biso   1.000  C
  C68      1.0000 0.28430  0.52940  0.81940  Biso   1.000  C
  H81      1.0000 0.23550  0.01820  0.15070  Biso   1.000  H
  H82      1.0000 0.76450  0.01820  0.84930  Biso   1.000  H
  H83      1.0000 0.73550  0.51820  0.15070  Biso   1.000  H
  H84      1.0000 0.26450  0.51820  0.84930  Biso   1.000  H
  H85      1.0000 0.21990  0.99510  0.24350  Biso   1.000  H
  H86      1.0000 0.78010  0.99510  0.75650  Biso   1.000  H
  H87      1.0000 0.71990  0.49510  0.24350  Biso   1.000  H
  H88      1.0000 0.28010  0.49510  0.75650  Biso   1.000  H
  C69      1.0000 0.20790  0.17580  0.18470  Biso   1.000  C
  C70      1.0000 0.79210  0.17580  0.81530  Biso   1.000  C
  C71      1.0000 0.70790  0.67580  0.18470  Biso   1.000  C
  C72      1.0000 0.29210  0.67580  0.81530  Biso   1.000  C
  H89      1.0000 0.19330  0.19050  0.23190  Biso   1.000  H
  H90      1.0000 0.80670  0.19050  0.76810  Biso   1.000  H
  H91      1.0000 0.69330  0.69050  0.23190  Biso   1.000  H
  H92      1.0000 0.30670  0.69050  0.76810  Biso   1.000  H
  H93      1.0000 0.22780  0.22520  0.20280  Biso   1.000  H
  H94      1.0000 0.77220  0.22520  0.79720  Biso   1.000  H
  H95      1.0000 0.72780  0.72520  0.20280  Biso   1.000  H
  H96      1.0000 0.27220  0.72520  0.79720  Biso   1.000  H
  C73      1.0000 0.21550  0.23270  0.02230  Biso   1.000  C
  C74      1.0000 0.78450  0.23270  0.97770  Biso   1.000  C
  C75      1.0000 0.71550  0.73270  0.02230  Biso   1.000  C
  C76      1.0000 0.28450  0.73270  0.97770  Biso   1.000  C
  H97      1.0000 0.23550  0.18720  0.04510  Biso   1.000  H
  H98      1.0000 0.76450  0.18720  0.95490  Biso   1.000  H
  H99      1.0000 0.73550  0.68720  0.04510  Biso   1.000  H
  H100     1.0000 0.26450  0.68720  0.95490  Biso   1.000  H
  H101     1.0000 0.22070  0.32530  0.01020  Biso   1.000  H
  H102     1.0000 0.77930  0.32530  0.98980  Biso   1.000  H
  H103     1.0000 0.72070  0.82530  0.01020  Biso   1.000  H
  H104     1.0000 0.27930  0.82530  0.98980  Biso   1.000  H
  C77      1.0000 0.20100  0.16690  0.93190  Biso   1.000  C
  C78      1.0000 0.79900  0.16690  0.06810  Biso   1.000  C
  C79      1.0000 0.70100  0.66690  0.93190  Biso   1.000  C
  C80      1.0000 0.29900  0.66690  0.06810  Biso   1.000  C
  H105     1.0000 0.18450  0.22510  0.90070  Biso   1.000  H
  H106     1.0000 0.81550  0.22510  0.09930  Biso   1.000  H
  H107     1.0000 0.68450  0.72510  0.90070  Biso   1.000  H
  H108     1.0000 0.31550  0.72510  0.09930  Biso   1.000  H
  H109     1.0000 0.21790  0.15490  0.89120  Biso   1.000  H
  H110     1.0000 0.78210  0.15490  0.10880  Biso   1.000  H
  H111     1.0000 0.71790  0.65490  0.89120  Biso   1.000  H
  H112     1.0000 0.28210  0.65490  0.10880  Biso   1.000  H
  C81      1.0000 0.11647  0.17140  0.18310  Biso   1.000  C
  C82      1.0000 0.88353  0.17140  0.81690  Biso   1.000  C
  C83      1.0000 0.61647  0.67140  0.18310  Biso   1.000  C
  C84      1.0000 0.38353  0.67140  0.81690  Biso   1.000  C
  C85      1.0000 0.08888  0.15240  0.24070  Biso   1.000  C
  C86      1.0000 0.91112  0.15240  0.75930  Biso   1.000  C
  C87      1.0000 0.58888  0.65240  0.24070  Biso   1.000  C
  C88      1.0000 0.41112  0.65240  0.75930  Biso   1.000  C
  C89      1.0000 0.06250  0.07570  0.20010  Biso   1.000  C
  C90      1.0000 0.93750  0.07570  0.79990  Biso   1.000  C
  C91      1.0000 0.56250  0.57570  0.20010  Biso   1.000  C
  C92      1.0000 0.43750  0.57570  0.79990  Biso   1.000  C
  H113     1.0000 0.06380  0.03330  0.14340  Biso   1.000  H
  H114     1.0000 0.93620  0.03330  0.85660  Biso   1.000  H
  H115     1.0000 0.56380  0.53330  0.14340  Biso   1.000  H
  H116     1.0000 0.43620  0.53330  0.85660  Biso   1.000  H
  C93      1.0000 0.03510  0.06340  0.24320  Biso   1.000  C
  C94      1.0000 0.96490  0.06340  0.75680  Biso   1.000  C
  C95      1.0000 0.53510  0.56340  0.24320  Biso   1.000  C
  C96      1.0000 0.46490  0.56340  0.75680  Biso   1.000  C
  H117     1.0000 0.01740  0.01760  0.21360  Biso   1.000  H
  H118     1.0000 0.98260  0.01760  0.78640  Biso   1.000  H
  H119     1.0000 0.51740  0.51760  0.21360  Biso   1.000  H
  H120     1.0000 0.48260  0.51760  0.78640  Biso   1.000  H
  C97      1.0000 0.03310  0.11770  0.33040  Biso   1.000  C
  C98      1.0000 0.96690  0.11770  0.66960  Biso   1.000  C
  C99      1.0000 0.53310  0.61770  0.33040  Biso   1.000  C
  C100     1.0000 0.46690  0.61770  0.66960  Biso   1.000  C
  H121     1.0000 0.01440  0.10690  0.35990  Biso   1.000  H
  H122     1.0000 0.98560  0.10690  0.64010  Biso   1.000  H
  H123     1.0000 0.51440  0.60690  0.35990  Biso   1.000  H
  H124     1.0000 0.48560  0.60690  0.64010  Biso   1.000  H
  C101     1.0000 0.05900  0.18730  0.37220  Biso   1.000  C
  C102     1.0000 0.94100  0.18730  0.62780  Biso   1.000  C
  C103     1.0000 0.55900  0.68730  0.37220  Biso   1.000  C
  C104     1.0000 0.44100  0.68730  0.62780  Biso   1.000  C
  H125     1.0000 0.05800  0.22200  0.43150  Biso   1.000  H
  H126     1.0000 0.94200  0.22200  0.56850  Biso   1.000  H
  H127     1.0000 0.55800  0.72200  0.43150  Biso   1.000  H
  H128     1.0000 0.44200  0.72200  0.56850  Biso   1.000  H
  C105     1.0000 0.08653  0.20760  0.32920  Biso   1.000  C
  C106     1.0000 0.91347  0.20760  0.67080  Biso   1.000  C
  C107     1.0000 0.58653  0.70760  0.32920  Biso   1.000  C
  C108     1.0000 0.41347  0.70760  0.67080  Biso   1.000  C
  C109     1.0000 0.11346  0.29110  0.38140  Biso   1.000  C
  C110     1.0000 0.88654  0.29110  0.61860  Biso   1.000  C
  C111     1.0000 0.61346  0.79110  0.38140  Biso   1.000  C
  C112     1.0000 0.38654  0.79110  0.61860  Biso   1.000  C
  C113     1.0000 0.07620  0.52600  0.04570  Biso   1.000  C
  C114     1.0000 0.92380  0.52600  0.95430  Biso   1.000  C
  C115     1.0000 0.57620  0.02600  0.04570  Biso   1.000  C
  C116     1.0000 0.42380  0.02600  0.95430  Biso   1.000  C
  H129     1.0000 0.06740  0.61400  0.03010  Biso   1.000  H
  H130     1.0000 0.93260  0.61400  0.96990  Biso   1.000  H
  H131     1.0000 0.56740  0.11400  0.03010  Biso   1.000  H
  H132     1.0000 0.43260  0.11400  0.96990  Biso   1.000  H
  H133     1.0000 0.07800  0.47970  0.98740  Biso   1.000  H
  H134     1.0000 0.92200  0.47970  0.01260  Biso   1.000  H
  H135     1.0000 0.57800  0.97970  0.98740  Biso   1.000  H
  H136     1.0000 0.42200  0.97970  0.01260  Biso   1.000  H
  C117     1.0000 0.05250  0.45480  0.09330  Biso   1.000  C
  C118     1.0000 0.94750  0.45480  0.90670  Biso   1.000  C
  C119     1.0000 0.55250  0.95480  0.09330  Biso   1.000  C
  C120     1.0000 0.44750  0.95480  0.90670  Biso   1.000  C
  H137     1.0000 0.03130  0.49370  0.07500  Biso   1.000  H
  H138     1.0000 0.96870  0.49370  0.92500  Biso   1.000  H
  H139     1.0000 0.53130  0.99370  0.07500  Biso   1.000  H
  H140     1.0000 0.46870  0.99370  0.92500  Biso   1.000  H
  H141     1.0000 0.05190  0.36260  0.07200  Biso   1.000  H
  H142     1.0000 0.94810  0.36260  0.92800  Biso   1.000  H
  H143     1.0000 0.55190  0.86260  0.07200  Biso   1.000  H
  H144     1.0000 0.44810  0.86260  0.92800  Biso   1.000  H
  C121     1.0000 0.04730  0.57780  0.23770  Biso   1.000  C
  C122     1.0000 0.95270  0.57780  0.76230  Biso   1.000  C
  C123     1.0000 0.54730  0.07780  0.23770  Biso   1.000  C
  C124     1.0000 0.45270  0.07780  0.76230  Biso   1.000  C
  H145     1.0000 0.03860  0.64040  0.19010  Biso   1.000  H
  H146     1.0000 0.96140  0.64040  0.80990  Biso   1.000  H
  H147     1.0000 0.53860  0.14040  0.19010  Biso   1.000  H
  H148     1.0000 0.46140  0.14040  0.80990  Biso   1.000  H
  H149     1.0000 0.02990  0.55440  0.27450  Biso   1.000  H
  H150     1.0000 0.97010  0.55440  0.72550  Biso   1.000  H
  H151     1.0000 0.52990  0.05440  0.27450  Biso   1.000  H
  H152     1.0000 0.47010  0.05440  0.72550  Biso   1.000  H
  C125     1.0000 0.07220  0.64260  0.29580  Biso   1.000  C
  C126     1.0000 0.92780  0.64260  0.70420  Biso   1.000  C
  C127     1.0000 0.57220  0.14260  0.29580  Biso   1.000  C
  C128     1.0000 0.42780  0.14260  0.70420  Biso   1.000  C
  H153     1.0000 0.07390  0.59960  0.35630  Biso   1.000  H
  H154     1.0000 0.92610  0.59960  0.64370  Biso   1.000  H
  H155     1.0000 0.57390  0.09960  0.35630  Biso   1.000  H
  H156     1.0000 0.42610  0.09960  0.64370  Biso   1.000  H
  H157     1.0000 0.06550  0.73450  0.30440  Biso   1.000  H
  H158     1.0000 0.93450  0.73450  0.69560  Biso   1.000  H
  H159     1.0000 0.56550  0.23450  0.30440  Biso   1.000  H
  H160     1.0000 0.43450  0.23450  0.69560  Biso   1.000  H
  C129     1.0000 0.10900  0.74130  0.19100  Biso   1.000  C
  C130     1.0000 0.89100  0.74130  0.80900  Biso   1.000  C
  C131     1.0000 0.60900  0.24130  0.19100  Biso   1.000  C
  C132     1.0000 0.39100  0.24130  0.80900  Biso   1.000  C
  H161     1.0000 0.08870  0.79050  0.17750  Biso   1.000  H
  H162     1.0000 0.91130  0.79050  0.82250  Biso   1.000  H
  H163     1.0000 0.58870  0.29050  0.17750  Biso   1.000  H
  H164     1.0000 0.41130  0.29050  0.82250  Biso   1.000  H
  H165     1.0000 0.12580  0.80500  0.21290  Biso   1.000  H
  H166     1.0000 0.87420  0.80500  0.78710  Biso   1.000  H
  H167     1.0000 0.62580  0.30500  0.21290  Biso   1.000  H
  H168     1.0000 0.37420  0.30500  0.78710  Biso   1.000  H
  C133     1.0000 0.11740  0.67910  0.10590  Biso   1.000  C
  C134     1.0000 0.88260  0.67910  0.89410  Biso   1.000  C
  C135     1.0000 0.61740  0.17910  0.10590  Biso   1.000  C
  C136     1.0000 0.38260  0.17910  0.89410  Biso   1.000  C
  H169     1.0000 0.10710  0.73050  0.05390  Biso   1.000  H
  H170     1.0000 0.89290  0.73050  0.94610  Biso   1.000  H
  H171     1.0000 0.60710  0.23050  0.05390  Biso   1.000  H
  H172     1.0000 0.39290  0.23050  0.94610  Biso   1.000  H
  H173     1.0000 0.14070  0.68730  0.10490  Biso   1.000  H
  H174     1.0000 0.85930  0.68730  0.89510  Biso   1.000  H
  H175     1.0000 0.64070  0.18730  0.10490  Biso   1.000  H
  H176     1.0000 0.35930  0.18730  0.89510  Biso   1.000  H
  C137     1.0000 0.20050  0.25330  0.44200  Biso   1.000  C
  C138     1.0000 0.79950  0.25330  0.55800  Biso   1.000  C
  C139     1.0000 0.70050  0.75330  0.44200  Biso   1.000  C
  C140     1.0000 0.29950  0.75330  0.55800  Biso   1.000  C
  H177     1.0000 0.21850  0.27200  0.40640  Biso   1.000  H
  H178     1.0000 0.78150  0.27200  0.59360  Biso   1.000  H
  H179     1.0000 0.71850  0.77200  0.40640  Biso   1.000  H
  H180     1.0000 0.28150  0.77200  0.59360  Biso   1.000  H
  H181     1.0000 0.18420  0.20460  0.40200  Biso   1.000  H
  H182     1.0000 0.81580  0.20460  0.59800  Biso   1.000  H
  H183     1.0000 0.68420  0.70460  0.40200  Biso   1.000  H
  H184     1.0000 0.31580  0.70460  0.59800  Biso   1.000  H
  C141     1.0000 0.21240  0.16570  0.52490  Biso   1.000  C
  C142     1.0000 0.78760  0.16570  0.47510  Biso   1.000  C
  C143     1.0000 0.71240  0.66570  0.52490  Biso   1.000  C
  C144     1.0000 0.28760  0.66570  0.47510  Biso   1.000  C
  H185     1.0000 0.21690  0.07620  0.50360  Biso   1.000  H
  H186     1.0000 0.78310  0.07620  0.49640  Biso   1.000  H
  H187     1.0000 0.71690  0.57620  0.50360  Biso   1.000  H
  H188     1.0000 0.28310  0.57620  0.49640  Biso   1.000  H
  H189     1.0000 0.23240  0.20240  0.55610  Biso   1.000  H
  H190     1.0000 0.76760  0.20240  0.44390  Biso   1.000  H
  H191     1.0000 0.73240  0.70240  0.55610  Biso   1.000  H
  H192     1.0000 0.26760  0.70240  0.44390  Biso   1.000  H
  C145     1.0000 0.20000  0.18990  0.68980  Biso   1.000  C
  C146     1.0000 0.80000  0.18990  0.31020  Biso   1.000  C
  C147     1.0000 0.70000  0.68990  0.68980  Biso   1.000  C
  C148     1.0000 0.30000  0.68990  0.31020  Biso   1.000  C
  H193     1.0000 0.18280  0.17080  0.72850  Biso   1.000  H
  H194     1.0000 0.81720  0.17080  0.27150  Biso   1.000  H
  H195     1.0000 0.68280  0.67080  0.72850  Biso   1.000  H
  H196     1.0000 0.31720  0.67080  0.27150  Biso   1.000  H
  H197     1.0000 0.21830  0.13260  0.70980  Biso   1.000  H
  H198     1.0000 0.78170  0.13260  0.29020  Biso   1.000  H
  H199     1.0000 0.71830  0.63260  0.70980  Biso   1.000  H
  H200     1.0000 0.28170  0.63260  0.29020  Biso   1.000  H
  C149     1.0000 0.21000  0.33310  0.70190  Biso   1.000  C
  C150     1.0000 0.79000  0.33310  0.29810  Biso   1.000  C
  C151     1.0000 0.71000  0.83310  0.70190  Biso   1.000  C
  C152     1.0000 0.29000  0.83310  0.29810  Biso   1.000  C
  H201     1.0000 0.21340  0.35380  0.76780  Biso   1.000  H
  H202     1.0000 0.78660  0.35380  0.23220  Biso   1.000  H
  H203     1.0000 0.71340  0.85380  0.76780  Biso   1.000  H
  H204     1.0000 0.28660  0.85380  0.23220  Biso   1.000  H
  H205     1.0000 0.23040  0.34660  0.67610  Biso   1.000  H
  H206     1.0000 0.76960  0.34660  0.32390  Biso   1.000  H
  H207     1.0000 0.73040  0.84660  0.67610  Biso   1.000  H
  H208     1.0000 0.26960  0.84660  0.32390  Biso   1.000  H
  C153     1.0000 0.19900  0.53330  0.60350  Biso   1.000  C
  C154     1.0000 0.80100  0.53330  0.39650  Biso   1.000  C
  C155     1.0000 0.69900  0.03330  0.60350  Biso   1.000  C
  C156     1.0000 0.30100  0.03330  0.39650  Biso   1.000  C
  H209     1.0000 0.21700  0.57480  0.64180  Biso   1.000  H
  H210     1.0000 0.78300  0.57480  0.35820  Biso   1.000  H
  H211     1.0000 0.71700  0.07480  0.64180  Biso   1.000  H
  H212     1.0000 0.28300  0.07480  0.35820  Biso   1.000  H
  H213     1.0000 0.18260  0.60130  0.58700  Biso   1.000  H
  H214     1.0000 0.81740  0.60130  0.41300  Biso   1.000  H
  H215     1.0000 0.68260  0.10130  0.58700  Biso   1.000  H
  H216     1.0000 0.31740  0.10130  0.41300  Biso   1.000  H
  C157     1.0000 0.21100  0.47740  0.51610  Biso   1.000  C
  C158     1.0000 0.78900  0.47740  0.48390  Biso   1.000  C
  C159     1.0000 0.71100  0.97740  0.51610  Biso   1.000  C
  C160     1.0000 0.28900  0.97740  0.48390  Biso   1.000  C
  H217     1.0000 0.21460  0.55000  0.47390  Biso   1.000  H
  H218     1.0000 0.78540  0.55000  0.52610  Biso   1.000  H
  H219     1.0000 0.71460  0.05000  0.47390  Biso   1.000  H
  H220     1.0000 0.28540  0.05000  0.52610  Biso   1.000  H
  H221     1.0000 0.23150  0.43110  0.53180  Biso   1.000  H
  H222     1.0000 0.76850  0.43110  0.46820  Biso   1.000  H
  H223     1.0000 0.73150  0.93110  0.53180  Biso   1.000  H
  H224     1.0000 0.26850  0.93110  0.46820  Biso   1.000  H
  Cl1      1.0000 0.16773  0.54860  0.89818  Biso   1.000  Cl
  Cl2      1.0000 0.83227  0.54860  0.10182  Biso   1.000  Cl
  Cl3      1.0000 0.66773  0.04860  0.89818  Biso   1.000  Cl
  Cl4      1.0000 0.33227  0.04860  0.10182  Biso   1.000  Cl
  O33      1.0000 0.19930  0.56650  0.87970  Biso   1.000  O
  O34      1.0000 0.80070  0.56650  0.12030  Biso   1.000  O
  O35      1.0000 0.69930  0.06650  0.87970  Biso   1.000  O
  O36      1.0000 0.30070  0.06650  0.12030  Biso   1.000  O
  O37      1.0000 0.15230  0.46590  0.82890  Biso   1.000  O
  O38      1.0000 0.84770  0.46590  0.17110  Biso   1.000  O
  O39      1.0000 0.65230  0.96590  0.82890  Biso   1.000  O
  O40      1.0000 0.34770  0.96590  0.17110  Biso   1.000  O
  O41      1.0000 0.15140  0.67340  0.90210  Biso   1.000  O
  O42      1.0000 0.84860  0.67340  0.09790  Biso   1.000  O
  O43      1.0000 0.65140  0.17340  0.90210  Biso   1.000  O
  O44      1.0000 0.34860  0.17340  0.09790  Biso   1.000  O
  O45      1.0000 0.16710  0.48770  0.98460  Biso   1.000  O
  O46      1.0000 0.83290  0.48770  0.01540  Biso   1.000  O
  O47      1.0000 0.66710  0.98770  0.98460  Biso   1.000  O
  O48      1.0000 0.33290  0.98770  0.01540  Biso   1.000  O
  Cl5      1.0000 0.17194  0.84470  0.42078  Biso   1.000  Cl
  Cl6      1.0000 0.82806  0.84470  0.57922  Biso   1.000  Cl
  Cl7      1.0000 0.67194  0.34470  0.42078  Biso   1.000  Cl
  Cl8      1.0000 0.32806  0.34470  0.57922  Biso   1.000  Cl
  O49      1.0000 0.15950  0.91810  0.49330  Biso   1.000  O
  O50      1.0000 0.84050  0.91810  0.50670  Biso   1.000  O
  O51      1.0000 0.65950  0.41810  0.49330  Biso   1.000  O
  O52      1.0000 0.34050  0.41810  0.50670  Biso   1.000  O
  O53      1.0000 0.16670  0.91430  0.33600  Biso   1.000  O
  O54      1.0000 0.83330  0.91430  0.66400  Biso   1.000  O
  O55      1.0000 0.66670  0.41430  0.33600  Biso   1.000  O
  O56      1.0000 0.33330  0.41430  0.66400  Biso   1.000  O
  O57      1.0000 0.20617  0.83300  0.44690  Biso   1.000  O
  O58      1.0000 0.79383  0.83300  0.55310  Biso   1.000  O
  O59      1.0000 0.70617  0.33300  0.44690  Biso   1.000  O
  O60      1.0000 0.29383  0.33300  0.55310  Biso   1.000  O
  O61      1.0000 0.15810  0.71430  0.41450  Biso   1.000  O
  O62      1.0000 0.84190  0.71430  0.58550  Biso   1.000  O
  O63      1.0000 0.65810  0.21430  0.41450  Biso   1.000  O
  O64      1.0000 0.34190  0.21430  0.58550  Biso   1.000  O
  Cl9      1.0000 0.21045  0.55190  0.22951  Biso   1.000  Cl
  Cl10     1.0000 0.78955  0.55190  0.77049  Biso   1.000  Cl
  Cl11     1.0000 0.71045  0.05190  0.22951  Biso   1.000  Cl
  Cl12     1.0000 0.28955  0.05190  0.77049  Biso   1.000  Cl
  O65      1.0000 0.20970  0.69200  0.24230  Biso   1.000  O
  O66      1.0000 0.79030  0.69200  0.75770  Biso   1.000  O
  O67      1.0000 0.70970  0.19200  0.24230  Biso   1.000  O
  O68      1.0000 0.29030  0.19200  0.75770  Biso   1.000  O
  O69      1.0000 0.17956  0.49640  0.21230  Biso   1.000  O
  O70      1.0000 0.82044  0.49640  0.78770  Biso   1.000  O
  O71      1.0000 0.67956  0.99640  0.21230  Biso   1.000  O
  O72      1.0000 0.32044  0.99640  0.78770  Biso   1.000  O
  O73      1.0000 0.22550  0.49770  0.31150  Biso   1.000  O
  O74      1.0000 0.77450  0.49770  0.68850  Biso   1.000  O
  O75      1.0000 0.72550  0.99770  0.31150  Biso   1.000  O
  O76      1.0000 0.27450  0.99770  0.68850  Biso   1.000  O
  O77      1.0000 0.22910  0.52040  0.15640  Biso   1.000  O
  O78      1.0000 0.77090  0.52040  0.84360  Biso   1.000  O
  O79      1.0000 0.72910  0.02040  0.15640  Biso   1.000  O
  O80      1.0000 0.27090  0.02040  0.84360  Biso   1.000  O
  Cl13     1.0000 0.00000  0.85450  0.00000  Biso   1.000  Cl
  Cl14     1.0000 0.50000  0.35450  0.00000  Biso   1.000  Cl
  O81      1.0000 0.99570  0.76740  0.07180  Biso   1.000  O
  O82      1.0000 0.00430  0.76740  0.92820  Biso   1.000  O
  O83      1.0000 0.49570  0.26740  0.07180  Biso   1.000  O
  O84      1.0000 0.50430  0.26740  0.92820  Biso   1.000  O
  O85      1.0000 0.03640  0.86210  0.01410  Biso   1.000  O
  O86      1.0000 0.96360  0.86210  0.98590  Biso   1.000  O
  O87      1.0000 0.53640  0.36210  0.01410  Biso   1.000  O
  O88      1.0000 0.46360  0.36210  0.98590  Biso   1.000  O
  Cl15     1.0000 0.00000  0.52430  0.50000  Biso   1.000  Cl
  Cl16     1.0000 0.50000  0.02430  0.50000  Biso   1.000  Cl
  O89      1.0000 0.03220  0.53900  0.46600  Biso   1.000  O
  O90      1.0000 0.96780  0.53900  0.53400  Biso   1.000  O
  O91      1.0000 0.53220  0.03900  0.46600  Biso   1.000  O
  O92      1.0000 0.46780  0.03900  0.53400  Biso   1.000  O
  O93      1.0000 0.00740  0.57320  0.58890  Biso   1.000  O
  O94      1.0000 0.99260  0.57320  0.41110  Biso   1.000  O
  O95      1.0000 0.50740  0.07320  0.58890  Biso   1.000  O
  O96      1.0000 0.49260  0.07320  0.41110  Biso   1.000  O
  O97      1.0000 0.16960  0.86530  0.75720  Biso   1.000  O
  O98      1.0000 0.83040  0.86530  0.24280  Biso   1.000  O
  O99      1.0000 0.66960  0.36530  0.75720  Biso   1.000  O
  O100     1.0000 0.33040  0.36530  0.24280  Biso   1.000  O
  O101     1.0000 0.27940  0.34260  0.34590  Biso   1.000  O
  O102     1.0000 0.72060  0.34260  0.65410  Biso   1.000  O
  O103     1.0000 0.77940  0.84260  0.34590  Biso   1.000  O
  O104     1.0000 0.22060  0.84260  0.65410  Biso   1.000  O
  O105     1.0000 0.00000  0.99830  0.00000  Biso   1.000  O
  O106     1.0000 0.50000  0.49830  0.00000  Biso   1.000  O
  O107     1.0000 0.00000  0.37760  0.50000  Biso   1.000  O
  O108     1.0000 0.50000  0.87760  0.50000  Biso   1.000  O
