data_image0
_cell_length_a       8.1496
_cell_length_b       9.7211
_cell_length_c       11.9472
_cell_angle_alpha    106.811
_cell_angle_beta     98.943
_cell_angle_gamma    110.429

_symmetry_space_group_name_H-M    "P 1"
_symmetry_int_tables_number       1

loop_
  _symmetry_equiv_pos_as_xyz
  'x, y, z'

loop_
  _atom_site_label
  _atom_site_occupancy
  _atom_site_fract_x
  _atom_site_fract_y
  _atom_site_fract_z
  _atom_site_thermal_displace_type
  _atom_site_B_iso_or_equiv
  _atom_site_type_symbol
  Cu1      1.0000 0.47330  0.15570  0.20390  Biso   1.000  Cu
  Cu2      1.0000 0.52670  0.84430  0.79610  Biso   1.000  Cu
  V1       1.0000 0.99110  0.48150  0.95500  Biso   1.000  V
  V2       1.0000 0.00890  0.51850  0.04500  Biso   1.000  V
  V3       1.0000 0.79390  0.04270  0.12670  Biso   1.000  V
  V4       1.0000 0.20610  0.95730  0.87330  Biso   1.000  V
  P1       1.0000 0.64400  0.17910  0.98370  Biso   1.000  P
  P2       1.0000 0.35600  0.82090  0.01630  Biso   1.000  P
  P3       1.0000 0.85180  0.74760  0.94660  Biso   1.000  P
  P4       1.0000 0.14820  0.25240  0.05340  Biso   1.000  P
  O1       1.0000 0.66610  0.19600  0.12100  Biso   1.000  O
  O2       1.0000 0.33390  0.80400  0.87900  Biso   1.000  O
  O3       1.0000 0.55020  0.85650  0.08260  Biso   1.000  O
  O4       1.0000 0.44980  0.14350  0.91740  Biso   1.000  O
  O5       1.0000 0.77810  0.32670  0.97570  Biso   1.000  O
  O6       1.0000 0.22190  0.67330  0.02430  Biso   1.000  O
  O7       1.0000 0.30910  0.96510  0.06520  Biso   1.000  O
  O8       1.0000 0.69090  0.03490  0.93480  Biso   1.000  O
  O9       1.0000 0.83990  0.08490  0.27150  Biso   1.000  O
  O10      1.0000 0.16010  0.91510  0.72850  Biso   1.000  O
  O11      1.0000 0.96540  0.42700  0.81240  Biso   1.000  O
  O12      1.0000 0.03460  0.57300  0.18760  Biso   1.000  O
  O13      1.0000 0.85320  0.61180  0.98610  Biso   1.000  O
  O14      1.0000 0.14680  0.38820  0.01390  Biso   1.000  O
  O15      1.0000 0.02230  0.21400  0.13100  Biso   1.000  O
  O16      1.0000 0.97770  0.78600  0.86900  Biso   1.000  O
  O17      1.0000 0.35040  0.31590  0.14120  Biso   1.000  O
  O18      1.0000 0.64960  0.68410  0.85880  Biso   1.000  O
  O19      1.0000 0.88660  0.88900  0.05770  Biso   1.000  O
  O20      1.0000 0.11340  0.11100  0.94230  Biso   1.000  O
  O21      1.0000 0.39810  0.41170  0.85350  Biso   1.000  O
  O22      1.0000 0.60190  0.58830  0.14650  Biso   1.000  O
  N1       1.0000 0.63130  0.33710  0.35860  Biso   1.000  N
  N2       1.0000 0.36870  0.66290  0.64140  Biso   1.000  N
  N3       1.0000 0.34010  0.08570  0.31790  Biso   1.000  N
  N4       1.0000 0.65990  0.91430  0.68210  Biso   1.000  N
  C1       1.0000 0.77150  0.46790  0.36800  Biso   1.000  C
  C2       1.0000 0.22850  0.53210  0.63200  Biso   1.000  C
  C3       1.0000 0.86750  0.59230  0.47890  Biso   1.000  C
  C4       1.0000 0.13250  0.40770  0.52110  Biso   1.000  C
  C5       1.0000 0.81670  0.58240  0.58280  Biso   1.000  C
  C6       1.0000 0.18330  0.41760  0.41720  Biso   1.000  C
  C7       1.0000 0.67400  0.44610  0.57370  Biso   1.000  C
  C8       1.0000 0.32600  0.55390  0.42630  Biso   1.000  C
  C9       1.0000 0.58300  0.32510  0.46030  Biso   1.000  C
  C10      1.0000 0.41700  0.67490  0.53970  Biso   1.000  C
  C11      1.0000 0.42440  0.17780  0.43770  Biso   1.000  C
  C12      1.0000 0.57560  0.82220  0.56230  Biso   1.000  C
  C13      1.0000 0.36010  0.13370  0.52810  Biso   1.000  C
  C14      1.0000 0.63990  0.86630  0.47190  Biso   1.000  C
  C15      1.0000 0.20540  0.99510  0.49550  Biso   1.000  C
  C16      1.0000 0.79460  0.00490  0.50450  Biso   1.000  C
  C17      1.0000 0.11700  0.90450  0.37230  Biso   1.000  C
  C18      1.0000 0.88300  0.09550  0.62770  Biso   1.000  C
  C19      1.0000 0.19040  0.95310  0.28600  Biso   1.000  C
  C20      1.0000 0.80960  0.04690  0.71400  Biso   1.000  C
  H1       1.0000 0.40800  0.37800  0.13400  Biso   1.000  H
  H2       1.0000 0.59200  0.62200  0.86600  Biso   1.000  H
  H3       1.0000 0.80530  0.47530  0.29840  Biso   1.000  H
  H4       1.0000 0.19470  0.52470  0.70160  Biso   1.000  H
  H5       1.0000 0.96510  0.68160  0.48360  Biso   1.000  H
  H6       1.0000 0.03490  0.31840  0.51640  Biso   1.000  H
  H7       1.0000 0.87750  0.66600  0.65760  Biso   1.000  H
  H8       1.0000 0.12250  0.33400  0.34240  Biso   1.000  H
  H9       1.0000 0.63960  0.43600  0.64260  Biso   1.000  H
  H10      1.0000 0.36040  0.56400  0.35740  Biso   1.000  H
  H11      1.0000 0.42020  0.19640  0.60990  Biso   1.000  H
  H12      1.0000 0.57980  0.80360  0.39010  Biso   1.000  H
  H13      1.0000 0.16100  0.96290  0.55510  Biso   1.000  H
  H14      1.0000 0.83900  0.03710  0.44490  Biso   1.000  H
  H15      1.0000 0.01050  0.81280  0.34830  Biso   1.000  H
  H16      1.0000 0.98950  0.18720  0.65170  Biso   1.000  H
  H17      1.0000 0.13350  0.89140  0.20370  Biso   1.000  H
  H18      1.0000 0.86650  0.10860  0.79630  Biso   1.000  H
  H19      1.0000 0.42700  0.34300  0.86300  Biso   1.000  H
  H20      1.0000 0.57300  0.65700  0.13700  Biso   1.000  H
  H21      1.0000 0.32500  0.41500  0.88900  Biso   1.000  H
  H22      1.0000 0.67500  0.58500  0.11100  Biso   1.000  H
