data_image0
_cell_length_a       7.3434
_cell_length_b       9.51
_cell_length_c       13.3533
_cell_angle_alpha    85.57
_cell_angle_beta     82.47
_cell_angle_gamma    87.594

_symmetry_space_group_name_H-M    "P 1"
_symmetry_int_tables_number       1

loop_
  _symmetry_equiv_pos_as_xyz
  'x, y, z'

loop_
  _atom_site_label
  _atom_site_occupancy
  _atom_site_fract_x
  _atom_site_fract_y
  _atom_site_fract_z
  _atom_site_thermal_displace_type
  _atom_site_B_iso_or_equiv
  _atom_site_type_symbol
  Hg1      1.0000 0.55188  0.11966  0.83030  Biso   1.000  Hg
  Hg2      1.0000 0.44812  0.88034  0.16970  Biso   1.000  Hg
  Cu1      1.0000 0.09470  0.22654  0.70468  Biso   1.000  Cu
  Cu2      1.0000 0.90530  0.77346  0.29532  Biso   1.000  Cu
  Cl1      1.0000 0.23434  0.01880  0.75075  Biso   1.000  Cl
  Cl2      1.0000 0.76566  0.98120  0.24925  Biso   1.000  Cl
  Cl3      1.0000 0.80404  0.13998  0.65294  Biso   1.000  Cl
  Cl4      1.0000 0.19596  0.86002  0.34706  Biso   1.000  Cl
  N1       1.0000 0.42070  0.43860  0.79690  Biso   1.000  N
  N2       1.0000 0.57930  0.56140  0.20310  Biso   1.000  N
  N3       1.0000 0.67060  0.81980  0.92260  Biso   1.000  N
  N4       1.0000 0.32940  0.18020  0.07740  Biso   1.000  N
  N5       1.0000 0.97850  0.27680  0.84420  Biso   1.000  N
  N6       1.0000 0.02150  0.72320  0.15580  Biso   1.000  N
  N7       1.0000 0.07170  0.43060  0.68310  Biso   1.000  N
  N8       1.0000 0.92830  0.56940  0.31690  Biso   1.000  N
  N9       1.0000 0.23080  0.25540  0.56330  Biso   1.000  N
  N10      1.0000 0.76920  0.74460  0.43670  Biso   1.000  N
  C1       1.0000 0.46690  0.32630  0.80990  Biso   1.000  C
  C2       1.0000 0.53310  0.67370  0.19010  Biso   1.000  C
  C3       1.0000 0.62860  0.92470  0.88910  Biso   1.000  C
  C4       1.0000 0.37140  0.07530  0.11090  Biso   1.000  C
  C5       1.0000 0.93580  0.18680  0.92470  Biso   1.000  C
  C6       1.0000 0.06420  0.81320  0.07530  Biso   1.000  C
  C7       1.0000 0.83430  0.22920  0.01310  Biso   1.000  C
  C8       1.0000 0.16570  0.77080  0.98690  Biso   1.000  C
  C9       1.0000 0.77600  0.36540  0.01750  Biso   1.000  C
  C10      1.0000 0.22400  0.63460  0.98250  Biso   1.000  C
  C11      1.0000 0.82010  0.46160  0.93560  Biso   1.000  C
  C12      1.0000 0.17990  0.53840  0.06440  Biso   1.000  C
  C13      1.0000 0.92450  0.41410  0.84980  Biso   1.000  C
  C14      1.0000 0.07550  0.58590  0.15020  Biso   1.000  C
  C15      1.0000 0.98940  0.50420  0.75830  Biso   1.000  C
  C16      1.0000 0.01060  0.49580  0.24170  Biso   1.000  C
  C17      1.0000 0.97740  0.65040  0.74700  Biso   1.000  C
  C18      1.0000 0.02260  0.34960  0.25300  Biso   1.000  C
  C19      1.0000 0.05520  0.71650  0.65600  Biso   1.000  C
  C20      1.0000 0.94480  0.28350  0.34400  Biso   1.000  C
  C21      1.0000 0.14300  0.63890  0.57970  Biso   1.000  C
  C22      1.0000 0.85700  0.36110  0.42030  Biso   1.000  C
  C23      1.0000 0.15200  0.49360  0.59570  Biso   1.000  C
  C24      1.0000 0.84800  0.50640  0.40430  Biso   1.000  C
  C25      1.0000 0.24210  0.39190  0.52660  Biso   1.000  C
  C26      1.0000 0.75790  0.60810  0.47340  Biso   1.000  C
  C27      1.0000 0.33370  0.42840  0.43110  Biso   1.000  C
  C28      1.0000 0.66630  0.57160  0.56890  Biso   1.000  C
  C29      1.0000 0.41170  0.32260  0.37290  Biso   1.000  C
  C30      1.0000 0.58830  0.67740  0.62710  Biso   1.000  C
  C31      1.0000 0.39520  0.18350  0.40920  Biso   1.000  C
  C32      1.0000 0.60480  0.81650  0.59080  Biso   1.000  C
  C33      1.0000 0.30440  0.15500  0.50620  Biso   1.000  C
  C34      1.0000 0.69560  0.84500  0.49380  Biso   1.000  C
  H1       1.0000 0.97730  0.09120  0.92100  Biso   1.000  H
  H2       1.0000 0.02270  0.90880  0.07900  Biso   1.000  H
  H3       1.0000 0.80580  0.16310  0.06950  Biso   1.000  H
  H4       1.0000 0.19420  0.83690  0.93050  Biso   1.000  H
  H5       1.0000 0.70360  0.39540  0.07680  Biso   1.000  H
  H6       1.0000 0.29640  0.60460  0.92320  Biso   1.000  H
  H7       1.0000 0.78120  0.55800  0.93770  Biso   1.000  H
  H8       1.0000 0.21880  0.44200  0.06230  Biso   1.000  H
  H9       1.0000 0.91850  0.70340  0.80020  Biso   1.000  H
  H10      1.0000 0.08150  0.29660  0.19980  Biso   1.000  H
  H11      1.0000 0.04720  0.81650  0.64580  Biso   1.000  H
  H12      1.0000 0.95280  0.18350  0.35420  Biso   1.000  H
  H13      1.0000 0.19760  0.68400  0.51770  Biso   1.000  H
  H14      1.0000 0.80240  0.31600  0.48230  Biso   1.000  H
  H15      1.0000 0.34210  0.52470  0.40670  Biso   1.000  H
  H16      1.0000 0.65790  0.47530  0.59330  Biso   1.000  H
  H17      1.0000 0.47700  0.34590  0.30790  Biso   1.000  H
  H18      1.0000 0.52300  0.65410  0.69210  Biso   1.000  H
  H19      1.0000 0.44560  0.10950  0.36920  Biso   1.000  H
  H20      1.0000 0.55440  0.89050  0.63080  Biso   1.000  H
  H21      1.0000 0.29990  0.05500  0.51090  Biso   1.000  H
  H22      1.0000 0.70010  0.94500  0.48910  Biso   1.000  H
