data_image0
_cell_length_a       24.813
_cell_length_b       10.982
_cell_length_c       19.813
_cell_angle_alpha    90
_cell_angle_beta     109.88
_cell_angle_gamma    90

_symmetry_space_group_name_H-M    "P 1"
_symmetry_int_tables_number       1

loop_
  _symmetry_equiv_pos_as_xyz
  'x, y, z'

loop_
  _atom_site_label
  _atom_site_occupancy
  _atom_site_fract_x
  _atom_site_fract_y
  _atom_site_fract_z
  _atom_site_thermal_displace_type
  _atom_site_B_iso_or_equiv
  _atom_site_type_symbol
  Cu1      1.0000 0.27684  0.07638  0.11239  Biso   1.000  Cu
  Cu2      1.0000 0.77684  0.57638  0.11239  Biso   1.000  Cu
  Cu3      1.0000 0.72316  0.07638  0.38761  Biso   1.000  Cu
  Cu4      1.0000 0.22316  0.57638  0.38761  Biso   1.000  Cu
  Cu5      1.0000 0.72316  0.92362  0.88761  Biso   1.000  Cu
  Cu6      1.0000 0.22316  0.42362  0.88761  Biso   1.000  Cu
  Cu7      1.0000 0.27684  0.92362  0.61239  Biso   1.000  Cu
  Cu8      1.0000 0.77684  0.42362  0.61239  Biso   1.000  Cu
  O1       1.0000 0.32567  0.16250  0.19400  Biso   1.000  O
  O2       1.0000 0.82567  0.66250  0.19400  Biso   1.000  O
  O3       1.0000 0.67433  0.16250  0.30600  Biso   1.000  O
  O4       1.0000 0.17433  0.66250  0.30600  Biso   1.000  O
  O5       1.0000 0.67433  0.83750  0.80600  Biso   1.000  O
  O6       1.0000 0.17433  0.33750  0.80600  Biso   1.000  O
  O7       1.0000 0.32567  0.83750  0.69400  Biso   1.000  O
  O8       1.0000 0.82567  0.33750  0.69400  Biso   1.000  O
  N1       1.0000 0.20876  0.17260  0.11370  Biso   1.000  N
  N2       1.0000 0.70876  0.67260  0.11370  Biso   1.000  N
  N3       1.0000 0.79124  0.17260  0.38630  Biso   1.000  N
  N4       1.0000 0.29124  0.67260  0.38630  Biso   1.000  N
  N5       1.0000 0.79124  0.82740  0.88630  Biso   1.000  N
  N6       1.0000 0.29124  0.32740  0.88630  Biso   1.000  N
  N7       1.0000 0.20876  0.82740  0.61370  Biso   1.000  N
  N8       1.0000 0.70876  0.32740  0.61370  Biso   1.000  N
  N9       1.0000 0.11690  0.23580  0.09020  Biso   1.000  N
  N10      1.0000 0.61690  0.73580  0.09020  Biso   1.000  N
  N11      1.0000 0.88310  0.23580  0.40980  Biso   1.000  N
  N12      1.0000 0.38310  0.73580  0.40980  Biso   1.000  N
  N13      1.0000 0.88310  0.76420  0.90980  Biso   1.000  N
  N14      1.0000 0.38310  0.26420  0.90980  Biso   1.000  N
  N15      1.0000 0.11690  0.76420  0.59020  Biso   1.000  N
  N16      1.0000 0.61690  0.26420  0.59020  Biso   1.000  N
  O9       1.0000 0.06386  0.24890  0.06060  Biso   1.000  O
  O10      1.0000 0.56386  0.74890  0.06060  Biso   1.000  O
  O11      1.0000 0.93614  0.24890  0.43940  Biso   1.000  O
  O12      1.0000 0.43614  0.74890  0.43940  Biso   1.000  O
  O13      1.0000 0.93614  0.75110  0.93940  Biso   1.000  O
  O14      1.0000 0.43614  0.25110  0.93940  Biso   1.000  O
  O15      1.0000 0.06386  0.75110  0.56060  Biso   1.000  O
  O16      1.0000 0.56386  0.25110  0.56060  Biso   1.000  O
  C1       1.0000 0.31400  0.23570  0.23550  Biso   1.000  C
  C2       1.0000 0.81400  0.73570  0.23550  Biso   1.000  C
  C3       1.0000 0.68600  0.23570  0.26450  Biso   1.000  C
  C4       1.0000 0.18600  0.73570  0.26450  Biso   1.000  C
  C5       1.0000 0.68600  0.76430  0.76450  Biso   1.000  C
  C6       1.0000 0.18600  0.26430  0.76450  Biso   1.000  C
  C7       1.0000 0.31400  0.76430  0.73550  Biso   1.000  C
  C8       1.0000 0.81400  0.26430  0.73550  Biso   1.000  C
  C9       1.0000 0.36430  0.28320  0.29800  Biso   1.000  C
  C10      1.0000 0.86430  0.78320  0.29800  Biso   1.000  C
  C11      1.0000 0.63570  0.28320  0.20200  Biso   1.000  C
  C12      1.0000 0.13570  0.78320  0.20200  Biso   1.000  C
  C13      1.0000 0.63570  0.71680  0.70200  Biso   1.000  C
  C14      1.0000 0.13570  0.21680  0.70200  Biso   1.000  C
  C15      1.0000 0.36430  0.71680  0.79800  Biso   1.000  C
  C16      1.0000 0.86430  0.21680  0.79800  Biso   1.000  C
  H1       1.0000 0.35700  0.36800  0.30560  Biso   1.000  H
  H2       1.0000 0.85700  0.86800  0.30560  Biso   1.000  H
  H3       1.0000 0.64300  0.36800  0.19440  Biso   1.000  H
  H4       1.0000 0.14300  0.86800  0.19440  Biso   1.000  H
  H5       1.0000 0.64300  0.63200  0.69440  Biso   1.000  H
  H6       1.0000 0.14300  0.13200  0.69440  Biso   1.000  H
  H7       1.0000 0.35700  0.63200  0.80560  Biso   1.000  H
  H8       1.0000 0.85700  0.13200  0.80560  Biso   1.000  H
  H9       1.0000 0.36550  0.23880  0.34080  Biso   1.000  H
  H10      1.0000 0.86550  0.73880  0.34080  Biso   1.000  H
  H11      1.0000 0.63450  0.23880  0.15920  Biso   1.000  H
  H12      1.0000 0.13450  0.73880  0.15920  Biso   1.000  H
  H13      1.0000 0.63450  0.76120  0.65920  Biso   1.000  H
  H14      1.0000 0.13450  0.26120  0.65920  Biso   1.000  H
  H15      1.0000 0.36550  0.76120  0.84080  Biso   1.000  H
  H16      1.0000 0.86550  0.26120  0.84080  Biso   1.000  H
  C17      1.0000 0.41880  0.27510  0.29060  Biso   1.000  C
  C18      1.0000 0.91880  0.77510  0.29060  Biso   1.000  C
  C19      1.0000 0.58120  0.27510  0.20940  Biso   1.000  C
  C20      1.0000 0.08120  0.77510  0.20940  Biso   1.000  C
  C21      1.0000 0.58120  0.72490  0.70940  Biso   1.000  C
  C22      1.0000 0.08120  0.22490  0.70940  Biso   1.000  C
  C23      1.0000 0.41880  0.72490  0.79060  Biso   1.000  C
  C24      1.0000 0.91880  0.22490  0.79060  Biso   1.000  C
  H17      1.0000 0.41690  0.31420  0.24600  Biso   1.000  H
  H18      1.0000 0.91690  0.81420  0.24600  Biso   1.000  H
  H19      1.0000 0.58310  0.31420  0.25400  Biso   1.000  H
  H20      1.0000 0.08310  0.81420  0.25400  Biso   1.000  H
  H21      1.0000 0.58310  0.68580  0.75400  Biso   1.000  H
  H22      1.0000 0.08310  0.18580  0.75400  Biso   1.000  H
  H23      1.0000 0.41690  0.68580  0.74600  Biso   1.000  H
  H24      1.0000 0.91690  0.18580  0.74600  Biso   1.000  H
  H25      1.0000 0.42760  0.18990  0.28700  Biso   1.000  H
  H26      1.0000 0.92760  0.68990  0.28700  Biso   1.000  H
  H27      1.0000 0.57240  0.18990  0.21300  Biso   1.000  H
  H28      1.0000 0.07240  0.68990  0.21300  Biso   1.000  H
  H29      1.0000 0.57240  0.81010  0.71300  Biso   1.000  H
  H30      1.0000 0.07240  0.31010  0.71300  Biso   1.000  H
  H31      1.0000 0.42760  0.81010  0.78700  Biso   1.000  H
  H32      1.0000 0.92760  0.31010  0.78700  Biso   1.000  H
  C25      1.0000 0.46670  0.33120  0.35040  Biso   1.000  C
  C26      1.0000 0.96670  0.83120  0.35040  Biso   1.000  C
  C27      1.0000 0.53330  0.33120  0.14960  Biso   1.000  C
  C28      1.0000 0.03330  0.83120  0.14960  Biso   1.000  C
  C29      1.0000 0.53330  0.66880  0.64960  Biso   1.000  C
  C30      1.0000 0.03330  0.16880  0.64960  Biso   1.000  C
  C31      1.0000 0.46670  0.66880  0.85040  Biso   1.000  C
  C32      1.0000 0.96670  0.16880  0.85040  Biso   1.000  C
  H33      1.0000 0.50190  0.32210  0.34080  Biso   1.000  H
  H34      1.0000 0.00190  0.82210  0.34080  Biso   1.000  H
  H35      1.0000 0.49810  0.32210  0.15920  Biso   1.000  H
  H36      1.0000 0.99810  0.82210  0.15920  Biso   1.000  H
  H37      1.0000 0.49810  0.67790  0.65920  Biso   1.000  H
  H38      1.0000 0.99810  0.17790  0.65920  Biso   1.000  H
  H39      1.0000 0.50190  0.67790  0.84080  Biso   1.000  H
  H40      1.0000 0.00190  0.17790  0.84080  Biso   1.000  H
  H41      1.0000 0.47000  0.29140  0.39470  Biso   1.000  H
  H42      1.0000 0.97000  0.79140  0.39470  Biso   1.000  H
  H43      1.0000 0.53000  0.29140  0.10530  Biso   1.000  H
  H44      1.0000 0.03000  0.79140  0.10530  Biso   1.000  H
  H45      1.0000 0.53000  0.70860  0.60530  Biso   1.000  H
  H46      1.0000 0.03000  0.20860  0.60530  Biso   1.000  H
  H47      1.0000 0.47000  0.70860  0.89470  Biso   1.000  H
  H48      1.0000 0.97000  0.20860  0.89470  Biso   1.000  H
  H49      1.0000 0.45900  0.41620  0.35390  Biso   1.000  H
  H50      1.0000 0.95900  0.91620  0.35390  Biso   1.000  H
  H51      1.0000 0.54100  0.41620  0.14610  Biso   1.000  H
  H52      1.0000 0.04100  0.91620  0.14610  Biso   1.000  H
  H53      1.0000 0.54100  0.58380  0.64610  Biso   1.000  H
  H54      1.0000 0.04100  0.08380  0.64610  Biso   1.000  H
  H55      1.0000 0.45900  0.58380  0.85390  Biso   1.000  H
  H56      1.0000 0.95900  0.08380  0.85390  Biso   1.000  H
  C33      1.0000 0.25770  0.27320  0.22710  Biso   1.000  C
  C34      1.0000 0.75770  0.77320  0.22710  Biso   1.000  C
  C35      1.0000 0.74230  0.27320  0.27290  Biso   1.000  C
  C36      1.0000 0.24230  0.77320  0.27290  Biso   1.000  C
  C37      1.0000 0.74230  0.72680  0.77290  Biso   1.000  C
  C38      1.0000 0.24230  0.22680  0.77290  Biso   1.000  C
  C39      1.0000 0.25770  0.72680  0.72710  Biso   1.000  C
  C40      1.0000 0.75770  0.22680  0.72710  Biso   1.000  C
  C41      1.0000 0.25060  0.35320  0.28010  Biso   1.000  C
  C42      1.0000 0.75060  0.85320  0.28010  Biso   1.000  C
  C43      1.0000 0.74940  0.35320  0.21990  Biso   1.000  C
  C44      1.0000 0.24940  0.85320  0.21990  Biso   1.000  C
  C45      1.0000 0.74940  0.64680  0.71990  Biso   1.000  C
  C46      1.0000 0.24940  0.14680  0.71990  Biso   1.000  C
  C47      1.0000 0.25060  0.64680  0.78010  Biso   1.000  C
  C48      1.0000 0.75060  0.14680  0.78010  Biso   1.000  C
  N17      1.0000 0.24580  0.41520  0.32320  Biso   1.000  N
  N18      1.0000 0.74580  0.91520  0.32320  Biso   1.000  N
  N19      1.0000 0.75420  0.41520  0.17680  Biso   1.000  N
  N20      1.0000 0.25420  0.91520  0.17680  Biso   1.000  N
  N21      1.0000 0.75420  0.58480  0.67680  Biso   1.000  N
  N22      1.0000 0.25420  0.08480  0.67680  Biso   1.000  N
  N23      1.0000 0.24580  0.58480  0.82320  Biso   1.000  N
  N24      1.0000 0.74580  0.08480  0.82320  Biso   1.000  N
  C49      1.0000 0.20870  0.24120  0.16700  Biso   1.000  C
  C50      1.0000 0.70870  0.74120  0.16700  Biso   1.000  C
  C51      1.0000 0.79130  0.24120  0.33300  Biso   1.000  C
  C52      1.0000 0.29130  0.74120  0.33300  Biso   1.000  C
  C53      1.0000 0.79130  0.75880  0.83300  Biso   1.000  C
  C54      1.0000 0.29130  0.25880  0.83300  Biso   1.000  C
  C55      1.0000 0.20870  0.75880  0.66700  Biso   1.000  C
  C56      1.0000 0.70870  0.25880  0.66700  Biso   1.000  C
  C57      1.0000 0.14910  0.28520  0.16050  Biso   1.000  C
  C58      1.0000 0.64910  0.78520  0.16050  Biso   1.000  C
  C59      1.0000 0.85090  0.28520  0.33950  Biso   1.000  C
  C60      1.0000 0.35090  0.78520  0.33950  Biso   1.000  C
  C61      1.0000 0.85090  0.71480  0.83950  Biso   1.000  C
  C62      1.0000 0.35090  0.21480  0.83950  Biso   1.000  C
  C63      1.0000 0.14910  0.71480  0.66050  Biso   1.000  C
  C64      1.0000 0.64910  0.21480  0.66050  Biso   1.000  C
  C65      1.0000 0.12760  0.22850  0.21760  Biso   1.000  C
  C66      1.0000 0.62760  0.72850  0.21760  Biso   1.000  C
  C67      1.0000 0.87240  0.22850  0.28240  Biso   1.000  C
  C68      1.0000 0.37240  0.72850  0.28240  Biso   1.000  C
  C69      1.0000 0.87240  0.77150  0.78240  Biso   1.000  C
  C70      1.0000 0.37240  0.27150  0.78240  Biso   1.000  C
  C71      1.0000 0.12760  0.77150  0.71760  Biso   1.000  C
  C72      1.0000 0.62760  0.27150  0.71760  Biso   1.000  C
  H57      1.0000 0.13270  0.14180  0.21820  Biso   1.000  H
  H58      1.0000 0.63270  0.64180  0.21820  Biso   1.000  H
  H59      1.0000 0.86730  0.14180  0.28180  Biso   1.000  H
  H60      1.0000 0.36730  0.64180  0.28180  Biso   1.000  H
  H61      1.0000 0.86730  0.85820  0.78180  Biso   1.000  H
  H62      1.0000 0.36730  0.35820  0.78180  Biso   1.000  H
  H63      1.0000 0.13270  0.85820  0.71820  Biso   1.000  H
  H64      1.0000 0.63270  0.35820  0.71820  Biso   1.000  H
  H65      1.0000 0.08770  0.24700  0.20650  Biso   1.000  H
  H66      1.0000 0.58770  0.74700  0.20650  Biso   1.000  H
  H67      1.0000 0.91230  0.24700  0.29350  Biso   1.000  H
  H68      1.0000 0.41230  0.74700  0.29350  Biso   1.000  H
  H69      1.0000 0.91230  0.75300  0.79350  Biso   1.000  H
  H70      1.0000 0.41230  0.25300  0.79350  Biso   1.000  H
  H71      1.0000 0.08770  0.75300  0.70650  Biso   1.000  H
  H72      1.0000 0.58770  0.25300  0.70650  Biso   1.000  H
  H73      1.0000 0.14910  0.26120  0.26390  Biso   1.000  H
  H74      1.0000 0.64910  0.76120  0.26390  Biso   1.000  H
  H75      1.0000 0.85090  0.26120  0.23610  Biso   1.000  H
  H76      1.0000 0.35090  0.76120  0.23610  Biso   1.000  H
  H77      1.0000 0.85090  0.73880  0.73610  Biso   1.000  H
  H78      1.0000 0.35090  0.23880  0.73610  Biso   1.000  H
  H79      1.0000 0.14910  0.73880  0.76390  Biso   1.000  H
  H80      1.0000 0.64910  0.23880  0.76390  Biso   1.000  H
  C73      1.0000 0.14120  0.42530  0.15720  Biso   1.000  C
  C74      1.0000 0.64120  0.92530  0.15720  Biso   1.000  C
  C75      1.0000 0.85880  0.42530  0.34280  Biso   1.000  C
  C76      1.0000 0.35880  0.92530  0.34280  Biso   1.000  C
  C77      1.0000 0.85880  0.57470  0.84280  Biso   1.000  C
  C78      1.0000 0.35880  0.07470  0.84280  Biso   1.000  C
  C79      1.0000 0.14120  0.57470  0.65720  Biso   1.000  C
  C80      1.0000 0.64120  0.07470  0.65720  Biso   1.000  C
  H81      1.0000 0.15480  0.45820  0.12110  Biso   1.000  H
  H82      1.0000 0.65480  0.95820  0.12110  Biso   1.000  H
  H83      1.0000 0.84520  0.45820  0.37890  Biso   1.000  H
  H84      1.0000 0.34520  0.95820  0.37890  Biso   1.000  H
  H85      1.0000 0.84520  0.54180  0.87890  Biso   1.000  H
  H86      1.0000 0.34520  0.04180  0.87890  Biso   1.000  H
  H87      1.0000 0.15480  0.54180  0.62110  Biso   1.000  H
  H88      1.0000 0.65480  0.04180  0.62110  Biso   1.000  H
  H89      1.0000 0.16260  0.46000  0.20300  Biso   1.000  H
  H90      1.0000 0.66260  0.96000  0.20300  Biso   1.000  H
  H91      1.0000 0.83740  0.46000  0.29700  Biso   1.000  H
  H92      1.0000 0.33740  0.96000  0.29700  Biso   1.000  H
  H93      1.0000 0.83740  0.54000  0.79700  Biso   1.000  H
  H94      1.0000 0.33740  0.04000  0.79700  Biso   1.000  H
  H95      1.0000 0.16260  0.54000  0.70300  Biso   1.000  H
  H96      1.0000 0.66260  0.04000  0.70300  Biso   1.000  H
  H97      1.0000 0.10140  0.44460  0.14560  Biso   1.000  H
  H98      1.0000 0.60140  0.94460  0.14560  Biso   1.000  H
  H99      1.0000 0.89860  0.44460  0.35440  Biso   1.000  H
  H100     1.0000 0.39860  0.94460  0.35440  Biso   1.000  H
  H101     1.0000 0.89860  0.55540  0.85440  Biso   1.000  H
  H102     1.0000 0.39860  0.05540  0.85440  Biso   1.000  H
  H103     1.0000 0.10140  0.55540  0.64560  Biso   1.000  H
  H104     1.0000 0.60140  0.05540  0.64560  Biso   1.000  H
  C81      1.0000 0.15190  0.16470  0.05780  Biso   1.000  C
  C82      1.0000 0.65190  0.66470  0.05780  Biso   1.000  C
  C83      1.0000 0.84810  0.16470  0.44220  Biso   1.000  C
  C84      1.0000 0.34810  0.66470  0.44220  Biso   1.000  C
  C85      1.0000 0.84810  0.83530  0.94220  Biso   1.000  C
  C86      1.0000 0.34810  0.33530  0.94220  Biso   1.000  C
  C87      1.0000 0.15190  0.83530  0.55780  Biso   1.000  C
  C88      1.0000 0.65190  0.33530  0.55780  Biso   1.000  C
  C89      1.0000 0.15060  0.22440  0.98840  Biso   1.000  C
  C90      1.0000 0.65060  0.72440  0.98840  Biso   1.000  C
  C91      1.0000 0.84940  0.22440  0.51160  Biso   1.000  C
  C92      1.0000 0.34940  0.72440  0.51160  Biso   1.000  C
  C93      1.0000 0.84940  0.77560  0.01160  Biso   1.000  C
  C94      1.0000 0.34940  0.27560  0.01160  Biso   1.000  C
  C95      1.0000 0.15060  0.77560  0.48840  Biso   1.000  C
  C96      1.0000 0.65060  0.27560  0.48840  Biso   1.000  C
  H105     1.0000 0.16500  0.30600  0.99800  Biso   1.000  H
  H106     1.0000 0.66500  0.80600  0.99800  Biso   1.000  H
  H107     1.0000 0.83500  0.30600  0.50200  Biso   1.000  H
  H108     1.0000 0.33500  0.80600  0.50200  Biso   1.000  H
  H109     1.0000 0.83500  0.69400  0.00200  Biso   1.000  H
  H110     1.0000 0.33500  0.19400  0.00200  Biso   1.000  H
  H111     1.0000 0.16500  0.69400  0.49800  Biso   1.000  H
  H112     1.0000 0.66500  0.19400  0.49800  Biso   1.000  H
  H113     1.0000 0.11190  0.22640  0.95560  Biso   1.000  H
  H114     1.0000 0.61190  0.72640  0.95560  Biso   1.000  H
  H115     1.0000 0.88810  0.22640  0.54440  Biso   1.000  H
  H116     1.0000 0.38810  0.72640  0.54440  Biso   1.000  H
  H117     1.0000 0.88810  0.77360  0.04440  Biso   1.000  H
  H118     1.0000 0.38810  0.27360  0.04440  Biso   1.000  H
  H119     1.0000 0.11190  0.77360  0.45560  Biso   1.000  H
  H120     1.0000 0.61190  0.27360  0.45560  Biso   1.000  H
  H121     1.0000 0.17400  0.17870  0.96760  Biso   1.000  H
  H122     1.0000 0.67400  0.67870  0.96760  Biso   1.000  H
  H123     1.0000 0.82600  0.17870  0.53240  Biso   1.000  H
  H124     1.0000 0.32600  0.67870  0.53240  Biso   1.000  H
  H125     1.0000 0.82600  0.82130  0.03240  Biso   1.000  H
  H126     1.0000 0.32600  0.32130  0.03240  Biso   1.000  H
  H127     1.0000 0.17400  0.82130  0.46760  Biso   1.000  H
  H128     1.0000 0.67400  0.32130  0.46760  Biso   1.000  H
  C97      1.0000 0.12900  0.03380  0.04620  Biso   1.000  C
  C98      1.0000 0.62900  0.53380  0.04620  Biso   1.000  C
  C99      1.0000 0.87100  0.03380  0.45380  Biso   1.000  C
  C100     1.0000 0.37100  0.53380  0.45380  Biso   1.000  C
  C101     1.0000 0.87100  0.96620  0.95380  Biso   1.000  C
  C102     1.0000 0.37100  0.46620  0.95380  Biso   1.000  C
  C103     1.0000 0.12900  0.96620  0.54620  Biso   1.000  C
  C104     1.0000 0.62900  0.46620  0.54620  Biso   1.000  C
  H129     1.0000 0.13040  0.99970  0.09140  Biso   1.000  H
  H130     1.0000 0.63040  0.49970  0.09140  Biso   1.000  H
  H131     1.0000 0.86960  0.99970  0.40860  Biso   1.000  H
  H132     1.0000 0.36960  0.49970  0.40860  Biso   1.000  H
  H133     1.0000 0.86960  0.00030  0.90860  Biso   1.000  H
  H134     1.0000 0.36960  0.50030  0.90860  Biso   1.000  H
  H135     1.0000 0.13040  0.00030  0.59140  Biso   1.000  H
  H136     1.0000 0.63040  0.50030  0.59140  Biso   1.000  H
  H137     1.0000 0.15220  0.98570  0.02620  Biso   1.000  H
  H138     1.0000 0.65220  0.48570  0.02620  Biso   1.000  H
  H139     1.0000 0.84780  0.98570  0.47380  Biso   1.000  H
  H140     1.0000 0.34780  0.48570  0.47380  Biso   1.000  H
  H141     1.0000 0.84780  0.01430  0.97380  Biso   1.000  H
  H142     1.0000 0.34780  0.51430  0.97380  Biso   1.000  H
  H143     1.0000 0.15220  0.01430  0.52620  Biso   1.000  H
  H144     1.0000 0.65220  0.51430  0.52620  Biso   1.000  H
  H145     1.0000 0.09010  0.03420  0.01390  Biso   1.000  H
  H146     1.0000 0.59010  0.53420  0.01390  Biso   1.000  H
  H147     1.0000 0.90990  0.03420  0.48610  Biso   1.000  H
  H148     1.0000 0.40990  0.53420  0.48610  Biso   1.000  H
  H149     1.0000 0.90990  0.96580  0.98610  Biso   1.000  H
  H150     1.0000 0.40990  0.46580  0.98610  Biso   1.000  H
  H151     1.0000 0.09010  0.96580  0.51390  Biso   1.000  H
  H152     1.0000 0.59010  0.46580  0.51390  Biso   1.000  H
  O17      1.0000 0.24101  0.01940  0.01582  Biso   1.000  O
  O18      1.0000 0.74101  0.51940  0.01582  Biso   1.000  O
  O19      1.0000 0.75899  0.01940  0.48418  Biso   1.000  O
  O20      1.0000 0.25899  0.51940  0.48418  Biso   1.000  O
  O21      1.0000 0.75899  0.98060  0.98418  Biso   1.000  O
  O22      1.0000 0.25899  0.48060  0.98418  Biso   1.000  O
  O23      1.0000 0.24101  0.98060  0.51582  Biso   1.000  O
  O24      1.0000 0.74101  0.48060  0.51582  Biso   1.000  O
  O25      1.0000 0.34906  0.99940  0.11560  Biso   1.000  O
  O26      1.0000 0.84906  0.49940  0.11560  Biso   1.000  O
  O27      1.0000 0.65094  0.99940  0.38440  Biso   1.000  O
  O28      1.0000 0.15094  0.49940  0.38440  Biso   1.000  O
  O29      1.0000 0.65094  0.00060  0.88440  Biso   1.000  O
  O30      1.0000 0.15094  0.50060  0.88440  Biso   1.000  O
  O31      1.0000 0.34906  0.00060  0.61560  Biso   1.000  O
  O32      1.0000 0.84906  0.50060  0.61560  Biso   1.000  O
  C105     1.0000 0.26500  0.95500  0.98060  Biso   1.000  C
  C106     1.0000 0.76500  0.45500  0.98060  Biso   1.000  C
  C107     1.0000 0.73500  0.95500  0.51940  Biso   1.000  C
  C108     1.0000 0.23500  0.45500  0.51940  Biso   1.000  C
  C109     1.0000 0.73500  0.04500  0.01940  Biso   1.000  C
  C110     1.0000 0.23500  0.54500  0.01940  Biso   1.000  C
  C111     1.0000 0.26500  0.04500  0.48060  Biso   1.000  C
  C112     1.0000 0.76500  0.54500  0.48060  Biso   1.000  C
  C113     1.0000 0.31860  0.91470  0.00070  Biso   1.000  C
  C114     1.0000 0.81860  0.41470  0.00070  Biso   1.000  C
  C115     1.0000 0.68140  0.91470  0.49930  Biso   1.000  C
  C116     1.0000 0.18140  0.41470  0.49930  Biso   1.000  C
  C117     1.0000 0.68140  0.08530  0.99930  Biso   1.000  C
  C118     1.0000 0.18140  0.58530  0.99930  Biso   1.000  C
  C119     1.0000 0.31860  0.08530  0.50070  Biso   1.000  C
  C120     1.0000 0.81860  0.58530  0.50070  Biso   1.000  C
  H153     1.0000 0.32930  0.86660  0.96870  Biso   1.000  H
  H154     1.0000 0.82930  0.36660  0.96870  Biso   1.000  H
  H155     1.0000 0.67070  0.86660  0.53130  Biso   1.000  H
  H156     1.0000 0.17070  0.36660  0.53130  Biso   1.000  H
  H157     1.0000 0.67070  0.13340  0.03130  Biso   1.000  H
  H158     1.0000 0.17070  0.63340  0.03130  Biso   1.000  H
  H159     1.0000 0.32930  0.13340  0.46870  Biso   1.000  H
  H160     1.0000 0.82930  0.63340  0.46870  Biso   1.000  H
  C121     1.0000 0.36070  0.94130  0.06870  Biso   1.000  C
  C122     1.0000 0.86070  0.44130  0.06870  Biso   1.000  C
  C123     1.0000 0.63930  0.94130  0.43130  Biso   1.000  C
  C124     1.0000 0.13930  0.44130  0.43130  Biso   1.000  C
  C125     1.0000 0.63930  0.05870  0.93130  Biso   1.000  C
  C126     1.0000 0.13930  0.55870  0.93130  Biso   1.000  C
  C127     1.0000 0.36070  0.05870  0.56870  Biso   1.000  C
  C128     1.0000 0.86070  0.55870  0.56870  Biso   1.000  C
  C129     1.0000 0.22460  0.92650  0.90610  Biso   1.000  C
  C130     1.0000 0.72460  0.42650  0.90610  Biso   1.000  C
  C131     1.0000 0.77540  0.92650  0.59390  Biso   1.000  C
  C132     1.0000 0.27540  0.42650  0.59390  Biso   1.000  C
  C133     1.0000 0.77540  0.07350  0.09390  Biso   1.000  C
  C134     1.0000 0.27540  0.57350  0.09390  Biso   1.000  C
  C135     1.0000 0.22460  0.07350  0.40610  Biso   1.000  C
  C136     1.0000 0.72460  0.57350  0.40610  Biso   1.000  C
  F1       1.0000 0.19790  0.02070  0.87280  Biso   1.000  F
  F2       1.0000 0.69790  0.52070  0.87280  Biso   1.000  F
  F3       1.0000 0.80210  0.02070  0.62720  Biso   1.000  F
  F4       1.0000 0.30210  0.52070  0.62720  Biso   1.000  F
  F5       1.0000 0.80210  0.97930  0.12720  Biso   1.000  F
  F6       1.0000 0.30210  0.47930  0.12720  Biso   1.000  F
  F7       1.0000 0.19790  0.97930  0.37280  Biso   1.000  F
  F8       1.0000 0.69790  0.47930  0.37280  Biso   1.000  F
  F9       1.0000 0.18560  0.85500  0.90510  Biso   1.000  F
  F10      1.0000 0.68560  0.35500  0.90510  Biso   1.000  F
  F11      1.0000 0.81440  0.85500  0.59490  Biso   1.000  F
  F12      1.0000 0.31440  0.35500  0.59490  Biso   1.000  F
  F13      1.0000 0.81440  0.14500  0.09490  Biso   1.000  F
  F14      1.0000 0.31440  0.64500  0.09490  Biso   1.000  F
  F15      1.0000 0.18560  0.14500  0.40510  Biso   1.000  F
  F16      1.0000 0.68560  0.64500  0.40510  Biso   1.000  F
  F17      1.0000 0.24790  0.88710  0.86240  Biso   1.000  F
  F18      1.0000 0.74790  0.38710  0.86240  Biso   1.000  F
  F19      1.0000 0.75210  0.88710  0.63760  Biso   1.000  F
  F20      1.0000 0.25210  0.38710  0.63760  Biso   1.000  F
  F21      1.0000 0.75210  0.11290  0.13760  Biso   1.000  F
  F22      1.0000 0.25210  0.61290  0.13760  Biso   1.000  F
  F23      1.0000 0.24790  0.11290  0.36240  Biso   1.000  F
  F24      1.0000 0.74790  0.61290  0.36240  Biso   1.000  F
  C137     1.0000 0.42240  0.90050  0.08640  Biso   1.000  C
  C138     1.0000 0.92240  0.40050  0.08640  Biso   1.000  C
  C139     1.0000 0.57760  0.90050  0.41360  Biso   1.000  C
  C140     1.0000 0.07760  0.40050  0.41360  Biso   1.000  C
  C141     1.0000 0.57760  0.09950  0.91360  Biso   1.000  C
  C142     1.0000 0.07760  0.59950  0.91360  Biso   1.000  C
  C143     1.0000 0.42240  0.09950  0.58640  Biso   1.000  C
  C144     1.0000 0.92240  0.59950  0.58640  Biso   1.000  C
  C145     1.0000 0.42750  0.78290  0.06400  Biso   1.000  C
  C146     1.0000 0.92750  0.28290  0.06400  Biso   1.000  C
  C147     1.0000 0.57250  0.78290  0.43600  Biso   1.000  C
  C148     1.0000 0.07250  0.28290  0.43600  Biso   1.000  C
  C149     1.0000 0.57250  0.21710  0.93600  Biso   1.000  C
  C150     1.0000 0.07250  0.71710  0.93600  Biso   1.000  C
  C151     1.0000 0.42750  0.21710  0.56400  Biso   1.000  C
  C152     1.0000 0.92750  0.71710  0.56400  Biso   1.000  C
  H161     1.0000 0.46730  0.76200  0.07710  Biso   1.000  H
  H162     1.0000 0.96730  0.26200  0.07710  Biso   1.000  H
  H163     1.0000 0.53270  0.76200  0.42290  Biso   1.000  H
  H164     1.0000 0.03270  0.26200  0.42290  Biso   1.000  H
  H165     1.0000 0.53270  0.23800  0.92290  Biso   1.000  H
  H166     1.0000 0.03270  0.73800  0.92290  Biso   1.000  H
  H167     1.0000 0.46730  0.23800  0.57710  Biso   1.000  H
  H168     1.0000 0.96730  0.73800  0.57710  Biso   1.000  H
  H169     1.0000 0.40980  0.77790  0.01280  Biso   1.000  H
  H170     1.0000 0.90980  0.27790  0.01280  Biso   1.000  H
  H171     1.0000 0.59020  0.77790  0.48720  Biso   1.000  H
  H172     1.0000 0.09020  0.27790  0.48720  Biso   1.000  H
  H173     1.0000 0.59020  0.22210  0.98720  Biso   1.000  H
  H174     1.0000 0.09020  0.72210  0.98720  Biso   1.000  H
  H175     1.0000 0.40980  0.22210  0.51280  Biso   1.000  H
  H176     1.0000 0.90980  0.72210  0.51280  Biso   1.000  H
  H177     1.0000 0.40890  0.72730  0.08640  Biso   1.000  H
  H178     1.0000 0.90890  0.22730  0.08640  Biso   1.000  H
  H179     1.0000 0.59110  0.72730  0.41360  Biso   1.000  H
  H180     1.0000 0.09110  0.22730  0.41360  Biso   1.000  H
  H181     1.0000 0.59110  0.27270  0.91360  Biso   1.000  H
  H182     1.0000 0.09110  0.77270  0.91360  Biso   1.000  H
  H183     1.0000 0.40890  0.27270  0.58640  Biso   1.000  H
  H184     1.0000 0.90890  0.77270  0.58640  Biso   1.000  H
  C153     1.0000 0.45120  0.97540  0.05570  Biso   1.000  C
  C154     1.0000 0.95120  0.47540  0.05570  Biso   1.000  C
  C155     1.0000 0.54880  0.97540  0.44430  Biso   1.000  C
  C156     1.0000 0.04880  0.47540  0.44430  Biso   1.000  C
  C157     1.0000 0.54880  0.02460  0.94430  Biso   1.000  C
  C158     1.0000 0.04880  0.52460  0.94430  Biso   1.000  C
  C159     1.0000 0.45120  0.02460  0.55570  Biso   1.000  C
  C160     1.0000 0.95120  0.52460  0.55570  Biso   1.000  C
  H185     1.0000 0.45570  0.05400  0.07810  Biso   1.000  H
  H186     1.0000 0.95570  0.55400  0.07810  Biso   1.000  H
  H187     1.0000 0.54430  0.05400  0.42190  Biso   1.000  H
  H188     1.0000 0.04430  0.55400  0.42190  Biso   1.000  H
  H189     1.0000 0.54430  0.94600  0.92190  Biso   1.000  H
  H190     1.0000 0.04430  0.44600  0.92190  Biso   1.000  H
  H191     1.0000 0.45570  0.94600  0.57810  Biso   1.000  H
  H192     1.0000 0.95570  0.44600  0.57810  Biso   1.000  H
  H193     1.0000 0.42990  0.98340  0.00540  Biso   1.000  H
  H194     1.0000 0.92990  0.48340  0.00540  Biso   1.000  H
  H195     1.0000 0.57010  0.98340  0.49460  Biso   1.000  H
  H196     1.0000 0.07010  0.48340  0.49460  Biso   1.000  H
  H197     1.0000 0.57010  0.01660  0.99460  Biso   1.000  H
  H198     1.0000 0.07010  0.51660  0.99460  Biso   1.000  H
  H199     1.0000 0.42990  0.01660  0.50540  Biso   1.000  H
  H200     1.0000 0.92990  0.51660  0.50540  Biso   1.000  H
  H201     1.0000 0.48820  0.94150  0.06190  Biso   1.000  H
  H202     1.0000 0.98820  0.44150  0.06190  Biso   1.000  H
  H203     1.0000 0.51180  0.94150  0.43810  Biso   1.000  H
  H204     1.0000 0.01180  0.44150  0.43810  Biso   1.000  H
  H205     1.0000 0.51180  0.05850  0.93810  Biso   1.000  H
  H206     1.0000 0.01180  0.55850  0.93810  Biso   1.000  H
  H207     1.0000 0.48820  0.05850  0.56190  Biso   1.000  H
  H208     1.0000 0.98820  0.55850  0.56190  Biso   1.000  H
  C161     1.0000 0.45160  0.89400  0.15920  Biso   1.000  C
  C162     1.0000 0.95160  0.39400  0.15920  Biso   1.000  C
  C163     1.0000 0.54840  0.89400  0.34080  Biso   1.000  C
  C164     1.0000 0.04840  0.39400  0.34080  Biso   1.000  C
  C165     1.0000 0.54840  0.10600  0.84080  Biso   1.000  C
  C166     1.0000 0.04840  0.60600  0.84080  Biso   1.000  C
  C167     1.0000 0.45160  0.10600  0.65920  Biso   1.000  C
  C168     1.0000 0.95160  0.60600  0.65920  Biso   1.000  C
  H209     1.0000 0.44340  0.96520  0.18210  Biso   1.000  H
  H210     1.0000 0.94340  0.46520  0.18210  Biso   1.000  H
  H211     1.0000 0.55660  0.96520  0.31790  Biso   1.000  H
  H212     1.0000 0.05660  0.46520  0.31790  Biso   1.000  H
  H213     1.0000 0.55660  0.03480  0.81790  Biso   1.000  H
  H214     1.0000 0.05660  0.53480  0.81790  Biso   1.000  H
  H215     1.0000 0.44340  0.03480  0.68210  Biso   1.000  H
  H216     1.0000 0.94340  0.53480  0.68210  Biso   1.000  H
  H217     1.0000 0.49200  0.88970  0.16770  Biso   1.000  H
  H218     1.0000 0.99200  0.38970  0.16770  Biso   1.000  H
  H219     1.0000 0.50800  0.88970  0.33230  Biso   1.000  H
  H220     1.0000 0.00800  0.38970  0.33230  Biso   1.000  H
  H221     1.0000 0.50800  0.11030  0.83230  Biso   1.000  H
  H222     1.0000 0.00800  0.61030  0.83230  Biso   1.000  H
  H223     1.0000 0.49200  0.11030  0.66770  Biso   1.000  H
  H224     1.0000 0.99200  0.61030  0.66770  Biso   1.000  H
  H225     1.0000 0.43970  0.82280  0.17840  Biso   1.000  H
  H226     1.0000 0.93970  0.32280  0.17840  Biso   1.000  H
  H227     1.0000 0.56030  0.82280  0.32160  Biso   1.000  H
  H228     1.0000 0.06030  0.32280  0.32160  Biso   1.000  H
  H229     1.0000 0.56030  0.17720  0.82160  Biso   1.000  H
  H230     1.0000 0.06030  0.67720  0.82160  Biso   1.000  H
  H231     1.0000 0.43970  0.17720  0.67840  Biso   1.000  H
  H232     1.0000 0.93970  0.67720  0.67840  Biso   1.000  H
