data_image0
_cell_length_a       12.8243
_cell_length_b       18.216
_cell_length_c       14.2213
_cell_angle_alpha    90
_cell_angle_beta     115.595
_cell_angle_gamma    90

_symmetry_space_group_name_H-M    "P 1"
_symmetry_int_tables_number       1

loop_
  _symmetry_equiv_pos_as_xyz
  'x, y, z'

loop_
  _atom_site_label
  _atom_site_occupancy
  _atom_site_fract_x
  _atom_site_fract_y
  _atom_site_fract_z
  _atom_site_thermal_displace_type
  _atom_site_B_iso_or_equiv
  _atom_site_type_symbol
  Cu1      1.0000 0.49046  0.64711  0.09117  Biso   1.000  Cu
  Cu2      1.0000 0.50954  0.14711  0.90883  Biso   1.000  Cu
  Cu3      1.0000 0.58465  0.68996  0.31905  Biso   1.000  Cu
  Cu4      1.0000 0.41535  0.18996  0.68095  Biso   1.000  Cu
  Cu5      1.0000 0.51973  0.49342  0.60277  Biso   1.000  Cu
  Cu6      1.0000 0.48027  0.99342  0.39723  Biso   1.000  Cu
  Cu7      1.0000 0.58731  0.46140  0.82844  Biso   1.000  Cu
  Cu8      1.0000 0.41269  0.96140  0.17156  Biso   1.000  Cu
  O1       1.0000 0.44160  0.69400  0.19000  Biso   1.000  O
  O2       1.0000 0.55840  0.19400  0.81000  Biso   1.000  O
  O3       1.0000 0.53680  0.60610  0.98760  Biso   1.000  O
  O4       1.0000 0.46320  0.10610  0.01240  Biso   1.000  O
  O5       1.0000 0.46670  0.56080  0.82620  Biso   1.000  O
  O6       1.0000 0.53330  0.06080  0.17380  Biso   1.000  O
  O7       1.0000 0.63640  0.65500  0.21640  Biso   1.000  O
  O8       1.0000 0.36360  0.15500  0.78360  Biso   1.000  O
  O9       1.0000 0.53880  0.72710  0.42210  Biso   1.000  O
  O10      1.0000 0.46120  0.22710  0.57790  Biso   1.000  O
  O11      1.0000 0.58060  0.72000  0.58960  Biso   1.000  O
  O12      1.0000 0.41940  0.22000  0.41040  Biso   1.000  O
  O13      1.0000 0.46960  0.43030  0.68840  Biso   1.000  O
  O14      1.0000 0.53040  0.93030  0.31160  Biso   1.000  O
  O15      1.0000 0.57980  0.53840  0.51300  Biso   1.000  O
  O16      1.0000 0.42020  0.03840  0.48700  Biso   1.000  O
  O17      1.0000 0.54100  0.56150  0.34840  Biso   1.000  O
  O18      1.0000 0.45900  0.06150  0.65160  Biso   1.000  O
  O19      1.0000 0.65190  0.50610  0.73790  Biso   1.000  O
  O20      1.0000 0.34810  0.00610  0.26210  Biso   1.000  O
  O21      1.0000 0.57290  0.38770  0.92140  Biso   1.000  O
  O22      1.0000 0.42710  0.88770  0.07860  Biso   1.000  O
  O23      1.0000 0.68520  0.32080  0.05810  Biso   1.000  O
  O24      1.0000 0.31480  0.82080  0.94190  Biso   1.000  O
  O25      1.0000 0.45490  0.52880  0.13870  Biso   1.000  O
  O26      1.0000 0.54510  0.02880  0.86130  Biso   1.000  O
  H1       1.0000 0.48200  0.51740  0.20630  Biso   1.000  H
  H2       1.0000 0.51800  0.01740  0.79370  Biso   1.000  H
  H3       1.0000 0.47200  0.48950  0.11100  Biso   1.000  H
  H4       1.0000 0.52800  0.98950  0.88900  Biso   1.000  H
  O27      1.0000 0.44540  0.60670  0.62800  Biso   1.000  O
  O28      1.0000 0.55460  0.10670  0.37200  Biso   1.000  O
  H5       1.0000 0.44400  0.61300  0.69150  Biso   1.000  H
  H6       1.0000 0.55600  0.11300  0.30850  Biso   1.000  H
  H7       1.0000 0.48400  0.64810  0.62600  Biso   1.000  H
  H8       1.0000 0.51600  0.14810  0.37400  Biso   1.000  H
  N1       1.0000 0.33610  0.65470  0.97330  Biso   1.000  N
  N2       1.0000 0.66390  0.15470  0.02670  Biso   1.000  N
  H9       1.0000 0.32680  0.70160  0.94890  Biso   1.000  H
  H10      1.0000 0.67320  0.20160  0.05110  Biso   1.000  H
  N3       1.0000 0.74250  0.68850  0.43840  Biso   1.000  N
  N4       1.0000 0.25750  0.18850  0.56160  Biso   1.000  N
  H11      1.0000 0.77830  0.73160  0.43820  Biso   1.000  H
  H12      1.0000 0.22170  0.23160  0.56180  Biso   1.000  H
  N5       1.0000 0.37460  0.48230  0.47510  Biso   1.000  N
  N6       1.0000 0.62540  0.98230  0.52490  Biso   1.000  N
  H13      1.0000 0.32400  0.51570  0.47920  Biso   1.000  H
  H14      1.0000 0.67600  0.01570  0.52080  Biso   1.000  H
  N7       1.0000 0.71300  0.49680  0.96010  Biso   1.000  N
  N8       1.0000 0.28700  0.99680  0.03990  Biso   1.000  N
  H15      1.0000 0.67810  0.52170  0.99420  Biso   1.000  H
  H16      1.0000 0.32190  0.02170  0.00580  Biso   1.000  H
  C1       1.0000 0.33620  0.72520  0.16400  Biso   1.000  C
  C2       1.0000 0.66380  0.22520  0.83600  Biso   1.000  C
  C3       1.0000 0.32630  0.78390  0.22310  Biso   1.000  C
  C4       1.0000 0.67370  0.28390  0.77690  Biso   1.000  C
  H17      1.0000 0.39170  0.80220  0.27840  Biso   1.000  H
  H18      1.0000 0.60830  0.30220  0.72160  Biso   1.000  H
  C5       1.0000 0.21840  0.81470  0.19880  Biso   1.000  C
  C6       1.0000 0.78160  0.31470  0.80120  Biso   1.000  C
  H19      1.0000 0.21190  0.85280  0.23960  Biso   1.000  H
  H20      1.0000 0.78810  0.35280  0.76040  Biso   1.000  H
  C7       1.0000 0.11990  0.78940  0.11420  Biso   1.000  C
  C8       1.0000 0.88010  0.28940  0.88580  Biso   1.000  C
  H21      1.0000 0.04810  0.81040  0.09810  Biso   1.000  H
  H22      1.0000 0.95190  0.31040  0.90190  Biso   1.000  H
  C9       1.0000 0.13070  0.73260  0.05470  Biso   1.000  C
  C10      1.0000 0.86930  0.23260  0.94530  Biso   1.000  C
  H23      1.0000 0.06560  0.71570  0.99760  Biso   1.000  H
  H24      1.0000 0.93440  0.21570  0.00240  Biso   1.000  H
  C11      1.0000 0.23800  0.70010  0.07890  Biso   1.000  C
  C12      1.0000 0.76200  0.20010  0.92110  Biso   1.000  C
  C13      1.0000 0.24330  0.63930  0.00930  Biso   1.000  C
  C14      1.0000 0.75670  0.13930  0.99070  Biso   1.000  C
  H25      1.0000 0.16900  0.63490  0.94920  Biso   1.000  H
  H26      1.0000 0.83100  0.13490  0.05080  Biso   1.000  H
  H27      1.0000 0.25960  0.59320  0.04700  Biso   1.000  H
  H28      1.0000 0.74040  0.09320  0.95300  Biso   1.000  H
  C15      1.0000 0.32910  0.60460  0.88740  Biso   1.000  C
  C16      1.0000 0.67090  0.10460  0.11260  Biso   1.000  C
  H29      1.0000 0.30040  0.55740  0.89970  Biso   1.000  H
  H30      1.0000 0.69960  0.05740  0.10030  Biso   1.000  H
  C17      1.0000 0.45310  0.59080  0.90040  Biso   1.000  C
  C18      1.0000 0.54690  0.09080  0.09960  Biso   1.000  C
  C19      1.0000 0.24120  0.63100  0.77950  Biso   1.000  C
  C20      1.0000 0.75880  0.13100  0.22050  Biso   1.000  C
  H31      1.0000 0.17220  0.64480  0.78850  Biso   1.000  H
  H32      1.0000 0.82780  0.14480  0.21150  Biso   1.000  H
  C21      1.0000 0.20070  0.57090  0.69490  Biso   1.000  C
  C22      1.0000 0.79930  0.07090  0.30510  Biso   1.000  C
  H33      1.0000 0.17820  0.52800  0.72100  Biso   1.000  H
  H34      1.0000 0.82180  0.02800  0.27900  Biso   1.000  H
  H35      1.0000 0.26280  0.55850  0.67720  Biso   1.000  H
  H36      1.0000 0.73720  0.05850  0.32280  Biso   1.000  H
  H37      1.0000 0.13600  0.58850  0.63410  Biso   1.000  H
  H38      1.0000 0.86400  0.08850  0.36590  Biso   1.000  H
  C23      1.0000 0.27910  0.70040  0.74460  Biso   1.000  C
  C24      1.0000 0.72090  0.20040  0.25540  Biso   1.000  C
  H39      1.0000 0.22180  0.71420  0.67670  Biso   1.000  H
  H40      1.0000 0.77820  0.21420  0.32330  Biso   1.000  H
  H41      1.0000 0.35150  0.69190  0.74170  Biso   1.000  H
  H42      1.0000 0.64850  0.19190  0.25830  Biso   1.000  H
  H43      1.0000 0.28800  0.73920  0.79320  Biso   1.000  H
  H44      1.0000 0.71200  0.23920  0.20680  Biso   1.000  H
  C25      1.0000 0.74710  0.66090  0.22970  Biso   1.000  C
  C26      1.0000 0.25290  0.16090  0.77030  Biso   1.000  C
  C27      1.0000 0.77370  0.68030  0.14700  Biso   1.000  C
  C28      1.0000 0.22630  0.18030  0.85300  Biso   1.000  C
  H45      1.0000 0.71490  0.68780  0.08050  Biso   1.000  H
  H46      1.0000 0.28510  0.18780  0.91950  Biso   1.000  H
  C29      1.0000 0.88870  0.68810  0.16530  Biso   1.000  C
  C30      1.0000 0.11130  0.18810  0.83470  Biso   1.000  C
  H47      1.0000 0.90630  0.69980  0.11000  Biso   1.000  H
  H48      1.0000 0.09370  0.19980  0.89000  Biso   1.000  H
  C31      1.0000 0.97840  0.67900  0.26460  Biso   1.000  C
  C32      1.0000 0.02160  0.17900  0.73540  Biso   1.000  C
  H49      1.0000 0.05460  0.68660  0.27590  Biso   1.000  H
  H50      1.0000 0.94540  0.18660  0.72410  Biso   1.000  H
  C33      1.0000 0.95370  0.65860  0.34670  Biso   1.000  C
  C34      1.0000 0.04630  0.15860  0.65330  Biso   1.000  C
  H51      1.0000 0.01390  0.65160  0.41260  Biso   1.000  H
  H52      1.0000 0.98610  0.15160  0.58740  Biso   1.000  H
  C35      1.0000 0.83730  0.64820  0.33160  Biso   1.000  C
  C36      1.0000 0.16270  0.14820  0.66840  Biso   1.000  C
  C37      1.0000 0.80880  0.62750  0.41890  Biso   1.000  C
  C38      1.0000 0.19120  0.12750  0.58110  Biso   1.000  C
  H53      1.0000 0.87930  0.61830  0.48130  Biso   1.000  H
  H54      1.0000 0.12070  0.11830  0.51870  Biso   1.000  H
  H55      1.0000 0.76290  0.58290  0.40140  Biso   1.000  H
  H56      1.0000 0.23710  0.08290  0.59860  Biso   1.000  H
  C39      1.0000 0.73040  0.68370  0.53860  Biso   1.000  C
  C40      1.0000 0.26960  0.18370  0.46140  Biso   1.000  C
  H57      1.0000 0.73380  0.63160  0.55700  Biso   1.000  H
  H58      1.0000 0.26620  0.13160  0.44300  Biso   1.000  H
  C41      1.0000 0.60670  0.71250  0.51680  Biso   1.000  C
  C42      1.0000 0.39330  0.21250  0.48320  Biso   1.000  C
  C43      1.0000 0.82650  0.72350  0.63120  Biso   1.000  C
  C44      1.0000 0.17350  0.22350  0.36880  Biso   1.000  C
  H59      1.0000 0.80900  0.77610  0.62300  Biso   1.000  H
  H60      1.0000 0.19100  0.27610  0.37700  Biso   1.000  H
  C45      1.0000 0.82850  0.69940  0.73620  Biso   1.000  C
  C46      1.0000 0.17150  0.19940  0.26380  Biso   1.000  C
  H61      1.0000 0.88890  0.72520  0.79220  Biso   1.000  H
  H62      1.0000 0.11110  0.22520  0.20780  Biso   1.000  H
  H63      1.0000 0.84230  0.64750  0.74530  Biso   1.000  H
  H64      1.0000 0.15770  0.14750  0.25470  Biso   1.000  H
  H65      1.0000 0.75540  0.71060  0.73640  Biso   1.000  H
  H66      1.0000 0.24460  0.21060  0.26360  Biso   1.000  H
  C47      1.0000 0.94840  0.71300  0.63590  Biso   1.000  C
  C48      1.0000 0.05160  0.21300  0.36410  Biso   1.000  C
  H67      1.0000 0.00400  0.73940  0.69460  Biso   1.000  H
  H68      1.0000 0.99600  0.23940  0.30540  Biso   1.000  H
  H69      1.0000 0.94910  0.73140  0.57300  Biso   1.000  H
  H70      1.0000 0.05090  0.23140  0.42700  Biso   1.000  H
  H71      1.0000 0.96770  0.66180  0.64320  Biso   1.000  H
  H72      1.0000 0.03230  0.16180  0.35680  Biso   1.000  H
  C49      1.0000 0.36090  0.40470  0.66060  Biso   1.000  C
  C50      1.0000 0.63910  0.90470  0.33940  Biso   1.000  C
  C51      1.0000 0.32310  0.38430  0.73510  Biso   1.000  C
  C52      1.0000 0.67690  0.88430  0.26490  Biso   1.000  C
  H73      1.0000 0.37390  0.38700  0.80540  Biso   1.000  H
  H74      1.0000 0.62610  0.88700  0.19460  Biso   1.000  H
  C53      1.0000 0.21170  0.36010  0.70630  Biso   1.000  C
  C54      1.0000 0.78830  0.86010  0.29370  Biso   1.000  C
  H75      1.0000 0.19010  0.34390  0.75740  Biso   1.000  H
  H76      1.0000 0.80990  0.84390  0.24260  Biso   1.000  H
  C55      1.0000 0.13230  0.35940  0.60420  Biso   1.000  C
  C56      1.0000 0.86770  0.85940  0.39580  Biso   1.000  C
  H77      1.0000 0.05560  0.34690  0.58560  Biso   1.000  H
  H78      1.0000 0.94440  0.84690  0.41440  Biso   1.000  H
  C57      1.0000 0.16940  0.37790  0.52950  Biso   1.000  C
  C58      1.0000 0.83060  0.87790  0.47050  Biso   1.000  C
  H79      1.0000 0.11660  0.37660  0.45960  Biso   1.000  H
  H80      1.0000 0.88340  0.87660  0.54040  Biso   1.000  H
  C59      1.0000 0.28290  0.39840  0.55480  Biso   1.000  C
  C60      1.0000 0.71710  0.89840  0.44520  Biso   1.000  C
  C61      1.0000 0.32320  0.40880  0.47160  Biso   1.000  C
  C62      1.0000 0.67680  0.90880  0.52840  Biso   1.000  C
  H81      1.0000 0.38030  0.37150  0.47910  Biso   1.000  H
  H82      1.0000 0.61970  0.87150  0.52090  Biso   1.000  H
  H83      1.0000 0.25830  0.40210  0.40400  Biso   1.000  H
  H84      1.0000 0.74170  0.90210  0.59600  Biso   1.000  H
  C63      1.0000 0.39310  0.50200  0.38110  Biso   1.000  C
  C64      1.0000 0.60690  0.00200  0.61890  Biso   1.000  C
  H85      1.0000 0.39370  0.45590  0.34570  Biso   1.000  H
  H86      1.0000 0.60630  0.95590  0.65430  Biso   1.000  H
  C65      1.0000 0.51390  0.53750  0.41570  Biso   1.000  C
  C66      1.0000 0.48610  0.03750  0.58430  Biso   1.000  C
  C67      1.0000 0.29870  0.55040  0.30140  Biso   1.000  C
  C68      1.0000 0.70130  0.05040  0.69860  Biso   1.000  C
  H87      1.0000 0.32270  0.56200  0.24630  Biso   1.000  H
  H88      1.0000 0.67730  0.06200  0.75370  Biso   1.000  H
  C69      1.0000 0.28910  0.62270  0.35030  Biso   1.000  C
  C70      1.0000 0.71090  0.12270  0.64970  Biso   1.000  C
  H89      1.0000 0.22960  0.65220  0.29910  Biso   1.000  H
  H90      1.0000 0.77040  0.15220  0.70090  Biso   1.000  H
  H91      1.0000 0.36150  0.64830  0.37530  Biso   1.000  H
  H92      1.0000 0.63850  0.14830  0.62470  Biso   1.000  H
  H93      1.0000 0.27010  0.61330  0.40750  Biso   1.000  H
  H94      1.0000 0.72990  0.11330  0.59250  Biso   1.000  H
  C71      1.0000 0.18160  0.51030  0.24930  Biso   1.000  C
  C72      1.0000 0.81840  0.01030  0.75070  Biso   1.000  C
  H95      1.0000 0.12500  0.54250  0.20010  Biso   1.000  H
  H96      1.0000 0.87500  0.04250  0.79990  Biso   1.000  H
  H97      1.0000 0.15710  0.49600  0.30160  Biso   1.000  H
  H98      1.0000 0.84290  0.99600  0.69840  Biso   1.000  H
  H99      1.0000 0.18970  0.46740  0.21380  Biso   1.000  H
  H100     1.0000 0.81030  0.96740  0.78620  Biso   1.000  H
  C73      1.0000 0.76780  0.50490  0.76880  Biso   1.000  C
  C74      1.0000 0.23220  0.00490  0.23120  Biso   1.000  C
  C75      1.0000 0.81380  0.48770  0.69840  Biso   1.000  C
  C76      1.0000 0.18620  0.98770  0.30160  Biso   1.000  C
  H101     1.0000 0.76520  0.47830  0.62880  Biso   1.000  H
  H102     1.0000 0.23480  0.97830  0.37120  Biso   1.000  H
  C77      1.0000 0.93400  0.48470  0.73430  Biso   1.000  C
  C78      1.0000 0.06600  0.98470  0.26570  Biso   1.000  C
  H103     1.0000 0.96460  0.47310  0.68760  Biso   1.000  H
  H104     1.0000 0.03540  0.97310  0.31240  Biso   1.000  H
  C79      1.0000 0.00760  0.49830  0.83620  Biso   1.000  C
  C80      1.0000 0.99240  0.99830  0.16380  Biso   1.000  C
  H105     1.0000 0.08710  0.49450  0.85900  Biso   1.000  H
  H106     1.0000 0.91290  0.99450  0.14100  Biso   1.000  H
  C81      1.0000 0.96190  0.51780  0.90510  Biso   1.000  C
  C82      1.0000 0.03810  0.01780  0.09490  Biso   1.000  C
  H107     1.0000 0.01200  0.52780  0.97410  Biso   1.000  H
  H108     1.0000 0.98800  0.02780  0.02590  Biso   1.000  H
  C83      1.0000 0.84260  0.52290  0.87350  Biso   1.000  C
  C84      1.0000 0.15740  0.02290  0.12650  Biso   1.000  C
  C85      1.0000 0.79260  0.55020  0.94460  Biso   1.000  C
  C86      1.0000 0.20740  0.05020  0.05540  Biso   1.000  C
  H109     1.0000 0.85540  0.56160  0.01180  Biso   1.000  H
  H110     1.0000 0.14460  0.06160  0.98820  Biso   1.000  H
  H111     1.0000 0.75070  0.59540  0.91620  Biso   1.000  H
  H112     1.0000 0.24930  0.09540  0.08380  Biso   1.000  H
  C87      1.0000 0.76540  0.43050  0.02330  Biso   1.000  C
  C88      1.0000 0.23460  0.93050  0.97670  Biso   1.000  C
  H113     1.0000 0.81860  0.40940  0.99770  Biso   1.000  H
  H114     1.0000 0.18140  0.90940  0.00230  Biso   1.000  H
  C89      1.0000 0.66790  0.37470  0.00100  Biso   1.000  C
  C90      1.0000 0.33210  0.87470  0.99900  Biso   1.000  C
  C91      1.0000 0.83700  0.44840  0.14090  Biso   1.000  C
  C92      1.0000 0.16300  0.94840  0.85910  Biso   1.000  C
  H115     1.0000 0.88360  0.49200  0.14490  Biso   1.000  H
  H116     1.0000 0.11640  0.99200  0.85510  Biso   1.000  H
  C93      1.0000 0.75910  0.46780  0.19300  Biso   1.000  C
  C94      1.0000 0.24090  0.96780  0.80700  Biso   1.000  C
  H117     1.0000 0.70780  0.50680  0.15500  Biso   1.000  H
  H118     1.0000 0.29220  0.00680  0.84500  Biso   1.000  H
  H119     1.0000 0.80560  0.48340  0.26330  Biso   1.000  H
  H120     1.0000 0.19440  0.98340  0.73670  Biso   1.000  H
  H121     1.0000 0.71470  0.42550  0.19340  Biso   1.000  H
  H122     1.0000 0.28530  0.92550  0.80660  Biso   1.000  H
  C95      1.0000 0.92070  0.38640  0.19660  Biso   1.000  C
  C96      1.0000 0.07930  0.88640  0.80340  Biso   1.000  C
  H123     1.0000 0.96710  0.37560  0.16030  Biso   1.000  H
  H124     1.0000 0.03290  0.87560  0.83970  Biso   1.000  H
  H125     1.0000 0.87790  0.34340  0.19770  Biso   1.000  H
  H126     1.0000 0.12210  0.84340  0.80230  Biso   1.000  H
  H127     1.0000 0.97000  0.40110  0.26670  Biso   1.000  H
  H128     1.0000 0.03000  0.90110  0.73330  Biso   1.000  H
  O29      1.0000 0.58490  0.90350  0.97610  Biso   1.000  O
  O30      1.0000 0.41510  0.40350  0.02390  Biso   1.000  O
  H129     1.0000 0.61990  0.94180  0.97980  Biso   1.000  H
  H130     1.0000 0.38010  0.44180  0.02020  Biso   1.000  H
  C97      1.0000 0.64490  0.84600  0.96160  Biso   1.000  C
  C98      1.0000 0.35510  0.34600  0.03840  Biso   1.000  C
  H131     1.0000 0.67500  0.81860  0.02730  Biso   1.000  H
  H132     1.0000 0.32500  0.31860  0.97270  Biso   1.000  H
  C99      1.0000 0.57590  0.79030  0.87780  Biso   1.000  C
  C100     1.0000 0.42410  0.29030  0.12220  Biso   1.000  C
  H133     1.0000 0.50880  0.77560  0.88670  Biso   1.000  H
  H134     1.0000 0.49120  0.27560  0.11330  Biso   1.000  H
  H135     1.0000 0.62320  0.74800  0.88390  Biso   1.000  H
  H136     1.0000 0.37680  0.24800  0.11610  Biso   1.000  H
  H137     1.0000 0.55240  0.81200  0.81020  Biso   1.000  H
  H138     1.0000 0.44760  0.31200  0.18980  Biso   1.000  H
  C101     1.0000 0.75290  0.87250  0.94970  Biso   1.000  C
  C102     1.0000 0.24710  0.37250  0.05030  Biso   1.000  C
  H139     1.0000 0.79350  0.90820  0.00260  Biso   1.000  H
  H140     1.0000 0.20650  0.40820  0.99740  Biso   1.000  H
  H141     1.0000 0.72960  0.89430  0.88210  Biso   1.000  H
  H142     1.0000 0.27040  0.39430  0.11790  Biso   1.000  H
  H143     1.0000 0.80270  0.83140  0.95680  Biso   1.000  H
  H144     1.0000 0.19730  0.33140  0.04320  Biso   1.000  H
  O31      1.0000 0.40550  0.85820  0.48900  Biso   1.000  O
  O32      1.0000 0.59450  0.35820  0.51100  Biso   1.000  O
  H145     1.0000 0.37860  0.83970  0.43070  Biso   1.000  H
  H146     1.0000 0.62140  0.33970  0.56930  Biso   1.000  H
  C103     1.0000 0.34110  0.83630  0.54080  Biso   1.000  C
  C104     1.0000 0.65890  0.33630  0.45920  Biso   1.000  C
  H147     1.0000 0.39340  0.80600  0.59900  Biso   1.000  H
  H148     1.0000 0.60660  0.30600  0.40100  Biso   1.000  H
  C105     1.0000 0.24230  0.78460  0.47220  Biso   1.000  C
  C106     1.0000 0.75770  0.28460  0.52780  Biso   1.000  C
  H149     1.0000 0.27200  0.74760  0.44220  Biso   1.000  H
  H150     1.0000 0.72800  0.24760  0.55780  Biso   1.000  H
  H151     1.0000 0.18360  0.81240  0.41750  Biso   1.000  H
  H152     1.0000 0.81640  0.31240  0.58250  Biso   1.000  H
  H153     1.0000 0.20960  0.76160  0.51410  Biso   1.000  H
  H154     1.0000 0.79040  0.26160  0.48590  Biso   1.000  H
  C107     1.0000 0.29900  0.89660  0.59020  Biso   1.000  C
  C108     1.0000 0.70100  0.39660  0.40980  Biso   1.000  C
  H155     1.0000 0.36270  0.92780  0.63170  Biso   1.000  H
  H156     1.0000 0.63730  0.42780  0.36830  Biso   1.000  H
  H157     1.0000 0.26720  0.87490  0.63350  Biso   1.000  H
  H158     1.0000 0.73280  0.37490  0.36650  Biso   1.000  H
  H159     1.0000 0.24060  0.92510  0.53640  Biso   1.000  H
  H160     1.0000 0.75940  0.42510  0.46360  Biso   1.000  H
