data_image0
_cell_length_a       11.0032
_cell_length_b       7.6246
_cell_length_c       16.1711
_cell_angle_alpha    90
_cell_angle_beta     91.969
_cell_angle_gamma    90

_symmetry_space_group_name_H-M    "P 1"
_symmetry_int_tables_number       1

loop_
  _symmetry_equiv_pos_as_xyz
  'x, y, z'

loop_
  _atom_site_label
  _atom_site_occupancy
  _atom_site_fract_x
  _atom_site_fract_y
  _atom_site_fract_z
  _atom_site_thermal_displace_type
  _atom_site_B_iso_or_equiv
  _atom_site_type_symbol
  Cu1      1.0000 0.23773  0.54273  0.22649  Biso   1.000  Cu
  Cu2      1.0000 0.76227  0.04273  0.77351  Biso   1.000  Cu
  O1       1.0000 0.28260  0.35780  0.30760  Biso   1.000  O
  O2       1.0000 0.71740  0.85780  0.69240  Biso   1.000  O
  O3       1.0000 0.17490  0.75400  0.17290  Biso   1.000  O
  O4       1.0000 0.82510  0.25400  0.82710  Biso   1.000  O
  O5       1.0000 0.20650  0.03920  0.15960  Biso   1.000  O
  O6       1.0000 0.79350  0.53920  0.84040  Biso   1.000  O
  N1       1.0000 0.38830  0.68280  0.24760  Biso   1.000  N
  N2       1.0000 0.61170  0.18280  0.75240  Biso   1.000  N
  H1       1.0000 0.44930  0.63250  0.21940  Biso   1.000  H
  H2       1.0000 0.55070  0.13250  0.78060  Biso   1.000  H
  C1       1.0000 0.39070  0.34570  0.35050  Biso   1.000  C
  C2       1.0000 0.60930  0.84570  0.64950  Biso   1.000  C
  C3       1.0000 0.42890  0.18650  0.38430  Biso   1.000  C
  C4       1.0000 0.57110  0.68650  0.61570  Biso   1.000  C
  H3       1.0000 0.37930  0.08820  0.37840  Biso   1.000  H
  H4       1.0000 0.62070  0.58820  0.62160  Biso   1.000  H
  C5       1.0000 0.54100  0.17270  0.42720  Biso   1.000  C
  C6       1.0000 0.45900  0.67270  0.57280  Biso   1.000  C
  H5       1.0000 0.56630  0.06500  0.44870  Biso   1.000  H
  H6       1.0000 0.43370  0.56500  0.55130  Biso   1.000  H
  C7       1.0000 0.61390  0.31770  0.43770  Biso   1.000  C
  C8       1.0000 0.38610  0.81770  0.56230  Biso   1.000  C
  H7       1.0000 0.68850  0.30890  0.46630  Biso   1.000  H
  H8       1.0000 0.31150  0.80890  0.53370  Biso   1.000  H
  C9       1.0000 0.57560  0.47490  0.40590  Biso   1.000  C
  C10      1.0000 0.42440  0.97490  0.59410  Biso   1.000  C
  H9       1.0000 0.62580  0.57230  0.41250  Biso   1.000  H
  H10      1.0000 0.37420  0.07230  0.58750  Biso   1.000  H
  C11      1.0000 0.46240  0.49420  0.36330  Biso   1.000  C
  C12      1.0000 0.53760  0.99420  0.63670  Biso   1.000  C
  C13      1.0000 0.42160  0.67440  0.33780  Biso   1.000  C
  C14      1.0000 0.57840  0.17440  0.66220  Biso   1.000  C
  H11      1.0000 0.35180  0.70770  0.36930  Biso   1.000  H
  H12      1.0000 0.64820  0.20770  0.63070  Biso   1.000  H
  H13      1.0000 0.48630  0.75750  0.35030  Biso   1.000  H
  H14      1.0000 0.51370  0.25750  0.64970  Biso   1.000  H
  C15      1.0000 0.37080  0.86640  0.21620  Biso   1.000  C
  C16      1.0000 0.62920  0.36640  0.78380  Biso   1.000  C
  H15      1.0000 0.37890  0.94470  0.26420  Biso   1.000  H
  H16      1.0000 0.62110  0.44470  0.73580  Biso   1.000  H
  C17      1.0000 0.24140  0.88830  0.18000  Biso   1.000  C
  C18      1.0000 0.75860  0.38830  0.82000  Biso   1.000  C
  C19      1.0000 0.47010  0.92040  0.15540  Biso   1.000  C
  C20      1.0000 0.52990  0.42040  0.84460  Biso   1.000  C
  H17      1.0000 0.45310  0.04150  0.13840  Biso   1.000  H
  H18      1.0000 0.54690  0.54150  0.86160  Biso   1.000  H
  C21      1.0000 0.59680  0.91900  0.19870  Biso   1.000  C
  C22      1.0000 0.40320  0.41900  0.80130  Biso   1.000  C
  H19      1.0000 0.59560  0.99070  0.24750  Biso   1.000  H
  H20      1.0000 0.40440  0.49070  0.75250  Biso   1.000  H
  H21      1.0000 0.65550  0.96460  0.16180  Biso   1.000  H
  H22      1.0000 0.34450  0.46460  0.83820  Biso   1.000  H
  H23      1.0000 0.61820  0.80100  0.21390  Biso   1.000  H
  H24      1.0000 0.38180  0.30100  0.78610  Biso   1.000  H
  C23      1.0000 0.46570  0.80940  0.07800  Biso   1.000  C
  C24      1.0000 0.53430  0.30940  0.92200  Biso   1.000  C
  H25      1.0000 0.38540  0.81350  0.05300  Biso   1.000  H
  H26      1.0000 0.61460  0.31350  0.94700  Biso   1.000  H
  H27      1.0000 0.48600  0.69040  0.09210  Biso   1.000  H
  H28      1.0000 0.51400  0.19040  0.90790  Biso   1.000  H
  H29      1.0000 0.52300  0.85390  0.03980  Biso   1.000  H
  H30      1.0000 0.47700  0.35390  0.96020  Biso   1.000  H
  Cu3      1.0000 0.13426  0.21263  0.30003  Biso   1.000  Cu
  Cu4      1.0000 0.86574  0.71263  0.69997  Biso   1.000  Cu
  O7       1.0000 0.08750  0.40840  0.22950  Biso   1.000  O
  O8       1.0000 0.91250  0.90840  0.77050  Biso   1.000  O
  O9       1.0000 0.17690  0.01010  0.36380  Biso   1.000  O
  O10      1.0000 0.82310  0.51010  0.63620  Biso   1.000  O
  O11      1.0000 0.10470  0.83150  0.45800  Biso   1.000  O
  O12      1.0000 0.89530  0.33150  0.54200  Biso   1.000  O
  N3       1.0000 0.96550  0.13150  0.31320  Biso   1.000  N
  N4       1.0000 0.03450  0.63150  0.68680  Biso   1.000  N
  H31      1.0000 0.94600  0.05640  0.27110  Biso   1.000  H
  H32      1.0000 0.05400  0.55640  0.72890  Biso   1.000  H
  C25      1.0000 0.97680  0.42280  0.18860  Biso   1.000  C
  C26      1.0000 0.02320  0.92280  0.81140  Biso   1.000  C
  C27      1.0000 0.97100  0.49690  0.10920  Biso   1.000  C
  C28      1.0000 0.02900  0.99690  0.89080  Biso   1.000  C
  H33      1.0000 0.04160  0.53040  0.08340  Biso   1.000  H
  H34      1.0000 0.95840  0.03040  0.91660  Biso   1.000  H
  C29      1.0000 0.85740  0.51950  0.06940  Biso   1.000  C
  C30      1.0000 0.14260  0.01950  0.93060  Biso   1.000  C
  H35      1.0000 0.85200  0.57050  0.01720  Biso   1.000  H
  H36      1.0000 0.14800  0.07050  0.98280  Biso   1.000  H
  C31      1.0000 0.75280  0.46660  0.10730  Biso   1.000  C
  C32      1.0000 0.24720  0.96660  0.89270  Biso   1.000  C
  H37      1.0000 0.67710  0.48390  0.08120  Biso   1.000  H
  H38      1.0000 0.32290  0.98390  0.91880  Biso   1.000  H
  C33      1.0000 0.76120  0.38880  0.18330  Biso   1.000  C
  C34      1.0000 0.23880  0.88880  0.81670  Biso   1.000  C
  H39      1.0000 0.69050  0.35060  0.20760  Biso   1.000  H
  H40      1.0000 0.30950  0.85060  0.79240  Biso   1.000  H
  C35      1.0000 0.87250  0.36500  0.22570  Biso   1.000  C
  C36      1.0000 0.12750  0.86500  0.77430  Biso   1.000  C
  C37      1.0000 0.87820  0.28140  0.30910  Biso   1.000  C
  C38      1.0000 0.12180  0.78140  0.69090  Biso   1.000  C
  H41      1.0000 0.79780  0.23980  0.32230  Biso   1.000  H
  H42      1.0000 0.20220  0.73980  0.67770  Biso   1.000  H
  H43      1.0000 0.90270  0.36840  0.35010  Biso   1.000  H
  H44      1.0000 0.09730  0.86840  0.64990  Biso   1.000  H
  C39      1.0000 0.96390  0.03190  0.39240  Biso   1.000  C
  C40      1.0000 0.03610  0.53190  0.60760  Biso   1.000  C
  H45      1.0000 0.95480  0.11890  0.43640  Biso   1.000  H
  H46      1.0000 0.04520  0.61890  0.56360  Biso   1.000  H
  C41      1.0000 0.09110  0.94810  0.40690  Biso   1.000  C
  C42      1.0000 0.90890  0.44810  0.59310  Biso   1.000  C
  C43      1.0000 0.85630  0.90600  0.39790  Biso   1.000  C
  C44      1.0000 0.14370  0.40600  0.60210  Biso   1.000  C
  H47      1.0000 0.78580  0.96670  0.37260  Biso   1.000  H
  H48      1.0000 0.21420  0.46670  0.62740  Biso   1.000  H
  C45      1.0000 0.82500  0.86940  0.48700  Biso   1.000  C
  C46      1.0000 0.17500  0.36940  0.51300  Biso   1.000  C
  H49      1.0000 0.75680  0.79090  0.48800  Biso   1.000  H
  H50      1.0000 0.24320  0.29090  0.51200  Biso   1.000  H
  H51      1.0000 0.80470  0.97740  0.51370  Biso   1.000  H
  H52      1.0000 0.19530  0.47740  0.48630  Biso   1.000  H
  H53      1.0000 0.89370  0.81670  0.51560  Biso   1.000  H
  H54      1.0000 0.10630  0.31670  0.48440  Biso   1.000  H
  C47      1.0000 0.87350  0.73980  0.34770  Biso   1.000  C
  C48      1.0000 0.12650  0.23980  0.65230  Biso   1.000  C
  H55      1.0000 0.80390  0.66530  0.35280  Biso   1.000  H
  H56      1.0000 0.19610  0.16530  0.64720  Biso   1.000  H
  H57      1.0000 0.94500  0.67940  0.36810  Biso   1.000  H
  H58      1.0000 0.05500  0.17940  0.63190  Biso   1.000  H
  H59      1.0000 0.88260  0.76990  0.29060  Biso   1.000  H
  H60      1.0000 0.11740  0.26990  0.70940  Biso   1.000  H
  O13      1.0000 0.31410  0.38050  0.11940  Biso   1.000  O
  O14      1.0000 0.68590  0.88050  0.88060  Biso   1.000  O
  H61      1.0000 0.27900  0.27500  0.12700  Biso   1.000  H
  H62      1.0000 0.72100  0.77500  0.87300  Biso   1.000  H
  H63      1.0000 0.28100  0.42400  0.07240  Biso   1.000  H
  H64      1.0000 0.71900  0.92400  0.92760  Biso   1.000  H
  O15      1.0000 0.21920  0.54840  0.97730  Biso   1.000  O
  O16      1.0000 0.78080  0.04840  0.02270  Biso   1.000  O
  H65      1.0000 0.23000  0.66200  0.96500  Biso   1.000  H
  H66      1.0000 0.77000  0.16200  0.03500  Biso   1.000  H
  H67      1.0000 0.15800  0.51000  0.94300  Biso   1.000  H
  H68      1.0000 0.84200  0.01000  0.05700  Biso   1.000  H
  O17      1.0000 0.95120  0.94900  0.14160  Biso   1.000  O
  O18      1.0000 0.04880  0.44900  0.85840  Biso   1.000  O
  H69      1.0000 0.03200  0.95100  0.13800  Biso   1.000  H
  H70      1.0000 0.96800  0.45100  0.86200  Biso   1.000  H
  H71      1.0000 0.93100  0.84200  0.16000  Biso   1.000  H
  H72      1.0000 0.06900  0.34200  0.84000  Biso   1.000  H
