data_image0
_cell_length_a       12.8761
_cell_length_b       18.0335
_cell_length_c       14.2517
_cell_angle_alpha    90
_cell_angle_beta     115.237
_cell_angle_gamma    90

_symmetry_space_group_name_H-M    "P 1"
_symmetry_int_tables_number       1

loop_
  _symmetry_equiv_pos_as_xyz
  'x, y, z'

loop_
  _atom_site_label
  _atom_site_occupancy
  _atom_site_fract_x
  _atom_site_fract_y
  _atom_site_fract_z
  _atom_site_thermal_displace_type
  _atom_site_B_iso_or_equiv
  _atom_site_type_symbol
  Cu1      1.0000 0.00327  0.38746  0.59975  Biso   1.000  Cu
  Cu2      1.0000 0.99673  0.88746  0.40025  Biso   1.000  Cu
  O1       1.0000 0.95570  0.42800  0.70260  Biso   1.000  O
  O2       1.0000 0.04430  0.92800  0.29740  Biso   1.000  O
  C1       1.0000 0.85220  0.46200  0.67750  Biso   1.000  C
  C2       1.0000 0.14780  0.96200  0.32250  Biso   1.000  C
  C3       1.0000 0.84690  0.52060  0.73950  Biso   1.000  C
  C4       1.0000 0.15310  0.02060  0.26050  Biso   1.000  C
  H1       1.0000 0.91290  0.53740  0.79490  Biso   1.000  H
  H2       1.0000 0.08710  0.03740  0.20510  Biso   1.000  H
  C5       1.0000 0.74050  0.55340  0.71670  Biso   1.000  C
  C6       1.0000 0.25950  0.05340  0.28330  Biso   1.000  C
  H3       1.0000 0.73590  0.59140  0.75880  Biso   1.000  H
  H4       1.0000 0.26410  0.09140  0.24120  Biso   1.000  H
  C7       1.0000 0.64360  0.53110  0.63410  Biso   1.000  C
  C8       1.0000 0.35640  0.03110  0.36590  Biso   1.000  C
  H5       1.0000 0.57340  0.55330  0.62030  Biso   1.000  H
  H6       1.0000 0.42660  0.05330  0.37970  Biso   1.000  H
  C9       1.0000 0.65050  0.47520  0.57130  Biso   1.000  C
  C10      1.0000 0.34950  0.97520  0.42870  Biso   1.000  C
  H7       1.0000 0.58490  0.46150  0.51310  Biso   1.000  H
  H8       1.0000 0.41510  0.96150  0.48690  Biso   1.000  H
  C11      1.0000 0.75460  0.43850  0.59300  Biso   1.000  C
  C12      1.0000 0.24540  0.93850  0.40700  Biso   1.000  C
  C13      1.0000 0.75710  0.37830  0.52010  Biso   1.000  C
  C14      1.0000 0.24290  0.87830  0.47990  Biso   1.000  C
  H9       1.0000 0.68310  0.37560  0.46060  Biso   1.000  H
  H10      1.0000 0.31690  0.87560  0.53940  Biso   1.000  H
  H11      1.0000 0.77210  0.33080  0.55530  Biso   1.000  H
  H12      1.0000 0.22790  0.83080  0.44470  Biso   1.000  H
  N1       1.0000 0.84970  0.39500  0.48440  Biso   1.000  N
  N2       1.0000 0.15030  0.89500  0.51560  Biso   1.000  N
  H13      1.0000 0.83990  0.44250  0.46090  Biso   1.000  H
  H14      1.0000 0.16010  0.94250  0.53910  Biso   1.000  H
  C15      1.0000 0.84110  0.34580  0.39750  Biso   1.000  C
  C16      1.0000 0.15890  0.84580  0.60250  Biso   1.000  C
  H15      1.0000 0.80960  0.29860  0.40770  Biso   1.000  H
  H16      1.0000 0.19040  0.79860  0.59230  Biso   1.000  H
  C17      1.0000 0.96510  0.32940  0.41100  Biso   1.000  C
  C18      1.0000 0.03490  0.82940  0.58900  Biso   1.000  C
  O3       1.0000 0.04890  0.34340  0.49760  Biso   1.000  O
  O4       1.0000 0.95110  0.84340  0.50240  Biso   1.000  O
  O5       1.0000 0.97830  0.30090  0.33550  Biso   1.000  O
  O6       1.0000 0.02170  0.80090  0.66450  Biso   1.000  O
  C19      1.0000 0.75730  0.37530  0.29260  Biso   1.000  C
  C20      1.0000 0.24270  0.87530  0.70740  Biso   1.000  C
  H17      1.0000 0.68910  0.39070  0.30160  Biso   1.000  H
  H18      1.0000 0.31090  0.89070  0.69840  Biso   1.000  H
  C21      1.0000 0.71520  0.31420  0.20680  Biso   1.000  C
  C22      1.0000 0.28480  0.81420  0.79320  Biso   1.000  C
  H19      1.0000 0.70660  0.26810  0.23650  Biso   1.000  H
  H20      1.0000 0.29340  0.76810  0.76350  Biso   1.000  H
  H21      1.0000 0.77040  0.30830  0.17870  Biso   1.000  H
  H22      1.0000 0.22960  0.80830  0.82130  Biso   1.000  H
  H23      1.0000 0.64260  0.32860  0.15260  Biso   1.000  H
  H24      1.0000 0.35740  0.82860  0.84740  Biso   1.000  H
  C23      1.0000 0.79890  0.44210  0.26120  Biso   1.000  C
  C24      1.0000 0.20110  0.94210  0.73880  Biso   1.000  C
  H25      1.0000 0.74330  0.45790  0.19420  Biso   1.000  H
  H26      1.0000 0.25670  0.95790  0.80580  Biso   1.000  H
  H27      1.0000 0.87020  0.43150  0.25780  Biso   1.000  H
  H28      1.0000 0.12980  0.93150  0.74220  Biso   1.000  H
  H29      1.0000 0.81040  0.48080  0.31100  Biso   1.000  H
  H30      1.0000 0.18960  0.98080  0.68900  Biso   1.000  H
  Cu3      1.0000 0.09785  0.42325  0.82864  Biso   1.000  Cu
  Cu4      1.0000 0.90215  0.92325  0.17136  Biso   1.000  Cu
  O7       1.0000 0.14950  0.39140  0.72440  Biso   1.000  O
  O8       1.0000 0.85050  0.89140  0.27560  Biso   1.000  O
  C25      1.0000 0.26030  0.39920  0.73810  Biso   1.000  C
  C26      1.0000 0.73970  0.89920  0.26190  Biso   1.000  C
  C27      1.0000 0.28090  0.41980  0.65330  Biso   1.000  C
  C28      1.0000 0.71910  0.91980  0.34670  Biso   1.000  C
  H31      1.0000 0.22050  0.42500  0.58790  Biso   1.000  H
  H32      1.0000 0.77950  0.92500  0.41210  Biso   1.000  H
  C29      1.0000 0.39410  0.43250  0.66840  Biso   1.000  C
  C30      1.0000 0.60590  0.93250  0.33160  Biso   1.000  C
  H33      1.0000 0.40910  0.44910  0.61360  Biso   1.000  H
  H34      1.0000 0.59090  0.94910  0.38640  Biso   1.000  H
  C31      1.0000 0.48390  0.42050  0.76490  Biso   1.000  C
  C32      1.0000 0.51610  0.92050  0.23510  Biso   1.000  C
  H35      1.0000 0.55940  0.42670  0.77420  Biso   1.000  H
  H36      1.0000 0.44060  0.92670  0.22580  Biso   1.000  H
  C33      1.0000 0.46130  0.39970  0.84590  Biso   1.000  C
  C34      1.0000 0.53870  0.89970  0.15410  Biso   1.000  C
  H37      1.0000 0.52160  0.39400  0.91120  Biso   1.000  H
  H38      1.0000 0.47840  0.89400  0.08880  Biso   1.000  H
  C35      1.0000 0.34810  0.38650  0.83270  Biso   1.000  C
  C36      1.0000 0.65190  0.88650  0.16730  Biso   1.000  C
  C37      1.0000 0.32200  0.36340  0.92140  Biso   1.000  C
  C38      1.0000 0.67800  0.86340  0.07860  Biso   1.000  C
  H39      1.0000 0.27770  0.31790  0.90420  Biso   1.000  H
  H40      1.0000 0.72230  0.81790  0.09580  Biso   1.000  H
  H41      1.0000 0.39290  0.35450  0.98260  Biso   1.000  H
  H42      1.0000 0.60710  0.85450  0.01740  Biso   1.000  H
  N3       1.0000 0.25520  0.42390  0.94260  Biso   1.000  N
  N4       1.0000 0.74480  0.92390  0.05740  Biso   1.000  N
  H43      1.0000 0.28850  0.46790  0.94000  Biso   1.000  H
  H44      1.0000 0.71150  0.96790  0.06000  Biso   1.000  H
  C39      1.0000 0.24730  0.42000  0.04460  Biso   1.000  C
  C40      1.0000 0.75270  0.92000  0.95540  Biso   1.000  C
  H45      1.0000 0.25330  0.36760  0.06440  Biso   1.000  H
  H46      1.0000 0.74670  0.86760  0.93560  Biso   1.000  H
  C41      1.0000 0.12790  0.44610  0.02700  Biso   1.000  C
  C42      1.0000 0.87210  0.94610  0.97300  Biso   1.000  C
  O9       1.0000 0.05540  0.45940  0.93360  Biso   1.000  O
  O10      1.0000 0.94460  0.95940  0.06640  Biso   1.000  O
  O11      1.0000 0.10630  0.45510  0.10350  Biso   1.000  O
  O12      1.0000 0.89370  0.95510  0.89650  Biso   1.000  O
  C43      1.0000 0.34660  0.46200  0.13390  Biso   1.000  C
  C44      1.0000 0.65340  0.96200  0.86610  Biso   1.000  C
  H47      1.0000 0.32620  0.51470  0.12580  Biso   1.000  H
  H48      1.0000 0.67380  0.01470  0.87420  Biso   1.000  H
  C45      1.0000 0.35770  0.43900  0.24010  Biso   1.000  C
  C46      1.0000 0.64230  0.93900  0.75990  Biso   1.000  C
  H49      1.0000 0.28630  0.44780  0.24440  Biso   1.000  H
  H50      1.0000 0.71370  0.94780  0.75560  Biso   1.000  H
  H51      1.0000 0.41740  0.46750  0.29250  Biso   1.000  H
  H52      1.0000 0.58260  0.96750  0.70750  Biso   1.000  H
  H53      1.0000 0.37650  0.38720  0.25070  Biso   1.000  H
  H54      1.0000 0.62350  0.88720  0.74930  Biso   1.000  H
  C47      1.0000 0.46200  0.45570  0.13150  Biso   1.000  C
  C48      1.0000 0.53800  0.95570  0.86850  Biso   1.000  C
  H55      1.0000 0.45600  0.47190  0.06520  Biso   1.000  H
  H56      1.0000 0.54400  0.97190  0.93480  Biso   1.000  H
  H57      1.0000 0.48720  0.40500  0.14280  Biso   1.000  H
  H58      1.0000 0.51280  0.90500  0.85720  Biso   1.000  H
  H59      1.0000 0.51660  0.48620  0.18510  Biso   1.000  H
  H60      1.0000 0.48340  0.98620  0.81490  Biso   1.000  H
  Cu5      1.0000 0.03323  0.23537  0.11256  Biso   1.000  Cu
  Cu6      1.0000 0.96677  0.73537  0.88744  Biso   1.000  Cu
  O13      1.0000 0.98530  0.17510  0.20200  Biso   1.000  O
  O14      1.0000 0.01470  0.67510  0.79800  Biso   1.000  O
  C49      1.0000 0.87790  0.14930  0.17720  Biso   1.000  C
  C50      1.0000 0.12210  0.64930  0.82280  Biso   1.000  C
  C51      1.0000 0.84250  0.13100  0.25380  Biso   1.000  C
  C52      1.0000 0.15750  0.63100  0.74620  Biso   1.000  C
  H61      1.0000 0.89390  0.13620  0.32310  Biso   1.000  H
  H62      1.0000 0.10610  0.63620  0.67690  Biso   1.000  H
  C53      1.0000 0.73260  0.10500  0.22990  Biso   1.000  C
  C54      1.0000 0.26740  0.60500  0.77010  Biso   1.000  C
  H63      1.0000 0.71200  0.09250  0.28290  Biso   1.000  H
  H64      1.0000 0.28800  0.59250  0.71710  Biso   1.000  H
  C55      1.0000 0.65520  0.09800  0.12970  Biso   1.000  C
  C56      1.0000 0.34480  0.59800  0.87030  Biso   1.000  C
  H65      1.0000 0.58110  0.08120  0.11310  Biso   1.000  H
  H66      1.0000 0.41890  0.58120  0.88690  Biso   1.000  H
  C57      1.0000 0.68900  0.11620  0.05290  Biso   1.000  C
  C58      1.0000 0.31100  0.61620  0.94710  Biso   1.000  C
  H67      1.0000 0.63570  0.11300  0.98400  Biso   1.000  H
  H68      1.0000 0.36430  0.61300  0.01600  Biso   1.000  H
  C59      1.0000 0.79950  0.13910  0.07470  Biso   1.000  C
  C60      1.0000 0.20050  0.63910  0.92530  Biso   1.000  C
  C61      1.0000 0.83430  0.14880  0.98600  Biso   1.000  C
  C62      1.0000 0.16570  0.64880  0.01400  Biso   1.000  C
  H69      1.0000 0.88890  0.11050  0.99020  Biso   1.000  H
  H70      1.0000 0.11110  0.61050  0.00980  Biso   1.000  H
  H71      1.0000 0.76710  0.14290  0.92060  Biso   1.000  H
  H72      1.0000 0.23290  0.64290  0.07940  Biso   1.000  H
  N5       1.0000 0.88670  0.22320  0.98840  Biso   1.000  N
  N6       1.0000 0.11330  0.72320  0.01160  Biso   1.000  N
  H73      1.0000 0.83740  0.25740  0.99360  Biso   1.000  H
  H74      1.0000 0.16260  0.75740  0.00640  Biso   1.000  H
  C63      1.0000 0.90230  0.24240  0.89330  Biso   1.000  C
  C64      1.0000 0.09770  0.74240  0.10670  Biso   1.000  C
  H75      1.0000 0.89670  0.19600  0.85560  Biso   1.000  H
  H76      1.0000 0.10330  0.69600  0.14440  Biso   1.000  H
  C65      1.0000 0.02140  0.27280  0.92270  Biso   1.000  C
  C66      1.0000 0.97860  0.77280  0.07730  Biso   1.000  C
  O15      1.0000 0.09070  0.27670  0.01900  Biso   1.000  O
  O16      1.0000 0.90930  0.77670  0.98100  Biso   1.000  O
  O17      1.0000 0.04950  0.29520  0.85390  Biso   1.000  O
  O18      1.0000 0.95050  0.79520  0.14610  Biso   1.000  O
  C67      1.0000 0.80840  0.29540  0.81800  Biso   1.000  C
  C68      1.0000 0.19160  0.79540  0.18200  Biso   1.000  C
  H77      1.0000 0.83190  0.30900  0.76330  Biso   1.000  H
  H78      1.0000 0.16810  0.80900  0.23670  Biso   1.000  H
  C69      1.0000 0.80260  0.36590  0.87160  Biso   1.000  C
  C70      1.0000 0.19740  0.86590  0.12840  Biso   1.000  C
  H79      1.0000 0.75310  0.40060  0.82130  Biso   1.000  H
  H80      1.0000 0.24690  0.90060  0.17870  Biso   1.000  H
  H81      1.0000 0.87810  0.38670  0.90620  Biso   1.000  H
  H82      1.0000 0.12190  0.88670  0.09380  Biso   1.000  H
  H83      1.0000 0.77280  0.35550  0.92150  Biso   1.000  H
  H84      1.0000 0.22720  0.85550  0.07850  Biso   1.000  H
  C71      1.0000 0.69060  0.26000  0.76470  Biso   1.000  C
  C72      1.0000 0.30940  0.76000  0.23530  Biso   1.000  C
  H85      1.0000 0.69650  0.21430  0.73290  Biso   1.000  H
  H86      1.0000 0.30350  0.71430  0.26710  Biso   1.000  H
  H87      1.0000 0.63970  0.29310  0.71260  Biso   1.000  H
  H88      1.0000 0.36030  0.79310  0.28740  Biso   1.000  H
  H89      1.0000 0.66090  0.25040  0.81500  Biso   1.000  H
  H90      1.0000 0.33910  0.75040  0.18500  Biso   1.000  H
  Cu7      1.0000 0.10175  0.20638  0.33800  Biso   1.000  Cu
  Cu8      1.0000 0.89825  0.70638  0.66200  Biso   1.000  Cu
  O19      1.0000 0.16590  0.24960  0.24590  Biso   1.000  O
  O20      1.0000 0.83410  0.74960  0.75410  Biso   1.000  O
  C73      1.0000 0.28050  0.24830  0.27730  Biso   1.000  C
  C74      1.0000 0.71950  0.74830  0.72270  Biso   1.000  C
  C75      1.0000 0.32770  0.22730  0.20740  Biso   1.000  C
  C76      1.0000 0.67230  0.72730  0.79260  Biso   1.000  C
  H91      1.0000 0.28000  0.21630  0.13860  Biso   1.000  H
  H92      1.0000 0.72000  0.71630  0.86140  Biso   1.000  H
  C77      1.0000 0.44640  0.22350  0.24380  Biso   1.000  C
  C78      1.0000 0.55360  0.72350  0.75620  Biso   1.000  C
  H93      1.0000 0.47780  0.21010  0.19840  Biso   1.000  H
  H94      1.0000 0.52220  0.71010  0.80160  Biso   1.000  H
  C79      1.0000 0.51890  0.23940  0.34600  Biso   1.000  C
  C80      1.0000 0.48110  0.73940  0.65400  Biso   1.000  C
  H95      1.0000 0.59800  0.23440  0.37040  Biso   1.000  H
  H96      1.0000 0.40200  0.73440  0.62960  Biso   1.000  H
  C81      1.0000 0.47060  0.26290  0.41070  Biso   1.000  C
  C82      1.0000 0.52940  0.76290  0.58930  Biso   1.000  C
  H97      1.0000 0.51890  0.27590  0.47860  Biso   1.000  H
  H98      1.0000 0.48110  0.77590  0.52140  Biso   1.000  H
  C83      1.0000 0.35400  0.26780  0.37850  Biso   1.000  C
  C84      1.0000 0.64600  0.76780  0.62150  Biso   1.000  C
  C85      1.0000 0.30490  0.29710  0.45020  Biso   1.000  C
  C86      1.0000 0.69510  0.79710  0.54980  Biso   1.000  C
  H99      1.0000 0.36720  0.30990  0.51630  Biso   1.000  H
  H100     1.0000 0.63280  0.80990  0.48370  Biso   1.000  H
  H101     1.0000 0.26150  0.34180  0.42070  Biso   1.000  H
  H102     1.0000 0.73850  0.84180  0.57930  Biso   1.000  H
  N7       1.0000 0.22800  0.24130  0.46750  Biso   1.000  N
  N8       1.0000 0.77200  0.74130  0.53250  Biso   1.000  N
  H103     1.0000 0.19530  0.26440  0.50490  Biso   1.000  H
  H104     1.0000 0.80470  0.76440  0.49510  Biso   1.000  H
  C87      1.0000 0.28600  0.17380  0.52610  Biso   1.000  C
  C88      1.0000 0.71400  0.67380  0.47390  Biso   1.000  C
  H105     1.0000 0.33160  0.15410  0.49150  Biso   1.000  H
  H106     1.0000 0.66840  0.65410  0.50850  Biso   1.000  H
  C89      1.0000 0.18940  0.11560  0.50770  Biso   1.000  C
  C90      1.0000 0.81060  0.61560  0.49230  Biso   1.000  C
  O21      1.0000 0.09360  0.12870  0.43040  Biso   1.000  O
  O22      1.0000 0.90640  0.62870  0.56960  Biso   1.000  O
  O23      1.0000 0.20840  0.06210  0.56480  Biso   1.000  O
  O24      1.0000 0.79160  0.56210  0.43520  Biso   1.000  O
  C91      1.0000 0.36760  0.18620  0.63560  Biso   1.000  C
  C92      1.0000 0.63240  0.68620  0.36440  Biso   1.000  C
  H107     1.0000 0.41440  0.22920  0.63610  Biso   1.000  H
  H108     1.0000 0.58560  0.72920  0.36390  Biso   1.000  H
  C93      1.0000 0.30500  0.20720  0.70510  Biso   1.000  C
  C94      1.0000 0.69500  0.70720  0.29490  Biso   1.000  C
  H109     1.0000 0.36090  0.21530  0.77500  Biso   1.000  H
  H110     1.0000 0.63910  0.71530  0.22500  Biso   1.000  H
  H111     1.0000 0.25470  0.16750  0.70390  Biso   1.000  H
  H112     1.0000 0.74530  0.66750  0.29610  Biso   1.000  H
  H113     1.0000 0.26100  0.25160  0.67890  Biso   1.000  H
  H114     1.0000 0.73900  0.75160  0.32110  Biso   1.000  H
  C95      1.0000 0.44910  0.12270  0.68100  Biso   1.000  C
  C96      1.0000 0.55090  0.62270  0.31900  Biso   1.000  C
  H115     1.0000 0.49390  0.11570  0.64240  Biso   1.000  H
  H116     1.0000 0.50610  0.61570  0.35760  Biso   1.000  H
  H117     1.0000 0.40640  0.07840  0.67770  Biso   1.000  H
  H118     1.0000 0.59360  0.57840  0.32230  Biso   1.000  H
  H119     1.0000 0.49920  0.13340  0.75210  Biso   1.000  H
  H120     1.0000 0.50080  0.63340  0.24790  Biso   1.000  H
  O25      1.0000 0.04100  0.51200  0.55060  Biso   1.000  O
  O26      1.0000 0.95900  0.01200  0.44940  Biso   1.000  O
  H121     1.0000 0.08000  0.52500  0.61790  Biso   1.000  H
  H122     1.0000 0.92000  0.02500  0.38210  Biso   1.000  H
  H123     1.0000 0.97100  0.52800  0.54300  Biso   1.000  H
  H124     1.0000 0.02900  0.02800  0.45700  Biso   1.000  H
  O27      1.0000 0.96010  0.35130  0.13900  Biso   1.000  O
  O28      1.0000 0.03990  0.85130  0.86100  Biso   1.000  O
  H125     1.0000 0.96600  0.34000  0.20280  Biso   1.000  H
  H126     1.0000 0.03400  0.84000  0.79720  Biso   1.000  H
  H127     1.0000 0.02600  0.37700  0.15900  Biso   1.000  H
  H128     1.0000 0.97400  0.87700  0.84100  Biso   1.000  H
  O29      1.0000 0.95820  0.26340  0.64610  Biso   1.000  O
  O30      1.0000 0.04180  0.76340  0.35390  Biso   1.000  O
  H129     1.0000 0.96190  0.26530  0.70490  Biso   1.000  H
  H130     1.0000 0.03810  0.76530  0.29510  Biso   1.000  H
  C97      1.0000 0.99300  0.18950  0.62770  Biso   1.000  C
  C98      1.0000 0.00700  0.68950  0.37230  Biso   1.000  C
  H131     1.0000 0.99040  0.18840  0.55870  Biso   1.000  H
  H132     1.0000 0.00960  0.68840  0.44130  Biso   1.000  H
  H133     1.0000 0.07200  0.18110  0.67690  Biso   1.000  H
  H134     1.0000 0.92800  0.68110  0.32310  Biso   1.000  H
  C99      1.0000 0.92530  0.13130  0.63620  Biso   1.000  C
  C100     1.0000 0.07470  0.63130  0.36380  Biso   1.000  C
  H135     1.0000 0.93360  0.13040  0.70710  Biso   1.000  H
  H136     1.0000 0.06640  0.63040  0.29290  Biso   1.000  H
  H137     1.0000 0.95690  0.08510  0.62470  Biso   1.000  H
  H138     1.0000 0.04310  0.58510  0.37530  Biso   1.000  H
  C101     1.0000 0.80310  0.13210  0.56780  Biso   1.000  C
  C102     1.0000 0.19690  0.63210  0.43220  Biso   1.000  C
  H139     1.0000 0.79390  0.12960  0.49660  Biso   1.000  H
  H140     1.0000 0.20610  0.62960  0.50340  Biso   1.000  H
  H141     1.0000 0.77160  0.17910  0.57630  Biso   1.000  H
  H142     1.0000 0.22840  0.67910  0.42370  Biso   1.000  H
  C103     1.0000 0.73610  0.07250  0.58400  Biso   1.000  C
  C104     1.0000 0.26390  0.57250  0.41600  Biso   1.000  C
  H143     1.0000 0.65680  0.07830  0.53670  Biso   1.000  H
  H144     1.0000 0.34320  0.57830  0.46330  Biso   1.000  H
  H145     1.0000 0.74390  0.07440  0.65400  Biso   1.000  H
  H146     1.0000 0.25610  0.57440  0.34600  Biso   1.000  H
  H147     1.0000 0.76360  0.02560  0.57200  Biso   1.000  H
  H148     1.0000 0.23640  0.52560  0.42800  Biso   1.000  H
  O31      1.0000 0.97390  0.57190  0.10720  Biso   1.000  O
  O32      1.0000 0.02610  0.07190  0.89280  Biso   1.000  O
  H149     1.0000 0.02700  0.58390  0.09310  Biso   1.000  H
  H150     1.0000 0.97300  0.08390  0.90690  Biso   1.000  H
  C105     1.0000 0.86390  0.57040  0.00970  Biso   1.000  C
  C106     1.0000 0.13610  0.07040  0.99030  Biso   1.000  C
  H151     1.0000 0.85300  0.62010  0.98100  Biso   1.000  H
  H152     1.0000 0.14700  0.12010  0.01900  Biso   1.000  H
  H153     1.0000 0.87740  0.53860  0.96120  Biso   1.000  H
  H154     1.0000 0.12260  0.03860  0.03880  Biso   1.000  H
  C107     1.0000 0.75450  0.54800  0.00710  Biso   1.000  C
  C108     1.0000 0.24550  0.04800  0.99290  Biso   1.000  C
  H155     1.0000 0.76010  0.49660  0.02890  Biso   1.000  H
  H156     1.0000 0.23990  0.99660  0.97110  Biso   1.000  H
  H157     1.0000 0.69650  0.55070  0.93610  Biso   1.000  H
  H158     1.0000 0.30350  0.05070  0.06390  Biso   1.000  H
  C109     1.0000 0.71580  0.59240  0.07270  Biso   1.000  C
  C110     1.0000 0.28420  0.09240  0.92730  Biso   1.000  C
  H159     1.0000 0.66030  0.56370  0.08660  Biso   1.000  H
  H160     1.0000 0.33970  0.06370  0.91340  Biso   1.000  H
  H161     1.0000 0.78110  0.60130  0.13860  Biso   1.000  H
  H162     1.0000 0.21890  0.10130  0.86140  Biso   1.000  H
  C111     1.0000 0.66510  0.66260  0.02990  Biso   1.000  C
  C112     1.0000 0.33490  0.16260  0.97010  Biso   1.000  C
  H163     1.0000 0.63550  0.68540  0.07440  Biso   1.000  H
  H164     1.0000 0.36450  0.18540  0.92560  Biso   1.000  H
  H165     1.0000 0.60370  0.65510  0.96240  Biso   1.000  H
  H166     1.0000 0.39630  0.15510  0.03760  Biso   1.000  H
  H167     1.0000 0.72220  0.69420  0.02440  Biso   1.000  H
  H168     1.0000 0.27780  0.19420  0.97560  Biso   1.000  H
  O33      1.0000 0.91550  0.60040  0.96450  Biso   1.000  O
  O34      1.0000 0.08450  0.10040  0.03550  Biso   1.000  O
  H169     1.0000 0.97030  0.62630  0.97030  Biso   1.000  H
  H170     1.0000 0.02970  0.12630  0.02970  Biso   1.000  H
  C113     1.0000 0.91980  0.58630  0.06880  Biso   1.000  C
  C114     1.0000 0.08020  0.08630  0.93120  Biso   1.000  C
  H171     1.0000 0.98920  0.55930  0.11160  Biso   1.000  H
  H172     1.0000 0.01080  0.05930  0.88840  Biso   1.000  H
  H173     1.0000 0.91940  0.63270  0.10290  Biso   1.000  H
  H174     1.0000 0.08060  0.13270  0.89710  Biso   1.000  H
  C115     1.0000 0.82260  0.54420  0.05420  Biso   1.000  C
  C116     1.0000 0.17740  0.04420  0.94580  Biso   1.000  C
  H175     1.0000 0.82890  0.53360  0.12310  Biso   1.000  H
  H176     1.0000 0.17110  0.03360  0.87690  Biso   1.000  H
  H177     1.0000 0.83200  0.49710  0.02570  Biso   1.000  H
  H178     1.0000 0.16800  0.99710  0.97430  Biso   1.000  H
  C117     1.0000 0.70440  0.56600  0.99320  Biso   1.000  C
  C118     1.0000 0.29560  0.06600  0.00680  Biso   1.000  C
  H179     1.0000 0.69900  0.58430  0.92730  Biso   1.000  H
  H180     1.0000 0.30100  0.08430  0.07270  Biso   1.000  H
  H181     1.0000 0.65810  0.52140  0.97860  Biso   1.000  H
  H182     1.0000 0.34190  0.02140  0.02140  Biso   1.000  H
  C119     1.0000 0.65190  0.61960  0.03200  Biso   1.000  C
  C120     1.0000 0.34810  0.11960  0.96800  Biso   1.000  C
  H183     1.0000 0.57540  0.62930  0.98070  Biso   1.000  H
  H184     1.0000 0.42460  0.12930  0.01930  Biso   1.000  H
  H185     1.0000 0.69580  0.66460  0.04750  Biso   1.000  H
  H186     1.0000 0.30420  0.16460  0.95250  Biso   1.000  H
  H187     1.0000 0.64890  0.60100  0.09390  Biso   1.000  H
  H188     1.0000 0.35110  0.10100  0.90610  Biso   1.000  H
