data_image0
_cell_length_a       13.143
_cell_length_b       17.513
_cell_length_c       25.348
_cell_angle_alpha    90
_cell_angle_beta     90
_cell_angle_gamma    90

_symmetry_space_group_name_H-M    "P 1"
_symmetry_int_tables_number       1

loop_
  _symmetry_equiv_pos_as_xyz
  'x, y, z'

loop_
  _atom_site_label
  _atom_site_occupancy
  _atom_site_fract_x
  _atom_site_fract_y
  _atom_site_fract_z
  _atom_site_thermal_displace_type
  _atom_site_B_iso_or_equiv
  _atom_site_type_symbol
  Cu1      1.0000 0.62500  0.12500  0.12500  Biso   1.000  Cu
  Cu2      1.0000 0.62500  0.62500  0.62500  Biso   1.000  Cu
  Cu3      1.0000 0.12500  0.12500  0.62500  Biso   1.000  Cu
  Cu4      1.0000 0.12500  0.62500  0.12500  Biso   1.000  Cu
  Cu5      1.0000 0.37500  0.87500  0.87500  Biso   1.000  Cu
  Cu6      1.0000 0.87500  0.87500  0.37500  Biso   1.000  Cu
  Cu7      1.0000 0.37500  0.37500  0.37500  Biso   1.000  Cu
  Cu8      1.0000 0.87500  0.37500  0.87500  Biso   1.000  Cu
  O1       1.0000 0.62500  0.98730  0.12500  Biso   1.000  O
  O2       1.0000 0.62500  0.76270  0.62500  Biso   1.000  O
  O3       1.0000 0.62500  0.48730  0.62500  Biso   1.000  O
  O4       1.0000 0.62500  0.26270  0.12500  Biso   1.000  O
  O5       1.0000 0.12500  0.98730  0.62500  Biso   1.000  O
  O6       1.0000 0.12500  0.76270  0.12500  Biso   1.000  O
  O7       1.0000 0.12500  0.48730  0.12500  Biso   1.000  O
  O8       1.0000 0.12500  0.26270  0.62500  Biso   1.000  O
  O9       1.0000 0.37500  0.01270  0.87500  Biso   1.000  O
  O10      1.0000 0.87500  0.73730  0.37500  Biso   1.000  O
  O11      1.0000 0.37500  0.51270  0.37500  Biso   1.000  O
  O12      1.0000 0.87500  0.23730  0.87500  Biso   1.000  O
  O13      1.0000 0.87500  0.01270  0.37500  Biso   1.000  O
  O14      1.0000 0.37500  0.73730  0.87500  Biso   1.000  O
  O15      1.0000 0.87500  0.51270  0.87500  Biso   1.000  O
  O16      1.0000 0.37500  0.23730  0.37500  Biso   1.000  O
  N1       1.0000 0.83080  0.16668  0.24523  Biso   1.000  N
  N2       1.0000 0.41920  0.58332  0.74523  Biso   1.000  N
  N3       1.0000 0.83080  0.66668  0.74523  Biso   1.000  N
  N4       1.0000 0.41920  0.08332  0.24523  Biso   1.000  N
  N5       1.0000 0.33080  0.16668  0.74523  Biso   1.000  N
  N6       1.0000 0.91920  0.58332  0.24523  Biso   1.000  N
  N7       1.0000 0.33080  0.66668  0.24523  Biso   1.000  N
  N8       1.0000 0.91920  0.08332  0.74523  Biso   1.000  N
  N9       1.0000 0.83080  0.58332  0.50477  Biso   1.000  N
  N10      1.0000 0.91920  0.16668  0.50477  Biso   1.000  N
  N11      1.0000 0.83080  0.08332  0.00477  Biso   1.000  N
  N12      1.0000 0.91920  0.66668  0.00477  Biso   1.000  N
  N13      1.0000 0.33080  0.58332  0.00477  Biso   1.000  N
  N14      1.0000 0.41920  0.16668  0.00477  Biso   1.000  N
  N15      1.0000 0.33080  0.08332  0.50477  Biso   1.000  N
  N16      1.0000 0.41920  0.66668  0.50477  Biso   1.000  N
  N17      1.0000 0.16920  0.83332  0.75477  Biso   1.000  N
  N18      1.0000 0.08080  0.91668  0.25477  Biso   1.000  N
  N19      1.0000 0.16920  0.33332  0.25477  Biso   1.000  N
  N20      1.0000 0.08080  0.41668  0.75477  Biso   1.000  N
  N21      1.0000 0.66920  0.83332  0.25477  Biso   1.000  N
  N22      1.0000 0.58080  0.91668  0.75477  Biso   1.000  N
  N23      1.0000 0.66920  0.33332  0.75477  Biso   1.000  N
  N24      1.0000 0.58080  0.41668  0.25477  Biso   1.000  N
  N25      1.0000 0.16920  0.91668  0.99523  Biso   1.000  N
  N26      1.0000 0.58080  0.83332  0.99523  Biso   1.000  N
  N27      1.0000 0.16920  0.41668  0.49523  Biso   1.000  N
  N28      1.0000 0.58080  0.33332  0.49523  Biso   1.000  N
  N29      1.0000 0.66920  0.91668  0.49523  Biso   1.000  N
  N30      1.0000 0.08080  0.83332  0.49523  Biso   1.000  N
  N31      1.0000 0.66920  0.41668  0.99523  Biso   1.000  N
  N32      1.0000 0.08080  0.33332  0.99523  Biso   1.000  N
  N33      1.0000 0.86860  0.09890  0.23030  Biso   1.000  N
  N34      1.0000 0.38140  0.65110  0.73030  Biso   1.000  N
  N35      1.0000 0.86860  0.59890  0.73030  Biso   1.000  N
  N36      1.0000 0.38140  0.15110  0.23030  Biso   1.000  N
  N37      1.0000 0.36860  0.09890  0.73030  Biso   1.000  N
  N38      1.0000 0.88140  0.65110  0.23030  Biso   1.000  N
  N39      1.0000 0.36860  0.59890  0.23030  Biso   1.000  N
  N40      1.0000 0.88140  0.15110  0.73030  Biso   1.000  N
  N41      1.0000 0.86860  0.65110  0.51970  Biso   1.000  N
  N42      1.0000 0.88140  0.09890  0.51970  Biso   1.000  N
  N43      1.0000 0.86860  0.15110  0.01970  Biso   1.000  N
  N44      1.0000 0.88140  0.59890  0.01970  Biso   1.000  N
  N45      1.0000 0.36860  0.65110  0.01970  Biso   1.000  N
  N46      1.0000 0.38140  0.09890  0.01970  Biso   1.000  N
  N47      1.0000 0.36860  0.15110  0.51970  Biso   1.000  N
  N48      1.0000 0.38140  0.59890  0.51970  Biso   1.000  N
  N49      1.0000 0.13140  0.90110  0.76970  Biso   1.000  N
  N50      1.0000 0.11860  0.84890  0.26970  Biso   1.000  N
  N51      1.0000 0.13140  0.40110  0.26970  Biso   1.000  N
  N52      1.0000 0.11860  0.34890  0.76970  Biso   1.000  N
  N53      1.0000 0.63140  0.90110  0.26970  Biso   1.000  N
  N54      1.0000 0.61860  0.84890  0.76970  Biso   1.000  N
  N55      1.0000 0.63140  0.40110  0.76970  Biso   1.000  N
  N56      1.0000 0.61860  0.34890  0.26970  Biso   1.000  N
  N57      1.0000 0.13140  0.84890  0.98030  Biso   1.000  N
  N58      1.0000 0.61860  0.90110  0.98030  Biso   1.000  N
  N59      1.0000 0.13140  0.34890  0.48030  Biso   1.000  N
  N60      1.0000 0.61860  0.40110  0.48030  Biso   1.000  N
  N61      1.0000 0.63140  0.84890  0.48030  Biso   1.000  N
  N62      1.0000 0.11860  0.90110  0.48030  Biso   1.000  N
  N63      1.0000 0.63140  0.34890  0.98030  Biso   1.000  N
  N64      1.0000 0.11860  0.40110  0.98030  Biso   1.000  N
  N65      1.0000 0.73310  0.12908  0.18110  Biso   1.000  N
  N66      1.0000 0.51690  0.62092  0.68110  Biso   1.000  N
  N67      1.0000 0.73310  0.62908  0.68110  Biso   1.000  N
  N68      1.0000 0.51690  0.12092  0.18110  Biso   1.000  N
  N69      1.0000 0.23310  0.12908  0.68110  Biso   1.000  N
  N70      1.0000 0.01690  0.62092  0.18110  Biso   1.000  N
  N71      1.0000 0.23310  0.62908  0.18110  Biso   1.000  N
  N72      1.0000 0.01690  0.12092  0.68110  Biso   1.000  N
  N73      1.0000 0.73310  0.62092  0.56890  Biso   1.000  N
  N74      1.0000 0.01690  0.12908  0.56890  Biso   1.000  N
  N75      1.0000 0.73310  0.12092  0.06890  Biso   1.000  N
  N76      1.0000 0.01690  0.62908  0.06890  Biso   1.000  N
  N77      1.0000 0.23310  0.62092  0.06890  Biso   1.000  N
  N78      1.0000 0.51690  0.12908  0.06890  Biso   1.000  N
  N79      1.0000 0.23310  0.12092  0.56890  Biso   1.000  N
  N80      1.0000 0.51690  0.62908  0.56890  Biso   1.000  N
  N81      1.0000 0.26690  0.87092  0.81890  Biso   1.000  N
  N82      1.0000 0.98310  0.87908  0.31890  Biso   1.000  N
  N83      1.0000 0.26690  0.37092  0.31890  Biso   1.000  N
  N84      1.0000 0.98310  0.37908  0.81890  Biso   1.000  N
  N85      1.0000 0.76690  0.87092  0.31890  Biso   1.000  N
  N86      1.0000 0.48310  0.87908  0.81890  Biso   1.000  N
  N87      1.0000 0.76690  0.37092  0.81890  Biso   1.000  N
  N88      1.0000 0.48310  0.37908  0.31890  Biso   1.000  N
  N89      1.0000 0.26690  0.87908  0.93110  Biso   1.000  N
  N90      1.0000 0.48310  0.87092  0.93110  Biso   1.000  N
  N91      1.0000 0.26690  0.37908  0.43110  Biso   1.000  N
  N92      1.0000 0.48310  0.37092  0.43110  Biso   1.000  N
  N93      1.0000 0.76690  0.87908  0.43110  Biso   1.000  N
  N94      1.0000 0.98310  0.87092  0.43110  Biso   1.000  N
  N95      1.0000 0.76690  0.37908  0.93110  Biso   1.000  N
  N96      1.0000 0.98310  0.37092  0.93110  Biso   1.000  N
  C1       1.0000 0.95670  0.26800  0.26480  Biso   1.000  C
  C2       1.0000 0.29330  0.48200  0.76480  Biso   1.000  C
  C3       1.0000 0.95670  0.76800  0.76480  Biso   1.000  C
  C4       1.0000 0.29330  0.98200  0.26480  Biso   1.000  C
  C5       1.0000 0.45670  0.26800  0.76480  Biso   1.000  C
  C6       1.0000 0.79330  0.48200  0.26480  Biso   1.000  C
  C7       1.0000 0.45670  0.76800  0.26480  Biso   1.000  C
  C8       1.0000 0.79330  0.98200  0.76480  Biso   1.000  C
  C9       1.0000 0.95670  0.48200  0.48520  Biso   1.000  C
  C10      1.0000 0.79330  0.26800  0.48520  Biso   1.000  C
  C11      1.0000 0.95670  0.98200  0.98520  Biso   1.000  C
  C12      1.0000 0.79330  0.76800  0.98520  Biso   1.000  C
  C13      1.0000 0.45670  0.48200  0.98520  Biso   1.000  C
  C14      1.0000 0.29330  0.26800  0.98520  Biso   1.000  C
  C15      1.0000 0.45670  0.98200  0.48520  Biso   1.000  C
  C16      1.0000 0.29330  0.76800  0.48520  Biso   1.000  C
  C17      1.0000 0.04330  0.73200  0.73520  Biso   1.000  C
  C18      1.0000 0.20670  0.01800  0.23520  Biso   1.000  C
  C19      1.0000 0.04330  0.23200  0.23520  Biso   1.000  C
  C20      1.0000 0.20670  0.51800  0.73520  Biso   1.000  C
  C21      1.0000 0.54330  0.73200  0.23520  Biso   1.000  C
  C22      1.0000 0.70670  0.01800  0.73520  Biso   1.000  C
  C23      1.0000 0.54330  0.23200  0.73520  Biso   1.000  C
  C24      1.0000 0.70670  0.51800  0.23520  Biso   1.000  C
  C25      1.0000 0.04330  0.01800  0.01480  Biso   1.000  C
  C26      1.0000 0.70670  0.73200  0.01480  Biso   1.000  C
  C27      1.0000 0.04330  0.51800  0.51480  Biso   1.000  C
  C28      1.0000 0.70670  0.23200  0.51480  Biso   1.000  C
  C29      1.0000 0.54330  0.01800  0.51480  Biso   1.000  C
  C30      1.0000 0.20670  0.73200  0.51480  Biso   1.000  C
  C31      1.0000 0.54330  0.51800  0.01480  Biso   1.000  C
  C32      1.0000 0.20670  0.23200  0.01480  Biso   1.000  C
  H1       1.0000 0.92170  0.30370  0.24120  Biso   1.000  H
  H2       1.0000 0.32830  0.44630  0.74120  Biso   1.000  H
  H3       1.0000 0.92170  0.80370  0.74120  Biso   1.000  H
  H4       1.0000 0.32830  0.94630  0.24120  Biso   1.000  H
  H5       1.0000 0.42170  0.30370  0.74120  Biso   1.000  H
  H6       1.0000 0.82830  0.44630  0.24120  Biso   1.000  H
  H7       1.0000 0.42170  0.80370  0.24120  Biso   1.000  H
  H8       1.0000 0.82830  0.94630  0.74120  Biso   1.000  H
  H9       1.0000 0.92170  0.44630  0.50880  Biso   1.000  H
  H10      1.0000 0.82830  0.30370  0.50880  Biso   1.000  H
  H11      1.0000 0.92170  0.94630  0.00880  Biso   1.000  H
  H12      1.0000 0.82830  0.80370  0.00880  Biso   1.000  H
  H13      1.0000 0.42170  0.44630  0.00880  Biso   1.000  H
  H14      1.0000 0.32830  0.30370  0.00880  Biso   1.000  H
  H15      1.0000 0.42170  0.94630  0.50880  Biso   1.000  H
  H16      1.0000 0.32830  0.80370  0.50880  Biso   1.000  H
  H17      1.0000 0.07830  0.69630  0.75880  Biso   1.000  H
  H18      1.0000 0.17170  0.05370  0.25880  Biso   1.000  H
  H19      1.0000 0.07830  0.19630  0.25880  Biso   1.000  H
  H20      1.0000 0.17170  0.55370  0.75880  Biso   1.000  H
  H21      1.0000 0.57830  0.69630  0.25880  Biso   1.000  H
  H22      1.0000 0.67170  0.05370  0.75880  Biso   1.000  H
  H23      1.0000 0.57830  0.19630  0.75880  Biso   1.000  H
  H24      1.0000 0.67170  0.55370  0.25880  Biso   1.000  H
  H25      1.0000 0.07830  0.05370  0.99120  Biso   1.000  H
  H26      1.0000 0.67170  0.69630  0.99120  Biso   1.000  H
  H27      1.0000 0.07830  0.55370  0.49120  Biso   1.000  H
  H28      1.0000 0.67170  0.19630  0.49120  Biso   1.000  H
  H29      1.0000 0.57830  0.05370  0.49120  Biso   1.000  H
  H30      1.0000 0.17170  0.69630  0.49120  Biso   1.000  H
  H31      1.0000 0.57830  0.55370  0.99120  Biso   1.000  H
  H32      1.0000 0.17170  0.19630  0.99120  Biso   1.000  H
  H33      1.0000 0.98480  0.29780  0.29410  Biso   1.000  H
  H34      1.0000 0.26520  0.45220  0.79410  Biso   1.000  H
  H35      1.0000 0.98480  0.79780  0.79410  Biso   1.000  H
  H36      1.0000 0.26520  0.95220  0.29410  Biso   1.000  H
  H37      1.0000 0.48480  0.29780  0.79410  Biso   1.000  H
  H38      1.0000 0.76520  0.45220  0.29410  Biso   1.000  H
  H39      1.0000 0.48480  0.79780  0.29410  Biso   1.000  H
  H40      1.0000 0.76520  0.95220  0.79410  Biso   1.000  H
  H41      1.0000 0.98480  0.45220  0.45590  Biso   1.000  H
  H42      1.0000 0.76520  0.29780  0.45590  Biso   1.000  H
  H43      1.0000 0.98480  0.95220  0.95590  Biso   1.000  H
  H44      1.0000 0.76520  0.79780  0.95590  Biso   1.000  H
  H45      1.0000 0.48480  0.45220  0.95590  Biso   1.000  H
  H46      1.0000 0.26520  0.29780  0.95590  Biso   1.000  H
  H47      1.0000 0.48480  0.95220  0.45590  Biso   1.000  H
  H48      1.0000 0.26520  0.79780  0.45590  Biso   1.000  H
  H49      1.0000 0.01520  0.70220  0.70590  Biso   1.000  H
  H50      1.0000 0.23480  0.04780  0.20590  Biso   1.000  H
  H51      1.0000 0.01520  0.20220  0.20590  Biso   1.000  H
  H52      1.0000 0.23480  0.54780  0.70590  Biso   1.000  H
  H53      1.0000 0.51520  0.70220  0.20590  Biso   1.000  H
  H54      1.0000 0.73480  0.04780  0.70590  Biso   1.000  H
  H55      1.0000 0.51520  0.20220  0.70590  Biso   1.000  H
  H56      1.0000 0.73480  0.54780  0.20590  Biso   1.000  H
  H57      1.0000 0.01520  0.04780  0.04410  Biso   1.000  H
  H58      1.0000 0.73480  0.70220  0.04410  Biso   1.000  H
  H59      1.0000 0.01520  0.54780  0.54410  Biso   1.000  H
  H60      1.0000 0.73480  0.20220  0.54410  Biso   1.000  H
  H61      1.0000 0.51520  0.04780  0.54410  Biso   1.000  H
  H62      1.0000 0.23480  0.70220  0.54410  Biso   1.000  H
  H63      1.0000 0.51520  0.54780  0.04410  Biso   1.000  H
  H64      1.0000 0.23480  0.20220  0.04410  Biso   1.000  H
  C33      1.0000 0.87900  0.21220  0.28675  Biso   1.000  C
  C34      1.0000 0.37100  0.53780  0.78675  Biso   1.000  C
  C35      1.0000 0.87900  0.71220  0.78675  Biso   1.000  C
  C36      1.0000 0.37100  0.03780  0.28675  Biso   1.000  C
  C37      1.0000 0.37900  0.21220  0.78675  Biso   1.000  C
  C38      1.0000 0.87100  0.53780  0.28675  Biso   1.000  C
  C39      1.0000 0.37900  0.71220  0.28675  Biso   1.000  C
  C40      1.0000 0.87100  0.03780  0.78675  Biso   1.000  C
  C41      1.0000 0.87900  0.53780  0.46325  Biso   1.000  C
  C42      1.0000 0.87100  0.21220  0.46325  Biso   1.000  C
  C43      1.0000 0.87900  0.03780  0.96325  Biso   1.000  C
  C44      1.0000 0.87100  0.71220  0.96325  Biso   1.000  C
  C45      1.0000 0.37900  0.53780  0.96325  Biso   1.000  C
  C46      1.0000 0.37100  0.21220  0.96325  Biso   1.000  C
  C47      1.0000 0.37900  0.03780  0.46325  Biso   1.000  C
  C48      1.0000 0.37100  0.71220  0.46325  Biso   1.000  C
  C49      1.0000 0.12100  0.78780  0.71325  Biso   1.000  C
  C50      1.0000 0.12900  0.96220  0.21325  Biso   1.000  C
  C51      1.0000 0.12100  0.28780  0.21325  Biso   1.000  C
  C52      1.0000 0.12900  0.46220  0.71325  Biso   1.000  C
  C53      1.0000 0.62100  0.78780  0.21325  Biso   1.000  C
  C54      1.0000 0.62900  0.96220  0.71325  Biso   1.000  C
  C55      1.0000 0.62100  0.28780  0.71325  Biso   1.000  C
  C56      1.0000 0.62900  0.46220  0.21325  Biso   1.000  C
  C57      1.0000 0.12100  0.96220  0.03675  Biso   1.000  C
  C58      1.0000 0.62900  0.78780  0.03675  Biso   1.000  C
  C59      1.0000 0.12100  0.46220  0.53675  Biso   1.000  C
  C60      1.0000 0.62900  0.28780  0.53675  Biso   1.000  C
  C61      1.0000 0.62100  0.96220  0.53675  Biso   1.000  C
  C62      1.0000 0.12900  0.78780  0.53675  Biso   1.000  C
  C63      1.0000 0.62100  0.46220  0.03675  Biso   1.000  C
  C64      1.0000 0.12900  0.28780  0.03675  Biso   1.000  C
  H65      1.0000 0.91260  0.17790  0.31190  Biso   1.000  H
  H66      1.0000 0.33740  0.57210  0.81190  Biso   1.000  H
  H67      1.0000 0.91260  0.67790  0.81190  Biso   1.000  H
  H68      1.0000 0.33740  0.07210  0.31190  Biso   1.000  H
  H69      1.0000 0.41260  0.17790  0.81190  Biso   1.000  H
  H70      1.0000 0.83740  0.57210  0.31190  Biso   1.000  H
  H71      1.0000 0.41260  0.67790  0.31190  Biso   1.000  H
  H72      1.0000 0.83740  0.07210  0.81190  Biso   1.000  H
  H73      1.0000 0.91260  0.57210  0.43810  Biso   1.000  H
  H74      1.0000 0.83740  0.17790  0.43810  Biso   1.000  H
  H75      1.0000 0.91260  0.07210  0.93810  Biso   1.000  H
  H76      1.0000 0.83740  0.67790  0.93810  Biso   1.000  H
  H77      1.0000 0.41260  0.57210  0.93810  Biso   1.000  H
  H78      1.0000 0.33740  0.17790  0.93810  Biso   1.000  H
  H79      1.0000 0.41260  0.07210  0.43810  Biso   1.000  H
  H80      1.0000 0.33740  0.67790  0.43810  Biso   1.000  H
  H81      1.0000 0.08740  0.82210  0.68810  Biso   1.000  H
  H82      1.0000 0.16260  0.92790  0.18810  Biso   1.000  H
  H83      1.0000 0.08740  0.32210  0.18810  Biso   1.000  H
  H84      1.0000 0.16260  0.42790  0.68810  Biso   1.000  H
  H85      1.0000 0.58740  0.82210  0.18810  Biso   1.000  H
  H86      1.0000 0.66260  0.92790  0.68810  Biso   1.000  H
  H87      1.0000 0.58740  0.32210  0.68810  Biso   1.000  H
  H88      1.0000 0.66260  0.42790  0.18810  Biso   1.000  H
  H89      1.0000 0.08740  0.92790  0.06190  Biso   1.000  H
  H90      1.0000 0.66260  0.82210  0.06190  Biso   1.000  H
  H91      1.0000 0.08740  0.42790  0.56190  Biso   1.000  H
  H92      1.0000 0.66260  0.32210  0.56190  Biso   1.000  H
  H93      1.0000 0.58740  0.92790  0.56190  Biso   1.000  H
  H94      1.0000 0.16260  0.82210  0.56190  Biso   1.000  H
  H95      1.0000 0.58740  0.42790  0.06190  Biso   1.000  H
  H96      1.0000 0.16260  0.32210  0.06190  Biso   1.000  H
  H97      1.0000 0.82640  0.24070  0.30590  Biso   1.000  H
  H98      1.0000 0.42360  0.50930  0.80590  Biso   1.000  H
  H99      1.0000 0.82640  0.74070  0.80590  Biso   1.000  H
  H100     1.0000 0.42360  0.00930  0.30590  Biso   1.000  H
  H101     1.0000 0.32640  0.24070  0.80590  Biso   1.000  H
  H102     1.0000 0.92360  0.50930  0.30590  Biso   1.000  H
  H103     1.0000 0.32640  0.74070  0.30590  Biso   1.000  H
  H104     1.0000 0.92360  0.00930  0.80590  Biso   1.000  H
  H105     1.0000 0.82640  0.50930  0.44410  Biso   1.000  H
  H106     1.0000 0.92360  0.24070  0.44410  Biso   1.000  H
  H107     1.0000 0.82640  0.00930  0.94410  Biso   1.000  H
  H108     1.0000 0.92360  0.74070  0.94410  Biso   1.000  H
  H109     1.0000 0.32640  0.50930  0.94410  Biso   1.000  H
  H110     1.0000 0.42360  0.24070  0.94410  Biso   1.000  H
  H111     1.0000 0.32640  0.00930  0.44410  Biso   1.000  H
  H112     1.0000 0.42360  0.74070  0.44410  Biso   1.000  H
  H113     1.0000 0.17360  0.75930  0.69410  Biso   1.000  H
  H114     1.0000 0.07640  0.99070  0.19410  Biso   1.000  H
  H115     1.0000 0.17360  0.25930  0.19410  Biso   1.000  H
  H116     1.0000 0.07640  0.49070  0.69410  Biso   1.000  H
  H117     1.0000 0.67360  0.75930  0.19410  Biso   1.000  H
  H118     1.0000 0.57640  0.99070  0.69410  Biso   1.000  H
  H119     1.0000 0.67360  0.25930  0.69410  Biso   1.000  H
  H120     1.0000 0.57640  0.49070  0.19410  Biso   1.000  H
  H121     1.0000 0.17360  0.99070  0.05590  Biso   1.000  H
  H122     1.0000 0.57640  0.75930  0.05590  Biso   1.000  H
  H123     1.0000 0.17360  0.49070  0.55590  Biso   1.000  H
  H124     1.0000 0.57640  0.25930  0.55590  Biso   1.000  H
  H125     1.0000 0.67360  0.99070  0.55590  Biso   1.000  H
  H126     1.0000 0.07640  0.75930  0.55590  Biso   1.000  H
  H127     1.0000 0.67360  0.49070  0.05590  Biso   1.000  H
  H128     1.0000 0.07640  0.25930  0.05590  Biso   1.000  H
  C65      1.0000 0.80810  0.07900  0.19130  Biso   1.000  C
  C66      1.0000 0.44190  0.67100  0.69130  Biso   1.000  C
  C67      1.0000 0.80810  0.57900  0.69130  Biso   1.000  C
  C68      1.0000 0.44190  0.17100  0.19130  Biso   1.000  C
  C69      1.0000 0.30810  0.07900  0.69130  Biso   1.000  C
  C70      1.0000 0.94190  0.67100  0.19130  Biso   1.000  C
  C71      1.0000 0.30810  0.57900  0.19130  Biso   1.000  C
  C72      1.0000 0.94190  0.17100  0.69130  Biso   1.000  C
  C73      1.0000 0.80810  0.67100  0.55870  Biso   1.000  C
  C74      1.0000 0.94190  0.07900  0.55870  Biso   1.000  C
  C75      1.0000 0.80810  0.17100  0.05870  Biso   1.000  C
  C76      1.0000 0.94190  0.57900  0.05870  Biso   1.000  C
  C77      1.0000 0.30810  0.67100  0.05870  Biso   1.000  C
  C78      1.0000 0.44190  0.07900  0.05870  Biso   1.000  C
  C79      1.0000 0.30810  0.17100  0.55870  Biso   1.000  C
  C80      1.0000 0.44190  0.57900  0.55870  Biso   1.000  C
  C81      1.0000 0.19190  0.92100  0.80870  Biso   1.000  C
  C82      1.0000 0.05810  0.82900  0.30870  Biso   1.000  C
  C83      1.0000 0.19190  0.42100  0.30870  Biso   1.000  C
  C84      1.0000 0.05810  0.32900  0.80870  Biso   1.000  C
  C85      1.0000 0.69190  0.92100  0.30870  Biso   1.000  C
  C86      1.0000 0.55810  0.82900  0.80870  Biso   1.000  C
  C87      1.0000 0.69190  0.42100  0.80870  Biso   1.000  C
  C88      1.0000 0.55810  0.32900  0.30870  Biso   1.000  C
  C89      1.0000 0.19190  0.82900  0.94130  Biso   1.000  C
  C90      1.0000 0.55810  0.92100  0.94130  Biso   1.000  C
  C91      1.0000 0.19190  0.32900  0.44130  Biso   1.000  C
  C92      1.0000 0.55810  0.42100  0.44130  Biso   1.000  C
  C93      1.0000 0.69190  0.82900  0.44130  Biso   1.000  C
  C94      1.0000 0.05810  0.92100  0.44130  Biso   1.000  C
  C95      1.0000 0.69190  0.32900  0.94130  Biso   1.000  C
  C96      1.0000 0.05810  0.42100  0.94130  Biso   1.000  C
  H129     1.0000 0.81670  0.03350  0.17210  Biso   1.000  H
  H130     1.0000 0.43330  0.71650  0.67210  Biso   1.000  H
  H131     1.0000 0.81670  0.53350  0.67210  Biso   1.000  H
  H132     1.0000 0.43330  0.21650  0.17210  Biso   1.000  H
  H133     1.0000 0.31670  0.03350  0.67210  Biso   1.000  H
  H134     1.0000 0.93330  0.71650  0.17210  Biso   1.000  H
  H135     1.0000 0.31670  0.53350  0.17210  Biso   1.000  H
  H136     1.0000 0.93330  0.21650  0.67210  Biso   1.000  H
  H137     1.0000 0.81670  0.71650  0.57790  Biso   1.000  H
  H138     1.0000 0.93330  0.03350  0.57790  Biso   1.000  H
  H139     1.0000 0.81670  0.21650  0.07790  Biso   1.000  H
  H140     1.0000 0.93330  0.53350  0.07790  Biso   1.000  H
  H141     1.0000 0.31670  0.71650  0.07790  Biso   1.000  H
  H142     1.0000 0.43330  0.03350  0.07790  Biso   1.000  H
  H143     1.0000 0.31670  0.21650  0.57790  Biso   1.000  H
  H144     1.0000 0.43330  0.53350  0.57790  Biso   1.000  H
  H145     1.0000 0.18330  0.96650  0.82790  Biso   1.000  H
  H146     1.0000 0.06670  0.78350  0.32790  Biso   1.000  H
  H147     1.0000 0.18330  0.46650  0.32790  Biso   1.000  H
  H148     1.0000 0.06670  0.28350  0.82790  Biso   1.000  H
  H149     1.0000 0.68330  0.96650  0.32790  Biso   1.000  H
  H150     1.0000 0.56670  0.78350  0.82790  Biso   1.000  H
  H151     1.0000 0.68330  0.46650  0.82790  Biso   1.000  H
  H152     1.0000 0.56670  0.28350  0.32790  Biso   1.000  H
  H153     1.0000 0.18330  0.78350  0.92210  Biso   1.000  H
  H154     1.0000 0.56670  0.96650  0.92210  Biso   1.000  H
  H155     1.0000 0.18330  0.28350  0.42210  Biso   1.000  H
  H156     1.0000 0.56670  0.46650  0.42210  Biso   1.000  H
  H157     1.0000 0.68330  0.78350  0.42210  Biso   1.000  H
  H158     1.0000 0.06670  0.96650  0.42210  Biso   1.000  H
  H159     1.0000 0.68330  0.28350  0.92210  Biso   1.000  H
  H160     1.0000 0.06670  0.46650  0.92210  Biso   1.000  H
  C97      1.0000 0.75030  0.18390  0.21615  Biso   1.000  C
  C98      1.0000 0.49970  0.56610  0.71615  Biso   1.000  C
  C99      1.0000 0.75030  0.68390  0.71615  Biso   1.000  C
  C100     1.0000 0.49970  0.06610  0.21615  Biso   1.000  C
  C101     1.0000 0.25030  0.18390  0.71615  Biso   1.000  C
  C102     1.0000 0.99970  0.56610  0.21615  Biso   1.000  C
  C103     1.0000 0.25030  0.68390  0.21615  Biso   1.000  C
  C104     1.0000 0.99970  0.06610  0.71615  Biso   1.000  C
  C105     1.0000 0.75030  0.56610  0.53385  Biso   1.000  C
  C106     1.0000 0.99970  0.18390  0.53385  Biso   1.000  C
  C107     1.0000 0.75030  0.06610  0.03385  Biso   1.000  C
  C108     1.0000 0.99970  0.68390  0.03385  Biso   1.000  C
  C109     1.0000 0.25030  0.56610  0.03385  Biso   1.000  C
  C110     1.0000 0.49970  0.18390  0.03385  Biso   1.000  C
  C111     1.0000 0.25030  0.06610  0.53385  Biso   1.000  C
  C112     1.0000 0.49970  0.68390  0.53385  Biso   1.000  C
  C113     1.0000 0.24970  0.81610  0.78385  Biso   1.000  C
  C114     1.0000 0.00030  0.93390  0.28385  Biso   1.000  C
  C115     1.0000 0.24970  0.31610  0.28385  Biso   1.000  C
  C116     1.0000 0.00030  0.43390  0.78385  Biso   1.000  C
  C117     1.0000 0.74970  0.81610  0.28385  Biso   1.000  C
  C118     1.0000 0.50030  0.93390  0.78385  Biso   1.000  C
  C119     1.0000 0.74970  0.31610  0.78385  Biso   1.000  C
  C120     1.0000 0.50030  0.43390  0.28385  Biso   1.000  C
  C121     1.0000 0.24970  0.93390  0.96615  Biso   1.000  C
  C122     1.0000 0.50030  0.81610  0.96615  Biso   1.000  C
  C123     1.0000 0.24970  0.43390  0.46615  Biso   1.000  C
  C124     1.0000 0.50030  0.31610  0.46615  Biso   1.000  C
  C125     1.0000 0.74970  0.93390  0.46615  Biso   1.000  C
  C126     1.0000 0.00030  0.81610  0.46615  Biso   1.000  C
  C127     1.0000 0.74970  0.43390  0.96615  Biso   1.000  C
  C128     1.0000 0.00030  0.31610  0.96615  Biso   1.000  C
  H161     1.0000 0.71110  0.22840  0.21980  Biso   1.000  H
  H162     1.0000 0.53890  0.52160  0.71980  Biso   1.000  H
  H163     1.0000 0.71110  0.72840  0.71980  Biso   1.000  H
  H164     1.0000 0.53890  0.02160  0.21980  Biso   1.000  H
  H165     1.0000 0.21110  0.22840  0.71980  Biso   1.000  H
  H166     1.0000 0.03890  0.52160  0.21980  Biso   1.000  H
  H167     1.0000 0.21110  0.72840  0.21980  Biso   1.000  H
  H168     1.0000 0.03890  0.02160  0.71980  Biso   1.000  H
  H169     1.0000 0.71110  0.52160  0.53020  Biso   1.000  H
  H170     1.0000 0.03890  0.22840  0.53020  Biso   1.000  H
  H171     1.0000 0.71110  0.02160  0.03020  Biso   1.000  H
  H172     1.0000 0.03890  0.72840  0.03020  Biso   1.000  H
  H173     1.0000 0.21110  0.52160  0.03020  Biso   1.000  H
  H174     1.0000 0.53890  0.22840  0.03020  Biso   1.000  H
  H175     1.0000 0.21110  0.02160  0.53020  Biso   1.000  H
  H176     1.0000 0.53890  0.72840  0.53020  Biso   1.000  H
  H177     1.0000 0.28890  0.77160  0.78020  Biso   1.000  H
  H178     1.0000 0.96110  0.97840  0.28020  Biso   1.000  H
  H179     1.0000 0.28890  0.27160  0.28020  Biso   1.000  H
  H180     1.0000 0.96110  0.47840  0.78020  Biso   1.000  H
  H181     1.0000 0.78890  0.77160  0.28020  Biso   1.000  H
  H182     1.0000 0.46110  0.97840  0.78020  Biso   1.000  H
  H183     1.0000 0.78890  0.27160  0.78020  Biso   1.000  H
  H184     1.0000 0.46110  0.47840  0.28020  Biso   1.000  H
  H185     1.0000 0.28890  0.97840  0.96980  Biso   1.000  H
  H186     1.0000 0.46110  0.77160  0.96980  Biso   1.000  H
  H187     1.0000 0.28890  0.47840  0.46980  Biso   1.000  H
  H188     1.0000 0.46110  0.27160  0.46980  Biso   1.000  H
  H189     1.0000 0.78890  0.97840  0.46980  Biso   1.000  H
  H190     1.0000 0.96110  0.77160  0.46980  Biso   1.000  H
  H191     1.0000 0.78890  0.47840  0.96980  Biso   1.000  H
  H192     1.0000 0.96110  0.27160  0.96980  Biso   1.000  H
  H193     1.0000 0.56700  0.95900  0.13050  Biso   1.000  H
  H194     1.0000 0.68300  0.79100  0.63050  Biso   1.000  H
  H195     1.0000 0.56700  0.45900  0.63050  Biso   1.000  H
  H196     1.0000 0.68300  0.29100  0.13050  Biso   1.000  H
  H197     1.0000 0.06700  0.95900  0.63050  Biso   1.000  H
  H198     1.0000 0.18300  0.79100  0.13050  Biso   1.000  H
  H199     1.0000 0.06700  0.45900  0.13050  Biso   1.000  H
  H200     1.0000 0.18300  0.29100  0.63050  Biso   1.000  H
  H201     1.0000 0.56700  0.79100  0.61950  Biso   1.000  H
  H202     1.0000 0.18300  0.95900  0.61950  Biso   1.000  H
  H203     1.0000 0.56700  0.29100  0.11950  Biso   1.000  H
  H204     1.0000 0.18300  0.45900  0.11950  Biso   1.000  H
  H205     1.0000 0.06700  0.79100  0.11950  Biso   1.000  H
  H206     1.0000 0.68300  0.95900  0.11950  Biso   1.000  H
  H207     1.0000 0.06700  0.29100  0.61950  Biso   1.000  H
  H208     1.0000 0.68300  0.45900  0.61950  Biso   1.000  H
  H209     1.0000 0.43300  0.04100  0.86950  Biso   1.000  H
  H210     1.0000 0.81700  0.70900  0.36950  Biso   1.000  H
  H211     1.0000 0.43300  0.54100  0.36950  Biso   1.000  H
  H212     1.0000 0.81700  0.20900  0.86950  Biso   1.000  H
  H213     1.0000 0.93300  0.04100  0.36950  Biso   1.000  H
  H214     1.0000 0.31700  0.70900  0.86950  Biso   1.000  H
  H215     1.0000 0.93300  0.54100  0.86950  Biso   1.000  H
  H216     1.0000 0.31700  0.20900  0.36950  Biso   1.000  H
  H217     1.0000 0.43300  0.70900  0.88050  Biso   1.000  H
  H218     1.0000 0.31700  0.04100  0.88050  Biso   1.000  H
  H219     1.0000 0.43300  0.20900  0.38050  Biso   1.000  H
  H220     1.0000 0.31700  0.54100  0.38050  Biso   1.000  H
  H221     1.0000 0.93300  0.70900  0.38050  Biso   1.000  H
  H222     1.0000 0.81700  0.04100  0.38050  Biso   1.000  H
  H223     1.0000 0.93300  0.20900  0.88050  Biso   1.000  H
  H224     1.0000 0.81700  0.54100  0.88050  Biso   1.000  H
  Cl1      1.0000 0.37500  0.87500  0.11810  Biso   1.000  Cl
  Cl2      1.0000 0.87500  0.87500  0.61810  Biso   1.000  Cl
  Cl3      1.0000 0.37500  0.37500  0.61810  Biso   1.000  Cl
  Cl4      1.0000 0.87500  0.37500  0.11810  Biso   1.000  Cl
  Cl5      1.0000 0.37500  0.87500  0.63190  Biso   1.000  Cl
  Cl6      1.0000 0.37500  0.37500  0.13190  Biso   1.000  Cl
  Cl7      1.0000 0.87500  0.87500  0.13190  Biso   1.000  Cl
  Cl8      1.0000 0.87500  0.37500  0.63190  Biso   1.000  Cl
  Cl9      1.0000 0.62500  0.12500  0.88190  Biso   1.000  Cl
  Cl10     1.0000 0.62500  0.62500  0.38190  Biso   1.000  Cl
  Cl11     1.0000 0.12500  0.12500  0.38190  Biso   1.000  Cl
  Cl12     1.0000 0.12500  0.62500  0.88190  Biso   1.000  Cl
  Cl13     1.0000 0.62500  0.62500  0.86810  Biso   1.000  Cl
  Cl14     1.0000 0.12500  0.12500  0.86810  Biso   1.000  Cl
  Cl15     1.0000 0.62500  0.12500  0.36810  Biso   1.000  Cl
  Cl16     1.0000 0.12500  0.62500  0.36810  Biso   1.000  Cl
  O17      1.0000 0.43470  0.92180  0.15010  Biso   1.000  O
  O18      1.0000 0.81530  0.82820  0.65010  Biso   1.000  O
  O19      1.0000 0.43470  0.42180  0.65010  Biso   1.000  O
  O20      1.0000 0.81530  0.32820  0.15010  Biso   1.000  O
  O21      1.0000 0.93470  0.92180  0.65010  Biso   1.000  O
  O22      1.0000 0.31530  0.82820  0.15010  Biso   1.000  O
  O23      1.0000 0.93470  0.42180  0.15010  Biso   1.000  O
  O24      1.0000 0.31530  0.32820  0.65010  Biso   1.000  O
  O25      1.0000 0.43470  0.82820  0.59990  Biso   1.000  O
  O26      1.0000 0.31530  0.92180  0.59990  Biso   1.000  O
  O27      1.0000 0.43470  0.32820  0.09990  Biso   1.000  O
  O28      1.0000 0.31530  0.42180  0.09990  Biso   1.000  O
  O29      1.0000 0.93470  0.82820  0.09990  Biso   1.000  O
  O30      1.0000 0.81530  0.92180  0.09990  Biso   1.000  O
  O31      1.0000 0.93470  0.32820  0.59990  Biso   1.000  O
  O32      1.0000 0.81530  0.42180  0.59990  Biso   1.000  O
  O33      1.0000 0.56530  0.07820  0.84990  Biso   1.000  O
  O34      1.0000 0.68470  0.67180  0.34990  Biso   1.000  O
  O35      1.0000 0.56530  0.57820  0.34990  Biso   1.000  O
  O36      1.0000 0.68470  0.17180  0.84990  Biso   1.000  O
  O37      1.0000 0.06530  0.07820  0.34990  Biso   1.000  O
  O38      1.0000 0.18470  0.67180  0.84990  Biso   1.000  O
  O39      1.0000 0.06530  0.57820  0.84990  Biso   1.000  O
  O40      1.0000 0.18470  0.17180  0.34990  Biso   1.000  O
  O41      1.0000 0.56530  0.67180  0.90010  Biso   1.000  O
  O42      1.0000 0.18470  0.07820  0.90010  Biso   1.000  O
  O43      1.0000 0.56530  0.17180  0.40010  Biso   1.000  O
  O44      1.0000 0.18470  0.57820  0.40010  Biso   1.000  O
  O45      1.0000 0.06530  0.67180  0.40010  Biso   1.000  O
  O46      1.0000 0.68470  0.07820  0.40010  Biso   1.000  O
  O47      1.0000 0.06530  0.17180  0.90010  Biso   1.000  O
  O48      1.0000 0.68470  0.57820  0.90010  Biso   1.000  O
  O49      1.0000 0.37500  0.87500  0.06690  Biso   1.000  O
  O50      1.0000 0.87500  0.87500  0.56690  Biso   1.000  O
  O51      1.0000 0.37500  0.37500  0.56690  Biso   1.000  O
  O52      1.0000 0.87500  0.37500  0.06690  Biso   1.000  O
  O53      1.0000 0.37500  0.87500  0.68310  Biso   1.000  O
  O54      1.0000 0.37500  0.37500  0.18310  Biso   1.000  O
  O55      1.0000 0.87500  0.87500  0.18310  Biso   1.000  O
  O56      1.0000 0.87500  0.37500  0.68310  Biso   1.000  O
  O57      1.0000 0.62500  0.12500  0.93310  Biso   1.000  O
  O58      1.0000 0.62500  0.62500  0.43310  Biso   1.000  O
  O59      1.0000 0.12500  0.12500  0.43310  Biso   1.000  O
  O60      1.0000 0.12500  0.62500  0.93310  Biso   1.000  O
  O61      1.0000 0.62500  0.62500  0.81690  Biso   1.000  O
  O62      1.0000 0.12500  0.12500  0.81690  Biso   1.000  O
  O63      1.0000 0.62500  0.12500  0.31690  Biso   1.000  O
  O64      1.0000 0.12500  0.62500  0.31690  Biso   1.000  O
  O65      1.0000 0.31970  0.95230  0.12480  Biso   1.000  O
  O66      1.0000 0.93030  0.79770  0.62480  Biso   1.000  O
  O67      1.0000 0.31970  0.45230  0.62480  Biso   1.000  O
  O68      1.0000 0.93030  0.29770  0.12480  Biso   1.000  O
  O69      1.0000 0.81970  0.95230  0.62480  Biso   1.000  O
  O70      1.0000 0.43030  0.79770  0.12480  Biso   1.000  O
  O71      1.0000 0.81970  0.45230  0.12480  Biso   1.000  O
  O72      1.0000 0.43030  0.29770  0.62480  Biso   1.000  O
  O73      1.0000 0.31970  0.79770  0.62520  Biso   1.000  O
  O74      1.0000 0.43030  0.95230  0.62520  Biso   1.000  O
  O75      1.0000 0.31970  0.29770  0.12520  Biso   1.000  O
  O76      1.0000 0.43030  0.45230  0.12520  Biso   1.000  O
  O77      1.0000 0.81970  0.79770  0.12520  Biso   1.000  O
  O78      1.0000 0.93030  0.95230  0.12520  Biso   1.000  O
  O79      1.0000 0.81970  0.29770  0.62520  Biso   1.000  O
  O80      1.0000 0.93030  0.45230  0.62520  Biso   1.000  O
  O81      1.0000 0.68030  0.04770  0.87520  Biso   1.000  O
  O82      1.0000 0.56970  0.70230  0.37520  Biso   1.000  O
  O83      1.0000 0.68030  0.54770  0.37520  Biso   1.000  O
  O84      1.0000 0.56970  0.20230  0.87520  Biso   1.000  O
  O85      1.0000 0.18030  0.04770  0.37520  Biso   1.000  O
  O86      1.0000 0.06970  0.70230  0.87520  Biso   1.000  O
  O87      1.0000 0.18030  0.54770  0.87520  Biso   1.000  O
  O88      1.0000 0.06970  0.20230  0.37520  Biso   1.000  O
  O89      1.0000 0.68030  0.70230  0.87480  Biso   1.000  O
  O90      1.0000 0.06970  0.04770  0.87480  Biso   1.000  O
  O91      1.0000 0.68030  0.20230  0.37480  Biso   1.000  O
  O92      1.0000 0.06970  0.54770  0.37480  Biso   1.000  O
  O93      1.0000 0.18030  0.70230  0.37480  Biso   1.000  O
  O94      1.0000 0.56970  0.04770  0.37480  Biso   1.000  O
  O95      1.0000 0.18030  0.20230  0.87480  Biso   1.000  O
  O96      1.0000 0.56970  0.54770  0.87480  Biso   1.000  O
  O97      1.0000 0.27960  0.87730  0.12400  Biso   1.000  O
  O98      1.0000 0.97040  0.87270  0.62400  Biso   1.000  O
  O99      1.0000 0.27960  0.37730  0.62400  Biso   1.000  O
  O100     1.0000 0.97040  0.37270  0.12400  Biso   1.000  O
  O101     1.0000 0.77960  0.87730  0.62400  Biso   1.000  O
  O102     1.0000 0.47040  0.87270  0.12400  Biso   1.000  O
  O103     1.0000 0.77960  0.37730  0.12400  Biso   1.000  O
  O104     1.0000 0.47040  0.37270  0.62400  Biso   1.000  O
  O105     1.0000 0.27960  0.87270  0.62600  Biso   1.000  O
  O106     1.0000 0.47040  0.87730  0.62600  Biso   1.000  O
  O107     1.0000 0.27960  0.37270  0.12600  Biso   1.000  O
  O108     1.0000 0.47040  0.37730  0.12600  Biso   1.000  O
  O109     1.0000 0.77960  0.87270  0.12600  Biso   1.000  O
  O110     1.0000 0.97040  0.87730  0.12600  Biso   1.000  O
  O111     1.0000 0.77960  0.37270  0.62600  Biso   1.000  O
  O112     1.0000 0.97040  0.37730  0.62600  Biso   1.000  O
  O113     1.0000 0.72040  0.12270  0.87600  Biso   1.000  O
  O114     1.0000 0.52960  0.62730  0.37600  Biso   1.000  O
  O115     1.0000 0.72040  0.62270  0.37600  Biso   1.000  O
  O116     1.0000 0.52960  0.12730  0.87600  Biso   1.000  O
  O117     1.0000 0.22040  0.12270  0.37600  Biso   1.000  O
  O118     1.0000 0.02960  0.62730  0.87600  Biso   1.000  O
  O119     1.0000 0.22040  0.62270  0.87600  Biso   1.000  O
  O120     1.0000 0.02960  0.12730  0.37600  Biso   1.000  O
  O121     1.0000 0.72040  0.62730  0.87400  Biso   1.000  O
  O122     1.0000 0.02960  0.12270  0.87400  Biso   1.000  O
  O123     1.0000 0.72040  0.12730  0.37400  Biso   1.000  O
  O124     1.0000 0.02960  0.62270  0.37400  Biso   1.000  O
  O125     1.0000 0.22040  0.62730  0.37400  Biso   1.000  O
  O126     1.0000 0.52960  0.12270  0.37400  Biso   1.000  O
  O127     1.0000 0.22040  0.12730  0.87400  Biso   1.000  O
  O128     1.0000 0.52960  0.62270  0.87400  Biso   1.000  O
