data_image0
_cell_length_a       25.054
_cell_length_b       13.2154
_cell_length_c       17.3885
_cell_angle_alpha    90
_cell_angle_beta     90
_cell_angle_gamma    90

_symmetry_space_group_name_H-M    "P 1"
_symmetry_int_tables_number       1

loop_
  _symmetry_equiv_pos_as_xyz
  'x, y, z'

loop_
  _atom_site_label
  _atom_site_occupancy
  _atom_site_fract_x
  _atom_site_fract_y
  _atom_site_fract_z
  _atom_site_thermal_displace_type
  _atom_site_B_iso_or_equiv
  _atom_site_type_symbol
  Cu1      1.0000 0.37500  0.87500  0.87500  Biso   1.000  Cu
  Cu2      1.0000 0.87500  0.37500  0.87500  Biso   1.000  Cu
  Cu3      1.0000 0.37500  0.37500  0.37500  Biso   1.000  Cu
  Cu4      1.0000 0.87500  0.87500  0.37500  Biso   1.000  Cu
  Cu5      1.0000 0.62500  0.12500  0.12500  Biso   1.000  Cu
  Cu6      1.0000 0.62500  0.62500  0.62500  Biso   1.000  Cu
  Cu7      1.0000 0.12500  0.12500  0.62500  Biso   1.000  Cu
  Cu8      1.0000 0.12500  0.62500  0.12500  Biso   1.000  Cu
  O1       1.0000 0.37500  0.87500  0.73660  Biso   1.000  O
  O2       1.0000 0.87500  0.37500  0.73660  Biso   1.000  O
  O3       1.0000 0.37500  0.37500  0.51340  Biso   1.000  O
  O4       1.0000 0.87500  0.87500  0.51340  Biso   1.000  O
  O5       1.0000 0.37500  0.37500  0.23660  Biso   1.000  O
  O6       1.0000 0.87500  0.87500  0.23660  Biso   1.000  O
  O7       1.0000 0.37500  0.87500  0.01340  Biso   1.000  O
  O8       1.0000 0.87500  0.37500  0.01340  Biso   1.000  O
  O9       1.0000 0.62500  0.12500  0.26340  Biso   1.000  O
  O10      1.0000 0.62500  0.12500  0.98660  Biso   1.000  O
  O11      1.0000 0.62500  0.62500  0.76340  Biso   1.000  O
  O12      1.0000 0.62500  0.62500  0.48660  Biso   1.000  O
  O13      1.0000 0.12500  0.12500  0.76340  Biso   1.000  O
  O14      1.0000 0.12500  0.12500  0.48660  Biso   1.000  O
  O15      1.0000 0.12500  0.62500  0.26340  Biso   1.000  O
  O16      1.0000 0.12500  0.62500  0.98660  Biso   1.000  O
  H1       1.0000 0.37340  0.92580  0.70650  Biso   1.000  H
  H2       1.0000 0.87660  0.32420  0.70650  Biso   1.000  H
  H3       1.0000 0.37340  0.32420  0.54350  Biso   1.000  H
  H4       1.0000 0.87660  0.92580  0.54350  Biso   1.000  H
  H5       1.0000 0.37340  0.42580  0.20650  Biso   1.000  H
  H6       1.0000 0.87660  0.82420  0.20650  Biso   1.000  H
  H7       1.0000 0.37340  0.82420  0.04350  Biso   1.000  H
  H8       1.0000 0.87660  0.42580  0.04350  Biso   1.000  H
  H9       1.0000 0.87340  0.92580  0.20650  Biso   1.000  H
  H10      1.0000 0.37660  0.32420  0.20650  Biso   1.000  H
  H11      1.0000 0.87340  0.32420  0.04350  Biso   1.000  H
  H12      1.0000 0.37660  0.92580  0.04350  Biso   1.000  H
  H13      1.0000 0.87340  0.42580  0.70650  Biso   1.000  H
  H14      1.0000 0.37660  0.82420  0.70650  Biso   1.000  H
  H15      1.0000 0.87340  0.82420  0.54350  Biso   1.000  H
  H16      1.0000 0.37660  0.42580  0.54350  Biso   1.000  H
  H17      1.0000 0.62660  0.07420  0.29350  Biso   1.000  H
  H18      1.0000 0.62340  0.17580  0.29350  Biso   1.000  H
  H19      1.0000 0.62660  0.17580  0.95650  Biso   1.000  H
  H20      1.0000 0.62340  0.07420  0.95650  Biso   1.000  H
  H21      1.0000 0.62660  0.57420  0.79350  Biso   1.000  H
  H22      1.0000 0.62340  0.67580  0.79350  Biso   1.000  H
  H23      1.0000 0.62660  0.67580  0.45650  Biso   1.000  H
  H24      1.0000 0.62340  0.57420  0.45650  Biso   1.000  H
  H25      1.0000 0.12660  0.07420  0.79350  Biso   1.000  H
  H26      1.0000 0.12340  0.17580  0.79350  Biso   1.000  H
  H27      1.0000 0.12660  0.17580  0.45650  Biso   1.000  H
  H28      1.0000 0.12340  0.07420  0.45650  Biso   1.000  H
  H29      1.0000 0.12660  0.57420  0.29350  Biso   1.000  H
  H30      1.0000 0.12340  0.67580  0.29350  Biso   1.000  H
  H31      1.0000 0.12660  0.67580  0.95650  Biso   1.000  H
  H32      1.0000 0.12340  0.57420  0.95650  Biso   1.000  H
  H33      1.0000 0.40700  0.85480  0.74480  Biso   1.000  H
  H34      1.0000 0.84300  0.39520  0.74480  Biso   1.000  H
  H35      1.0000 0.40700  0.39520  0.50520  Biso   1.000  H
  H36      1.0000 0.84300  0.85480  0.50520  Biso   1.000  H
  H37      1.0000 0.40700  0.35480  0.24480  Biso   1.000  H
  H38      1.0000 0.84300  0.89520  0.24480  Biso   1.000  H
  H39      1.0000 0.40700  0.89520  0.00520  Biso   1.000  H
  H40      1.0000 0.84300  0.35480  0.00520  Biso   1.000  H
  H41      1.0000 0.90700  0.85480  0.24480  Biso   1.000  H
  H42      1.0000 0.34300  0.39520  0.24480  Biso   1.000  H
  H43      1.0000 0.90700  0.39520  0.00520  Biso   1.000  H
  H44      1.0000 0.34300  0.85480  0.00520  Biso   1.000  H
  H45      1.0000 0.90700  0.35480  0.74480  Biso   1.000  H
  H46      1.0000 0.34300  0.89520  0.74480  Biso   1.000  H
  H47      1.0000 0.90700  0.89520  0.50520  Biso   1.000  H
  H48      1.0000 0.34300  0.35480  0.50520  Biso   1.000  H
  H49      1.0000 0.59300  0.14520  0.25520  Biso   1.000  H
  H50      1.0000 0.65700  0.10480  0.25520  Biso   1.000  H
  H51      1.0000 0.59300  0.10480  0.99480  Biso   1.000  H
  H52      1.0000 0.65700  0.14520  0.99480  Biso   1.000  H
  H53      1.0000 0.59300  0.64520  0.75520  Biso   1.000  H
  H54      1.0000 0.65700  0.60480  0.75520  Biso   1.000  H
  H55      1.0000 0.59300  0.60480  0.49480  Biso   1.000  H
  H56      1.0000 0.65700  0.64520  0.49480  Biso   1.000  H
  H57      1.0000 0.09300  0.14520  0.75520  Biso   1.000  H
  H58      1.0000 0.15700  0.10480  0.75520  Biso   1.000  H
  H59      1.0000 0.09300  0.10480  0.49480  Biso   1.000  H
  H60      1.0000 0.15700  0.14520  0.49480  Biso   1.000  H
  H61      1.0000 0.09300  0.64520  0.25520  Biso   1.000  H
  H62      1.0000 0.15700  0.60480  0.25520  Biso   1.000  H
  H63      1.0000 0.09300  0.60480  0.99480  Biso   1.000  H
  H64      1.0000 0.15700  0.64520  0.99480  Biso   1.000  H
  N1       1.0000 0.25390  0.08000  0.91800  Biso   1.000  N
  N2       1.0000 0.99610  0.17000  0.91800  Biso   1.000  N
  N3       1.0000 0.25390  0.17000  0.33200  Biso   1.000  N
  N4       1.0000 0.99610  0.08000  0.33200  Biso   1.000  N
  N5       1.0000 0.25390  0.58000  0.41800  Biso   1.000  N
  N6       1.0000 0.99610  0.67000  0.41800  Biso   1.000  N
  N7       1.0000 0.25390  0.67000  0.83200  Biso   1.000  N
  N8       1.0000 0.99610  0.58000  0.83200  Biso   1.000  N
  N9       1.0000 0.75390  0.08000  0.41800  Biso   1.000  N
  N10      1.0000 0.49610  0.17000  0.41800  Biso   1.000  N
  N11      1.0000 0.75390  0.17000  0.83200  Biso   1.000  N
  N12      1.0000 0.49610  0.08000  0.83200  Biso   1.000  N
  N13      1.0000 0.75390  0.58000  0.91800  Biso   1.000  N
  N14      1.0000 0.49610  0.67000  0.91800  Biso   1.000  N
  N15      1.0000 0.75390  0.67000  0.33200  Biso   1.000  N
  N16      1.0000 0.49610  0.58000  0.33200  Biso   1.000  N
  N17      1.0000 0.74610  0.92000  0.08200  Biso   1.000  N
  N18      1.0000 0.50390  0.33000  0.08200  Biso   1.000  N
  N19      1.0000 0.74610  0.33000  0.16800  Biso   1.000  N
  N20      1.0000 0.50390  0.92000  0.16800  Biso   1.000  N
  N21      1.0000 0.74610  0.42000  0.58200  Biso   1.000  N
  N22      1.0000 0.50390  0.83000  0.58200  Biso   1.000  N
  N23      1.0000 0.74610  0.83000  0.66800  Biso   1.000  N
  N24      1.0000 0.50390  0.42000  0.66800  Biso   1.000  N
  N25      1.0000 0.24610  0.92000  0.58200  Biso   1.000  N
  N26      1.0000 0.00390  0.33000  0.58200  Biso   1.000  N
  N27      1.0000 0.24610  0.33000  0.66800  Biso   1.000  N
  N28      1.0000 0.00390  0.92000  0.66800  Biso   1.000  N
  N29      1.0000 0.24610  0.42000  0.08200  Biso   1.000  N
  N30      1.0000 0.00390  0.83000  0.08200  Biso   1.000  N
  N31      1.0000 0.24610  0.83000  0.16800  Biso   1.000  N
  N32      1.0000 0.00390  0.42000  0.16800  Biso   1.000  N
  N33      1.0000 0.26900  0.11780  0.84900  Biso   1.000  N
  N34      1.0000 0.98100  0.13220  0.84900  Biso   1.000  N
  N35      1.0000 0.26900  0.13220  0.40100  Biso   1.000  N
  N36      1.0000 0.98100  0.11780  0.40100  Biso   1.000  N
  N37      1.0000 0.26900  0.61780  0.34900  Biso   1.000  N
  N38      1.0000 0.98100  0.63220  0.34900  Biso   1.000  N
  N39      1.0000 0.26900  0.63220  0.90100  Biso   1.000  N
  N40      1.0000 0.98100  0.61780  0.90100  Biso   1.000  N
  N41      1.0000 0.76900  0.11780  0.34900  Biso   1.000  N
  N42      1.0000 0.48100  0.13220  0.34900  Biso   1.000  N
  N43      1.0000 0.76900  0.13220  0.90100  Biso   1.000  N
  N44      1.0000 0.48100  0.11780  0.90100  Biso   1.000  N
  N45      1.0000 0.76900  0.61780  0.84900  Biso   1.000  N
  N46      1.0000 0.48100  0.63220  0.84900  Biso   1.000  N
  N47      1.0000 0.76900  0.63220  0.40100  Biso   1.000  N
  N48      1.0000 0.48100  0.61780  0.40100  Biso   1.000  N
  N49      1.0000 0.73100  0.88220  0.15100  Biso   1.000  N
  N50      1.0000 0.51900  0.36780  0.15100  Biso   1.000  N
  N51      1.0000 0.73100  0.36780  0.09900  Biso   1.000  N
  N52      1.0000 0.51900  0.88220  0.09900  Biso   1.000  N
  N53      1.0000 0.73100  0.38220  0.65100  Biso   1.000  N
  N54      1.0000 0.51900  0.86780  0.65100  Biso   1.000  N
  N55      1.0000 0.73100  0.86780  0.59900  Biso   1.000  N
  N56      1.0000 0.51900  0.38220  0.59900  Biso   1.000  N
  N57      1.0000 0.23100  0.88220  0.65100  Biso   1.000  N
  N58      1.0000 0.01900  0.36780  0.65100  Biso   1.000  N
  N59      1.0000 0.23100  0.36780  0.59900  Biso   1.000  N
  N60      1.0000 0.01900  0.88220  0.59900  Biso   1.000  N
  N61      1.0000 0.23100  0.38220  0.15100  Biso   1.000  N
  N62      1.0000 0.01900  0.86780  0.15100  Biso   1.000  N
  N63      1.0000 0.23100  0.86780  0.09900  Biso   1.000  N
  N64      1.0000 0.01900  0.38220  0.09900  Biso   1.000  N
  N65      1.0000 0.31790  0.98270  0.87940  Biso   1.000  N
  N66      1.0000 0.93210  0.26730  0.87940  Biso   1.000  N
  N67      1.0000 0.31790  0.26730  0.37060  Biso   1.000  N
  N68      1.0000 0.93210  0.98270  0.37060  Biso   1.000  N
  N69      1.0000 0.31790  0.48270  0.37940  Biso   1.000  N
  N70      1.0000 0.93210  0.76730  0.37940  Biso   1.000  N
  N71      1.0000 0.31790  0.76730  0.87060  Biso   1.000  N
  N72      1.0000 0.93210  0.48270  0.87060  Biso   1.000  N
  N73      1.0000 0.81790  0.98270  0.37940  Biso   1.000  N
  N74      1.0000 0.43210  0.26730  0.37940  Biso   1.000  N
  N75      1.0000 0.81790  0.26730  0.87060  Biso   1.000  N
  N76      1.0000 0.43210  0.98270  0.87060  Biso   1.000  N
  N77      1.0000 0.81790  0.48270  0.87940  Biso   1.000  N
  N78      1.0000 0.43210  0.76730  0.87940  Biso   1.000  N
  N79      1.0000 0.81790  0.76730  0.37060  Biso   1.000  N
  N80      1.0000 0.43210  0.48270  0.37060  Biso   1.000  N
  N81      1.0000 0.68210  0.01730  0.12060  Biso   1.000  N
  N82      1.0000 0.56790  0.23270  0.12060  Biso   1.000  N
  N83      1.0000 0.68210  0.23270  0.12940  Biso   1.000  N
  N84      1.0000 0.56790  0.01730  0.12940  Biso   1.000  N
  N85      1.0000 0.68210  0.51730  0.62060  Biso   1.000  N
  N86      1.0000 0.56790  0.73270  0.62060  Biso   1.000  N
  N87      1.0000 0.68210  0.73270  0.62940  Biso   1.000  N
  N88      1.0000 0.56790  0.51730  0.62940  Biso   1.000  N
  N89      1.0000 0.18210  0.01730  0.62060  Biso   1.000  N
  N90      1.0000 0.06790  0.23270  0.62060  Biso   1.000  N
  N91      1.0000 0.18210  0.23270  0.62940  Biso   1.000  N
  N92      1.0000 0.06790  0.01730  0.62940  Biso   1.000  N
  N93      1.0000 0.18210  0.51730  0.12060  Biso   1.000  N
  N94      1.0000 0.06790  0.73270  0.12060  Biso   1.000  N
  N95      1.0000 0.18210  0.73270  0.12940  Biso   1.000  N
  N96      1.0000 0.06790  0.51730  0.12940  Biso   1.000  N
  C1       1.0000 0.28370  0.99980  0.93520  Biso   1.000  C
  C2       1.0000 0.96630  0.25020  0.93520  Biso   1.000  C
  C3       1.0000 0.28370  0.25020  0.31480  Biso   1.000  C
  C4       1.0000 0.96630  0.99980  0.31480  Biso   1.000  C
  C5       1.0000 0.28370  0.49980  0.43520  Biso   1.000  C
  C6       1.0000 0.96630  0.75020  0.43520  Biso   1.000  C
  C7       1.0000 0.28370  0.75020  0.81480  Biso   1.000  C
  C8       1.0000 0.96630  0.49980  0.81480  Biso   1.000  C
  C9       1.0000 0.78370  0.99980  0.43520  Biso   1.000  C
  C10      1.0000 0.46630  0.25020  0.43520  Biso   1.000  C
  C11      1.0000 0.78370  0.25020  0.81480  Biso   1.000  C
  C12      1.0000 0.46630  0.99980  0.81480  Biso   1.000  C
  C13      1.0000 0.78370  0.49980  0.93520  Biso   1.000  C
  C14      1.0000 0.46630  0.75020  0.93520  Biso   1.000  C
  C15      1.0000 0.78370  0.75020  0.31480  Biso   1.000  C
  C16      1.0000 0.46630  0.49980  0.31480  Biso   1.000  C
  C17      1.0000 0.71630  0.00020  0.06480  Biso   1.000  C
  C18      1.0000 0.53370  0.24980  0.06480  Biso   1.000  C
  C19      1.0000 0.71630  0.24980  0.18520  Biso   1.000  C
  C20      1.0000 0.53370  0.00020  0.18520  Biso   1.000  C
  C21      1.0000 0.71630  0.50020  0.56480  Biso   1.000  C
  C22      1.0000 0.53370  0.74980  0.56480  Biso   1.000  C
  C23      1.0000 0.71630  0.74980  0.68520  Biso   1.000  C
  C24      1.0000 0.53370  0.50020  0.68520  Biso   1.000  C
  C25      1.0000 0.21630  0.00020  0.56480  Biso   1.000  C
  C26      1.0000 0.03370  0.24980  0.56480  Biso   1.000  C
  C27      1.0000 0.21630  0.24980  0.68520  Biso   1.000  C
  C28      1.0000 0.03370  0.00020  0.68520  Biso   1.000  C
  C29      1.0000 0.21630  0.50020  0.06480  Biso   1.000  C
  C30      1.0000 0.03370  0.74980  0.06480  Biso   1.000  C
  C31      1.0000 0.21630  0.74980  0.18520  Biso   1.000  C
  C32      1.0000 0.03370  0.50020  0.18520  Biso   1.000  C
  H65      1.0000 0.28070  0.96160  0.97980  Biso   1.000  H
  H66      1.0000 0.96930  0.28840  0.97980  Biso   1.000  H
  H67      1.0000 0.28070  0.28840  0.27020  Biso   1.000  H
  H68      1.0000 0.96930  0.96160  0.27020  Biso   1.000  H
  H69      1.0000 0.28070  0.46160  0.47980  Biso   1.000  H
  H70      1.0000 0.96930  0.78840  0.47980  Biso   1.000  H
  H71      1.0000 0.28070  0.78840  0.77020  Biso   1.000  H
  H72      1.0000 0.96930  0.46160  0.77020  Biso   1.000  H
  H73      1.0000 0.78070  0.96160  0.47980  Biso   1.000  H
  H74      1.0000 0.46930  0.28840  0.47980  Biso   1.000  H
  H75      1.0000 0.78070  0.28840  0.77020  Biso   1.000  H
  H76      1.0000 0.46930  0.96160  0.77020  Biso   1.000  H
  H77      1.0000 0.78070  0.46160  0.97980  Biso   1.000  H
  H78      1.0000 0.46930  0.78840  0.97980  Biso   1.000  H
  H79      1.0000 0.78070  0.78840  0.27020  Biso   1.000  H
  H80      1.0000 0.46930  0.46160  0.27020  Biso   1.000  H
  H81      1.0000 0.71930  0.03840  0.02020  Biso   1.000  H
  H82      1.0000 0.53070  0.21160  0.02020  Biso   1.000  H
  H83      1.0000 0.71930  0.21160  0.22980  Biso   1.000  H
  H84      1.0000 0.53070  0.03840  0.22980  Biso   1.000  H
  H85      1.0000 0.71930  0.53840  0.52020  Biso   1.000  H
  H86      1.0000 0.53070  0.71160  0.52020  Biso   1.000  H
  H87      1.0000 0.71930  0.71160  0.72980  Biso   1.000  H
  H88      1.0000 0.53070  0.53840  0.72980  Biso   1.000  H
  H89      1.0000 0.21930  0.03840  0.52020  Biso   1.000  H
  H90      1.0000 0.03070  0.21160  0.52020  Biso   1.000  H
  H91      1.0000 0.21930  0.21160  0.72980  Biso   1.000  H
  H92      1.0000 0.03070  0.03840  0.72980  Biso   1.000  H
  H93      1.0000 0.21930  0.53840  0.02020  Biso   1.000  H
  H94      1.0000 0.03070  0.71160  0.02020  Biso   1.000  H
  H95      1.0000 0.21930  0.71160  0.22980  Biso   1.000  H
  H96      1.0000 0.03070  0.53840  0.22980  Biso   1.000  H
  C33      1.0000 0.30720  0.05650  0.82840  Biso   1.000  C
  C34      1.0000 0.94280  0.19350  0.82840  Biso   1.000  C
  C35      1.0000 0.30720  0.19350  0.42160  Biso   1.000  C
  C36      1.0000 0.94280  0.05650  0.42160  Biso   1.000  C
  C37      1.0000 0.30720  0.55650  0.32840  Biso   1.000  C
  C38      1.0000 0.94280  0.69350  0.32840  Biso   1.000  C
  C39      1.0000 0.30720  0.69350  0.92160  Biso   1.000  C
  C40      1.0000 0.94280  0.55650  0.92160  Biso   1.000  C
  C41      1.0000 0.80720  0.05650  0.32840  Biso   1.000  C
  C42      1.0000 0.44280  0.19350  0.32840  Biso   1.000  C
  C43      1.0000 0.80720  0.19350  0.92160  Biso   1.000  C
  C44      1.0000 0.44280  0.05650  0.92160  Biso   1.000  C
  C45      1.0000 0.80720  0.55650  0.82840  Biso   1.000  C
  C46      1.0000 0.44280  0.69350  0.82840  Biso   1.000  C
  C47      1.0000 0.80720  0.69350  0.42160  Biso   1.000  C
  C48      1.0000 0.44280  0.55650  0.42160  Biso   1.000  C
  C49      1.0000 0.69280  0.94350  0.17160  Biso   1.000  C
  C50      1.0000 0.55720  0.30650  0.17160  Biso   1.000  C
  C51      1.0000 0.69280  0.30650  0.07840  Biso   1.000  C
  C52      1.0000 0.55720  0.94350  0.07840  Biso   1.000  C
  C53      1.0000 0.69280  0.44350  0.67160  Biso   1.000  C
  C54      1.0000 0.55720  0.80650  0.67160  Biso   1.000  C
  C55      1.0000 0.69280  0.80650  0.57840  Biso   1.000  C
  C56      1.0000 0.55720  0.44350  0.57840  Biso   1.000  C
  C57      1.0000 0.19280  0.94350  0.67160  Biso   1.000  C
  C58      1.0000 0.05720  0.30650  0.67160  Biso   1.000  C
  C59      1.0000 0.19280  0.30650  0.57840  Biso   1.000  C
  C60      1.0000 0.05720  0.94350  0.57840  Biso   1.000  C
  C61      1.0000 0.19280  0.44350  0.17160  Biso   1.000  C
  C62      1.0000 0.05720  0.80650  0.17160  Biso   1.000  C
  C63      1.0000 0.19280  0.80650  0.07840  Biso   1.000  C
  C64      1.0000 0.05720  0.44350  0.07840  Biso   1.000  C
  H97      1.0000 0.32560  0.06330  0.78220  Biso   1.000  H
  H98      1.0000 0.92440  0.18670  0.78220  Biso   1.000  H
  H99      1.0000 0.32560  0.18670  0.46780  Biso   1.000  H
  H100     1.0000 0.92440  0.06330  0.46780  Biso   1.000  H
  H101     1.0000 0.32560  0.56330  0.28220  Biso   1.000  H
  H102     1.0000 0.92440  0.68670  0.28220  Biso   1.000  H
  H103     1.0000 0.32560  0.68670  0.96780  Biso   1.000  H
  H104     1.0000 0.92440  0.56330  0.96780  Biso   1.000  H
  H105     1.0000 0.82560  0.06330  0.28220  Biso   1.000  H
  H106     1.0000 0.42440  0.18670  0.28220  Biso   1.000  H
  H107     1.0000 0.82560  0.18670  0.96780  Biso   1.000  H
  H108     1.0000 0.42440  0.06330  0.96780  Biso   1.000  H
  H109     1.0000 0.82560  0.56330  0.78220  Biso   1.000  H
  H110     1.0000 0.42440  0.68670  0.78220  Biso   1.000  H
  H111     1.0000 0.82560  0.68670  0.46780  Biso   1.000  H
  H112     1.0000 0.42440  0.56330  0.46780  Biso   1.000  H
  H113     1.0000 0.67440  0.93670  0.21780  Biso   1.000  H
  H114     1.0000 0.57560  0.31330  0.21780  Biso   1.000  H
  H115     1.0000 0.67440  0.31330  0.03220  Biso   1.000  H
  H116     1.0000 0.57560  0.93670  0.03220  Biso   1.000  H
  H117     1.0000 0.67440  0.43670  0.71780  Biso   1.000  H
  H118     1.0000 0.57560  0.81330  0.71780  Biso   1.000  H
  H119     1.0000 0.67440  0.81330  0.53220  Biso   1.000  H
  H120     1.0000 0.57560  0.43670  0.53220  Biso   1.000  H
  H121     1.0000 0.17440  0.93670  0.71780  Biso   1.000  H
  H122     1.0000 0.07560  0.31330  0.71780  Biso   1.000  H
  H123     1.0000 0.17440  0.31330  0.53220  Biso   1.000  H
  H124     1.0000 0.07560  0.93670  0.53220  Biso   1.000  H
  H125     1.0000 0.17440  0.43670  0.21780  Biso   1.000  H
  H126     1.0000 0.07560  0.81330  0.21780  Biso   1.000  H
  H127     1.0000 0.17440  0.81330  0.03220  Biso   1.000  H
  H128     1.0000 0.07560  0.43670  0.03220  Biso   1.000  H
  C65      1.0000 0.21270  0.12940  0.96440  Biso   1.000  C
  C66      1.0000 0.03730  0.12060  0.96440  Biso   1.000  C
  C67      1.0000 0.21270  0.12060  0.28560  Biso   1.000  C
  C68      1.0000 0.03730  0.12940  0.28560  Biso   1.000  C
  C69      1.0000 0.21270  0.62940  0.46440  Biso   1.000  C
  C70      1.0000 0.03730  0.62060  0.46440  Biso   1.000  C
  C71      1.0000 0.21270  0.62060  0.78560  Biso   1.000  C
  C72      1.0000 0.03730  0.62940  0.78560  Biso   1.000  C
  C73      1.0000 0.71270  0.12940  0.46440  Biso   1.000  C
  C74      1.0000 0.53730  0.12060  0.46440  Biso   1.000  C
  C75      1.0000 0.71270  0.12060  0.78560  Biso   1.000  C
  C76      1.0000 0.53730  0.12940  0.78560  Biso   1.000  C
  C77      1.0000 0.71270  0.62940  0.96440  Biso   1.000  C
  C78      1.0000 0.53730  0.62060  0.96440  Biso   1.000  C
  C79      1.0000 0.71270  0.62060  0.28560  Biso   1.000  C
  C80      1.0000 0.53730  0.62940  0.28560  Biso   1.000  C
  C81      1.0000 0.78730  0.87060  0.03560  Biso   1.000  C
  C82      1.0000 0.46270  0.37940  0.03560  Biso   1.000  C
  C83      1.0000 0.78730  0.37940  0.21440  Biso   1.000  C
  C84      1.0000 0.46270  0.87060  0.21440  Biso   1.000  C
  C85      1.0000 0.78730  0.37060  0.53560  Biso   1.000  C
  C86      1.0000 0.46270  0.87940  0.53560  Biso   1.000  C
  C87      1.0000 0.78730  0.87940  0.71440  Biso   1.000  C
  C88      1.0000 0.46270  0.37060  0.71440  Biso   1.000  C
  C89      1.0000 0.28730  0.87060  0.53560  Biso   1.000  C
  C90      1.0000 0.96270  0.37940  0.53560  Biso   1.000  C
  C91      1.0000 0.28730  0.37940  0.71440  Biso   1.000  C
  C92      1.0000 0.96270  0.87060  0.71440  Biso   1.000  C
  C93      1.0000 0.28730  0.37060  0.03560  Biso   1.000  C
  C94      1.0000 0.96270  0.87940  0.03560  Biso   1.000  C
  C95      1.0000 0.28730  0.87940  0.21440  Biso   1.000  C
  C96      1.0000 0.96270  0.37060  0.21440  Biso   1.000  C
  H129     1.0000 0.18750  0.16260  0.93040  Biso   1.000  H
  H130     1.0000 0.06250  0.08740  0.93040  Biso   1.000  H
  H131     1.0000 0.18750  0.08740  0.31960  Biso   1.000  H
  H132     1.0000 0.06250  0.16260  0.31960  Biso   1.000  H
  H133     1.0000 0.18750  0.66260  0.43040  Biso   1.000  H
  H134     1.0000 0.06250  0.58740  0.43040  Biso   1.000  H
  H135     1.0000 0.18750  0.58740  0.81960  Biso   1.000  H
  H136     1.0000 0.06250  0.66260  0.81960  Biso   1.000  H
  H137     1.0000 0.68750  0.16260  0.43040  Biso   1.000  H
  H138     1.0000 0.56250  0.08740  0.43040  Biso   1.000  H
  H139     1.0000 0.68750  0.08740  0.81960  Biso   1.000  H
  H140     1.0000 0.56250  0.16260  0.81960  Biso   1.000  H
  H141     1.0000 0.68750  0.66260  0.93040  Biso   1.000  H
  H142     1.0000 0.56250  0.58740  0.93040  Biso   1.000  H
  H143     1.0000 0.68750  0.58740  0.31960  Biso   1.000  H
  H144     1.0000 0.56250  0.66260  0.31960  Biso   1.000  H
  H145     1.0000 0.81250  0.83740  0.06960  Biso   1.000  H
  H146     1.0000 0.43750  0.41260  0.06960  Biso   1.000  H
  H147     1.0000 0.81250  0.41260  0.18040  Biso   1.000  H
  H148     1.0000 0.43750  0.83740  0.18040  Biso   1.000  H
  H149     1.0000 0.81250  0.33740  0.56960  Biso   1.000  H
  H150     1.0000 0.43750  0.91260  0.56960  Biso   1.000  H
  H151     1.0000 0.81250  0.91260  0.68040  Biso   1.000  H
  H152     1.0000 0.43750  0.33740  0.68040  Biso   1.000  H
  H153     1.0000 0.31250  0.83740  0.56960  Biso   1.000  H
  H154     1.0000 0.93750  0.41260  0.56960  Biso   1.000  H
  H155     1.0000 0.31250  0.41260  0.68040  Biso   1.000  H
  H156     1.0000 0.93750  0.83740  0.68040  Biso   1.000  H
  H157     1.0000 0.31250  0.33740  0.06960  Biso   1.000  H
  H158     1.0000 0.93750  0.91260  0.06960  Biso   1.000  H
  H159     1.0000 0.31250  0.91260  0.18040  Biso   1.000  H
  H160     1.0000 0.93750  0.33740  0.18040  Biso   1.000  H
  H161     1.0000 0.19350  0.07830  0.99330  Biso   1.000  H
  H162     1.0000 0.05650  0.17170  0.99330  Biso   1.000  H
  H163     1.0000 0.19350  0.17170  0.25670  Biso   1.000  H
  H164     1.0000 0.05650  0.07830  0.25670  Biso   1.000  H
  H165     1.0000 0.19350  0.57830  0.49330  Biso   1.000  H
  H166     1.0000 0.05650  0.67170  0.49330  Biso   1.000  H
  H167     1.0000 0.19350  0.67170  0.75670  Biso   1.000  H
  H168     1.0000 0.05650  0.57830  0.75670  Biso   1.000  H
  H169     1.0000 0.69350  0.07830  0.49330  Biso   1.000  H
  H170     1.0000 0.55650  0.17170  0.49330  Biso   1.000  H
  H171     1.0000 0.69350  0.17170  0.75670  Biso   1.000  H
  H172     1.0000 0.55650  0.07830  0.75670  Biso   1.000  H
  H173     1.0000 0.69350  0.57830  0.99330  Biso   1.000  H
  H174     1.0000 0.55650  0.67170  0.99330  Biso   1.000  H
  H175     1.0000 0.69350  0.67170  0.25670  Biso   1.000  H
  H176     1.0000 0.55650  0.57830  0.25670  Biso   1.000  H
  H177     1.0000 0.80650  0.92170  0.00670  Biso   1.000  H
  H178     1.0000 0.44350  0.32830  0.00670  Biso   1.000  H
  H179     1.0000 0.80650  0.32830  0.24330  Biso   1.000  H
  H180     1.0000 0.44350  0.92170  0.24330  Biso   1.000  H
  H181     1.0000 0.80650  0.42170  0.50670  Biso   1.000  H
  H182     1.0000 0.44350  0.82830  0.50670  Biso   1.000  H
  H183     1.0000 0.80650  0.82830  0.74330  Biso   1.000  H
  H184     1.0000 0.44350  0.42170  0.74330  Biso   1.000  H
  H185     1.0000 0.30650  0.92170  0.50670  Biso   1.000  H
  H186     1.0000 0.94350  0.32830  0.50670  Biso   1.000  H
  H187     1.0000 0.30650  0.32830  0.74330  Biso   1.000  H
  H188     1.0000 0.94350  0.92170  0.74330  Biso   1.000  H
  H189     1.0000 0.30650  0.42170  0.00670  Biso   1.000  H
  H190     1.0000 0.94350  0.82830  0.00670  Biso   1.000  H
  H191     1.0000 0.30650  0.82830  0.24330  Biso   1.000  H
  H192     1.0000 0.94350  0.42170  0.24330  Biso   1.000  H
  C97      1.0000 0.23540  0.20670  0.01980  Biso   1.000  C
  C98      1.0000 0.01460  0.04330  0.01980  Biso   1.000  C
  C99      1.0000 0.23540  0.04330  0.23020  Biso   1.000  C
  C100     1.0000 0.01460  0.20670  0.23020  Biso   1.000  C
  C101     1.0000 0.23540  0.70670  0.51980  Biso   1.000  C
  C102     1.0000 0.01460  0.54330  0.51980  Biso   1.000  C
  C103     1.0000 0.23540  0.54330  0.73020  Biso   1.000  C
  C104     1.0000 0.01460  0.70670  0.73020  Biso   1.000  C
  C105     1.0000 0.73540  0.20670  0.51980  Biso   1.000  C
  C106     1.0000 0.51460  0.04330  0.51980  Biso   1.000  C
  C107     1.0000 0.73540  0.04330  0.73020  Biso   1.000  C
  C108     1.0000 0.51460  0.20670  0.73020  Biso   1.000  C
  C109     1.0000 0.73540  0.70670  0.01980  Biso   1.000  C
  C110     1.0000 0.51460  0.54330  0.01980  Biso   1.000  C
  C111     1.0000 0.73540  0.54330  0.23020  Biso   1.000  C
  C112     1.0000 0.51460  0.70670  0.23020  Biso   1.000  C
  C113     1.0000 0.76460  0.79330  0.98020  Biso   1.000  C
  C114     1.0000 0.48540  0.45670  0.98020  Biso   1.000  C
  C115     1.0000 0.76460  0.45670  0.26980  Biso   1.000  C
  C116     1.0000 0.48540  0.79330  0.26980  Biso   1.000  C
  C117     1.0000 0.76460  0.29330  0.48020  Biso   1.000  C
  C118     1.0000 0.48540  0.95670  0.48020  Biso   1.000  C
  C119     1.0000 0.76460  0.95670  0.76980  Biso   1.000  C
  C120     1.0000 0.48540  0.29330  0.76980  Biso   1.000  C
  C121     1.0000 0.26460  0.79330  0.48020  Biso   1.000  C
  C122     1.0000 0.98540  0.45670  0.48020  Biso   1.000  C
  C123     1.0000 0.26460  0.45670  0.76980  Biso   1.000  C
  C124     1.0000 0.98540  0.79330  0.76980  Biso   1.000  C
  C125     1.0000 0.26460  0.29330  0.98020  Biso   1.000  C
  C126     1.0000 0.98540  0.95670  0.98020  Biso   1.000  C
  C127     1.0000 0.26460  0.95670  0.26980  Biso   1.000  C
  C128     1.0000 0.98540  0.29330  0.26980  Biso   1.000  C
  H193     1.0000 0.20650  0.23440  0.05040  Biso   1.000  H
  H194     1.0000 0.04350  0.01560  0.05040  Biso   1.000  H
  H195     1.0000 0.20650  0.01560  0.19960  Biso   1.000  H
  H196     1.0000 0.04350  0.23440  0.19960  Biso   1.000  H
  H197     1.0000 0.20650  0.73440  0.55040  Biso   1.000  H
  H198     1.0000 0.04350  0.51560  0.55040  Biso   1.000  H
  H199     1.0000 0.20650  0.51560  0.69960  Biso   1.000  H
  H200     1.0000 0.04350  0.73440  0.69960  Biso   1.000  H
  H201     1.0000 0.70650  0.23440  0.55040  Biso   1.000  H
  H202     1.0000 0.54350  0.01560  0.55040  Biso   1.000  H
  H203     1.0000 0.70650  0.01560  0.69960  Biso   1.000  H
  H204     1.0000 0.54350  0.23440  0.69960  Biso   1.000  H
  H205     1.0000 0.70650  0.73440  0.05040  Biso   1.000  H
  H206     1.0000 0.54350  0.51560  0.05040  Biso   1.000  H
  H207     1.0000 0.70650  0.51560  0.19960  Biso   1.000  H
  H208     1.0000 0.54350  0.73440  0.19960  Biso   1.000  H
  H209     1.0000 0.79350  0.76560  0.94960  Biso   1.000  H
  H210     1.0000 0.45650  0.48440  0.94960  Biso   1.000  H
  H211     1.0000 0.79350  0.48440  0.30040  Biso   1.000  H
  H212     1.0000 0.45650  0.76560  0.30040  Biso   1.000  H
  H213     1.0000 0.79350  0.26560  0.44960  Biso   1.000  H
  H214     1.0000 0.45650  0.98440  0.44960  Biso   1.000  H
  H215     1.0000 0.79350  0.98440  0.80040  Biso   1.000  H
  H216     1.0000 0.45650  0.26560  0.80040  Biso   1.000  H
  H217     1.0000 0.29350  0.76560  0.44960  Biso   1.000  H
  H218     1.0000 0.95650  0.48440  0.44960  Biso   1.000  H
  H219     1.0000 0.29350  0.48440  0.80040  Biso   1.000  H
  H220     1.0000 0.95650  0.76560  0.80040  Biso   1.000  H
  H221     1.0000 0.29350  0.26560  0.94960  Biso   1.000  H
  H222     1.0000 0.95650  0.98440  0.94960  Biso   1.000  H
  H223     1.0000 0.29350  0.98440  0.30040  Biso   1.000  H
  H224     1.0000 0.95650  0.26560  0.30040  Biso   1.000  H
  H225     1.0000 0.25990  0.17300  0.05450  Biso   1.000  H
  H226     1.0000 0.99010  0.07700  0.05450  Biso   1.000  H
  H227     1.0000 0.25990  0.07700  0.19550  Biso   1.000  H
  H228     1.0000 0.99010  0.17300  0.19550  Biso   1.000  H
  H229     1.0000 0.25990  0.67300  0.55450  Biso   1.000  H
  H230     1.0000 0.99010  0.57700  0.55450  Biso   1.000  H
  H231     1.0000 0.25990  0.57700  0.69550  Biso   1.000  H
  H232     1.0000 0.99010  0.67300  0.69550  Biso   1.000  H
  H233     1.0000 0.75990  0.17300  0.55450  Biso   1.000  H
  H234     1.0000 0.49010  0.07700  0.55450  Biso   1.000  H
  H235     1.0000 0.75990  0.07700  0.69550  Biso   1.000  H
  H236     1.0000 0.49010  0.17300  0.69550  Biso   1.000  H
  H237     1.0000 0.75990  0.67300  0.05450  Biso   1.000  H
  H238     1.0000 0.49010  0.57700  0.05450  Biso   1.000  H
  H239     1.0000 0.75990  0.57700  0.19550  Biso   1.000  H
  H240     1.0000 0.49010  0.67300  0.19550  Biso   1.000  H
  H241     1.0000 0.74010  0.82700  0.94550  Biso   1.000  H
  H242     1.0000 0.50990  0.42300  0.94550  Biso   1.000  H
  H243     1.0000 0.74010  0.42300  0.30450  Biso   1.000  H
  H244     1.0000 0.50990  0.82700  0.30450  Biso   1.000  H
  H245     1.0000 0.74010  0.32700  0.44550  Biso   1.000  H
  H246     1.0000 0.50990  0.92300  0.44550  Biso   1.000  H
  H247     1.0000 0.74010  0.92300  0.80450  Biso   1.000  H
  H248     1.0000 0.50990  0.32700  0.80450  Biso   1.000  H
  H249     1.0000 0.24010  0.82700  0.44550  Biso   1.000  H
  H250     1.0000 0.00990  0.42300  0.44550  Biso   1.000  H
  H251     1.0000 0.24010  0.42300  0.80450  Biso   1.000  H
  H252     1.0000 0.00990  0.82700  0.80450  Biso   1.000  H
  H253     1.0000 0.24010  0.32700  0.94550  Biso   1.000  H
  H254     1.0000 0.00990  0.92300  0.94550  Biso   1.000  H
  H255     1.0000 0.24010  0.92300  0.30450  Biso   1.000  H
  H256     1.0000 0.00990  0.32700  0.30450  Biso   1.000  H
  Cl1      1.0000 0.13145  0.37500  0.37500  Biso   1.000  Cl
  Cl2      1.0000 0.11855  0.87500  0.37500  Biso   1.000  Cl
  Cl3      1.0000 0.13145  0.87500  0.87500  Biso   1.000  Cl
  Cl4      1.0000 0.11855  0.37500  0.87500  Biso   1.000  Cl
  Cl5      1.0000 0.63145  0.37500  0.87500  Biso   1.000  Cl
  Cl6      1.0000 0.61855  0.87500  0.87500  Biso   1.000  Cl
  Cl7      1.0000 0.63145  0.87500  0.37500  Biso   1.000  Cl
  Cl8      1.0000 0.61855  0.37500  0.37500  Biso   1.000  Cl
  Cl9      1.0000 0.86855  0.62500  0.62500  Biso   1.000  Cl
  Cl10     1.0000 0.38145  0.62500  0.62500  Biso   1.000  Cl
  Cl11     1.0000 0.86855  0.12500  0.12500  Biso   1.000  Cl
  Cl12     1.0000 0.38145  0.12500  0.12500  Biso   1.000  Cl
  Cl13     1.0000 0.36855  0.62500  0.12500  Biso   1.000  Cl
  Cl14     1.0000 0.88145  0.62500  0.12500  Biso   1.000  Cl
  Cl15     1.0000 0.36855  0.12500  0.62500  Biso   1.000  Cl
  Cl16     1.0000 0.88145  0.12500  0.62500  Biso   1.000  Cl
  O17      1.0000 0.10310  0.43570  0.32260  Biso   1.000  O
  O18      1.0000 0.14690  0.81430  0.32260  Biso   1.000  O
  O19      1.0000 0.10310  0.81430  0.92740  Biso   1.000  O
  O20      1.0000 0.14690  0.43570  0.92740  Biso   1.000  O
  O21      1.0000 0.10310  0.93570  0.82260  Biso   1.000  O
  O22      1.0000 0.14690  0.31430  0.82260  Biso   1.000  O
  O23      1.0000 0.10310  0.31430  0.42740  Biso   1.000  O
  O24      1.0000 0.14690  0.93570  0.42740  Biso   1.000  O
  O25      1.0000 0.60310  0.43570  0.82260  Biso   1.000  O
  O26      1.0000 0.64690  0.81430  0.82260  Biso   1.000  O
  O27      1.0000 0.60310  0.81430  0.42740  Biso   1.000  O
  O28      1.0000 0.64690  0.43570  0.42740  Biso   1.000  O
  O29      1.0000 0.60310  0.93570  0.32260  Biso   1.000  O
  O30      1.0000 0.64690  0.31430  0.32260  Biso   1.000  O
  O31      1.0000 0.60310  0.31430  0.92740  Biso   1.000  O
  O32      1.0000 0.64690  0.93570  0.92740  Biso   1.000  O
  O33      1.0000 0.89690  0.56430  0.67740  Biso   1.000  O
  O34      1.0000 0.35310  0.68570  0.67740  Biso   1.000  O
  O35      1.0000 0.89690  0.68570  0.57260  Biso   1.000  O
  O36      1.0000 0.35310  0.56430  0.57260  Biso   1.000  O
  O37      1.0000 0.89690  0.06430  0.17740  Biso   1.000  O
  O38      1.0000 0.35310  0.18570  0.17740  Biso   1.000  O
  O39      1.0000 0.89690  0.18570  0.07260  Biso   1.000  O
  O40      1.0000 0.35310  0.06430  0.07260  Biso   1.000  O
  O41      1.0000 0.39690  0.56430  0.17740  Biso   1.000  O
  O42      1.0000 0.85310  0.68570  0.17740  Biso   1.000  O
  O43      1.0000 0.39690  0.68570  0.07260  Biso   1.000  O
  O44      1.0000 0.85310  0.56430  0.07260  Biso   1.000  O
  O45      1.0000 0.39690  0.06430  0.67740  Biso   1.000  O
  O46      1.0000 0.85310  0.18570  0.67740  Biso   1.000  O
  O47      1.0000 0.39690  0.18570  0.57260  Biso   1.000  O
  O48      1.0000 0.85310  0.06430  0.57260  Biso   1.000  O
  O49      1.0000 0.18640  0.37500  0.37500  Biso   1.000  O
  O50      1.0000 0.06360  0.87500  0.37500  Biso   1.000  O
  O51      1.0000 0.18640  0.87500  0.87500  Biso   1.000  O
  O52      1.0000 0.06360  0.37500  0.87500  Biso   1.000  O
  O53      1.0000 0.68640  0.37500  0.87500  Biso   1.000  O
  O54      1.0000 0.56360  0.87500  0.87500  Biso   1.000  O
  O55      1.0000 0.68640  0.87500  0.37500  Biso   1.000  O
  O56      1.0000 0.56360  0.37500  0.37500  Biso   1.000  O
  O57      1.0000 0.81360  0.62500  0.62500  Biso   1.000  O
  O58      1.0000 0.43640  0.62500  0.62500  Biso   1.000  O
  O59      1.0000 0.81360  0.12500  0.12500  Biso   1.000  O
  O60      1.0000 0.43640  0.12500  0.12500  Biso   1.000  O
  O61      1.0000 0.31360  0.62500  0.12500  Biso   1.000  O
  O62      1.0000 0.93640  0.62500  0.12500  Biso   1.000  O
  O63      1.0000 0.31360  0.12500  0.62500  Biso   1.000  O
  O64      1.0000 0.93640  0.12500  0.62500  Biso   1.000  O
  O65      1.0000 0.12130  0.43190  0.45130  Biso   1.000  O
  O66      1.0000 0.12870  0.81810  0.45130  Biso   1.000  O
  O67      1.0000 0.12130  0.81810  0.79870  Biso   1.000  O
  O68      1.0000 0.12870  0.43190  0.79870  Biso   1.000  O
  O69      1.0000 0.12130  0.93190  0.95130  Biso   1.000  O
  O70      1.0000 0.12870  0.31810  0.95130  Biso   1.000  O
  O71      1.0000 0.12130  0.31810  0.29870  Biso   1.000  O
  O72      1.0000 0.12870  0.93190  0.29870  Biso   1.000  O
  O73      1.0000 0.62130  0.43190  0.95130  Biso   1.000  O
  O74      1.0000 0.62870  0.81810  0.95130  Biso   1.000  O
  O75      1.0000 0.62130  0.81810  0.29870  Biso   1.000  O
  O76      1.0000 0.62870  0.43190  0.29870  Biso   1.000  O
  O77      1.0000 0.62130  0.93190  0.45130  Biso   1.000  O
  O78      1.0000 0.62870  0.31810  0.45130  Biso   1.000  O
  O79      1.0000 0.62130  0.31810  0.79870  Biso   1.000  O
  O80      1.0000 0.62870  0.93190  0.79870  Biso   1.000  O
  O81      1.0000 0.87870  0.56810  0.54870  Biso   1.000  O
  O82      1.0000 0.37130  0.68190  0.54870  Biso   1.000  O
  O83      1.0000 0.87870  0.68190  0.70130  Biso   1.000  O
  O84      1.0000 0.37130  0.56810  0.70130  Biso   1.000  O
  O85      1.0000 0.87870  0.06810  0.04870  Biso   1.000  O
  O86      1.0000 0.37130  0.18190  0.04870  Biso   1.000  O
  O87      1.0000 0.87870  0.18190  0.20130  Biso   1.000  O
  O88      1.0000 0.37130  0.06810  0.20130  Biso   1.000  O
  O89      1.0000 0.37870  0.56810  0.04870  Biso   1.000  O
  O90      1.0000 0.87130  0.68190  0.04870  Biso   1.000  O
  O91      1.0000 0.37870  0.68190  0.20130  Biso   1.000  O
  O92      1.0000 0.87130  0.56810  0.20130  Biso   1.000  O
  O93      1.0000 0.37870  0.06810  0.54870  Biso   1.000  O
  O94      1.0000 0.87130  0.18190  0.54870  Biso   1.000  O
  O95      1.0000 0.37870  0.18190  0.70130  Biso   1.000  O
  O96      1.0000 0.87130  0.06810  0.70130  Biso   1.000  O
  O97      1.0000 0.10780  0.27970  0.38730  Biso   1.000  O
  O98      1.0000 0.14220  0.97030  0.38730  Biso   1.000  O
  O99      1.0000 0.10780  0.97030  0.86270  Biso   1.000  O
  O100     1.0000 0.14220  0.27970  0.86270  Biso   1.000  O
  O101     1.0000 0.10780  0.77970  0.88730  Biso   1.000  O
  O102     1.0000 0.14220  0.47030  0.88730  Biso   1.000  O
  O103     1.0000 0.10780  0.47030  0.36270  Biso   1.000  O
  O104     1.0000 0.14220  0.77970  0.36270  Biso   1.000  O
  O105     1.0000 0.60780  0.27970  0.88730  Biso   1.000  O
  O106     1.0000 0.64220  0.97030  0.88730  Biso   1.000  O
  O107     1.0000 0.60780  0.97030  0.36270  Biso   1.000  O
  O108     1.0000 0.64220  0.27970  0.36270  Biso   1.000  O
  O109     1.0000 0.60780  0.77970  0.38730  Biso   1.000  O
  O110     1.0000 0.64220  0.47030  0.38730  Biso   1.000  O
  O111     1.0000 0.60780  0.47030  0.86270  Biso   1.000  O
  O112     1.0000 0.64220  0.77970  0.86270  Biso   1.000  O
  O113     1.0000 0.89220  0.72030  0.61270  Biso   1.000  O
  O114     1.0000 0.35780  0.52970  0.61270  Biso   1.000  O
  O115     1.0000 0.89220  0.52970  0.63730  Biso   1.000  O
  O116     1.0000 0.35780  0.72030  0.63730  Biso   1.000  O
  O117     1.0000 0.89220  0.22030  0.11270  Biso   1.000  O
  O118     1.0000 0.35780  0.02970  0.11270  Biso   1.000  O
  O119     1.0000 0.89220  0.02970  0.13730  Biso   1.000  O
  O120     1.0000 0.35780  0.22030  0.13730  Biso   1.000  O
  O121     1.0000 0.39220  0.72030  0.11270  Biso   1.000  O
  O122     1.0000 0.85780  0.52970  0.11270  Biso   1.000  O
  O123     1.0000 0.39220  0.52970  0.13730  Biso   1.000  O
  O124     1.0000 0.85780  0.72030  0.13730  Biso   1.000  O
  O125     1.0000 0.39220  0.22030  0.61270  Biso   1.000  O
  O126     1.0000 0.85780  0.02970  0.61270  Biso   1.000  O
  O127     1.0000 0.39220  0.02970  0.63730  Biso   1.000  O
  O128     1.0000 0.85780  0.22030  0.63730  Biso   1.000  O
