data_image0
_cell_length_a       21.091
_cell_length_b       8.2252
_cell_length_c       10.579
_cell_angle_alpha    90
_cell_angle_beta     120.686
_cell_angle_gamma    90

_symmetry_space_group_name_H-M    "P 1"
_symmetry_int_tables_number       1

loop_
  _symmetry_equiv_pos_as_xyz
  'x, y, z'

loop_
  _atom_site_label
  _atom_site_occupancy
  _atom_site_fract_x
  _atom_site_fract_y
  _atom_site_fract_z
  _atom_site_thermal_displace_type
  _atom_site_B_iso_or_equiv
  _atom_site_type_symbol
  Cu1      1.0000 0.50000  0.29578  0.75000  Biso   1.000  Cu
  Cu2      1.0000 0.00000  0.79578  0.75000  Biso   1.000  Cu
  Cu3      1.0000 0.50000  0.70422  0.25000  Biso   1.000  Cu
  Cu4      1.0000 0.00000  0.20422  0.25000  Biso   1.000  Cu
  O1       1.0000 0.50000  0.58170  0.75000  Biso   1.000  O
  O2       1.0000 0.00000  0.08170  0.75000  Biso   1.000  O
  O3       1.0000 0.50000  0.41830  0.25000  Biso   1.000  O
  O4       1.0000 0.00000  0.91830  0.25000  Biso   1.000  O
  O5       1.0000 0.50000  0.01110  0.75000  Biso   1.000  O
  O6       1.0000 0.00000  0.51110  0.75000  Biso   1.000  O
  O7       1.0000 0.50000  0.98890  0.25000  Biso   1.000  O
  O8       1.0000 0.00000  0.48890  0.25000  Biso   1.000  O
  O9       1.0000 0.55746  0.30670  0.97161  Biso   1.000  O
  O10      1.0000 0.44254  0.30670  0.52839  Biso   1.000  O
  O11      1.0000 0.05746  0.80670  0.97161  Biso   1.000  O
  O12      1.0000 0.94254  0.80670  0.52839  Biso   1.000  O
  O13      1.0000 0.44254  0.69330  0.02839  Biso   1.000  O
  O14      1.0000 0.55746  0.69330  0.47161  Biso   1.000  O
  O15      1.0000 0.94254  0.19330  0.02839  Biso   1.000  O
  O16      1.0000 0.05746  0.19330  0.47161  Biso   1.000  O
  O17      1.0000 0.58218  0.20290  0.18530  Biso   1.000  O
  O18      1.0000 0.41782  0.20290  0.31470  Biso   1.000  O
  O19      1.0000 0.08218  0.70290  0.18530  Biso   1.000  O
  O20      1.0000 0.91782  0.70290  0.31470  Biso   1.000  O
  O21      1.0000 0.41782  0.79710  0.81470  Biso   1.000  O
  O22      1.0000 0.58218  0.79710  0.68530  Biso   1.000  O
  O23      1.0000 0.91782  0.29710  0.81470  Biso   1.000  O
  O24      1.0000 0.08218  0.29710  0.68530  Biso   1.000  O
  N1       1.0000 0.32955  0.33580  0.82930  Biso   1.000  N
  N2       1.0000 0.67045  0.33580  0.67070  Biso   1.000  N
  N3       1.0000 0.82955  0.83580  0.82930  Biso   1.000  N
  N4       1.0000 0.17045  0.83580  0.67070  Biso   1.000  N
  N5       1.0000 0.67045  0.66420  0.17070  Biso   1.000  N
  N6       1.0000 0.32955  0.66420  0.32930  Biso   1.000  N
  N7       1.0000 0.17045  0.16420  0.17070  Biso   1.000  N
  N8       1.0000 0.82955  0.16420  0.32930  Biso   1.000  N
  N9       1.0000 0.28990  0.27150  0.69280  Biso   1.000  N
  N10      1.0000 0.71010  0.27150  0.80720  Biso   1.000  N
  N11      1.0000 0.78990  0.77150  0.69280  Biso   1.000  N
  N12      1.0000 0.21010  0.77150  0.80720  Biso   1.000  N
  N13      1.0000 0.71010  0.72850  0.30720  Biso   1.000  N
  N14      1.0000 0.28990  0.72850  0.19280  Biso   1.000  N
  N15      1.0000 0.21010  0.22850  0.30720  Biso   1.000  N
  N16      1.0000 0.78990  0.22850  0.19280  Biso   1.000  N
  N17      1.0000 0.40798  0.29850  0.75800  Biso   1.000  N
  N18      1.0000 0.59202  0.29850  0.74200  Biso   1.000  N
  N19      1.0000 0.90798  0.79850  0.75800  Biso   1.000  N
  N20      1.0000 0.09202  0.79850  0.74200  Biso   1.000  N
  N21      1.0000 0.59202  0.70150  0.24200  Biso   1.000  N
  N22      1.0000 0.40798  0.70150  0.25800  Biso   1.000  N
  N23      1.0000 0.09202  0.20150  0.24200  Biso   1.000  N
  N24      1.0000 0.90798  0.20150  0.25800  Biso   1.000  N
  C1       1.0000 0.26860  0.22700  0.95720  Biso   1.000  C
  C2       1.0000 0.73140  0.22700  0.54280  Biso   1.000  C
  C3       1.0000 0.76860  0.72700  0.95720  Biso   1.000  C
  C4       1.0000 0.23140  0.72700  0.54280  Biso   1.000  C
  C5       1.0000 0.73140  0.77300  0.04280  Biso   1.000  C
  C6       1.0000 0.26860  0.77300  0.45720  Biso   1.000  C
  C7       1.0000 0.23140  0.27300  0.04280  Biso   1.000  C
  C8       1.0000 0.76860  0.27300  0.45720  Biso   1.000  C
  H1       1.0000 0.31030  0.15660  0.01680  Biso   1.000  H
  H2       1.0000 0.68970  0.15660  0.48320  Biso   1.000  H
  H3       1.0000 0.81030  0.65660  0.01680  Biso   1.000  H
  H4       1.0000 0.18970  0.65660  0.48320  Biso   1.000  H
  H5       1.0000 0.68970  0.84340  0.98320  Biso   1.000  H
  H6       1.0000 0.31030  0.84340  0.51680  Biso   1.000  H
  H7       1.0000 0.18970  0.34340  0.98320  Biso   1.000  H
  H8       1.0000 0.81030  0.34340  0.51680  Biso   1.000  H
  H9       1.0000 0.23410  0.16760  0.86940  Biso   1.000  H
  H10      1.0000 0.76590  0.16760  0.63060  Biso   1.000  H
  H11      1.0000 0.73410  0.66760  0.86940  Biso   1.000  H
  H12      1.0000 0.26590  0.66760  0.63060  Biso   1.000  H
  H13      1.0000 0.76590  0.83240  0.13060  Biso   1.000  H
  H14      1.0000 0.23410  0.83240  0.36940  Biso   1.000  H
  H15      1.0000 0.26590  0.33240  0.13060  Biso   1.000  H
  H16      1.0000 0.73410  0.33240  0.36940  Biso   1.000  H
  C9       1.0000 0.29478  0.37690  0.91430  Biso   1.000  C
  C10      1.0000 0.70522  0.37690  0.58570  Biso   1.000  C
  C11      1.0000 0.79478  0.87690  0.91430  Biso   1.000  C
  C12      1.0000 0.20522  0.87690  0.58570  Biso   1.000  C
  C13      1.0000 0.70522  0.62310  0.08570  Biso   1.000  C
  C14      1.0000 0.29478  0.62310  0.41430  Biso   1.000  C
  C15      1.0000 0.20522  0.12310  0.08570  Biso   1.000  C
  C16      1.0000 0.79478  0.12310  0.41430  Biso   1.000  C
  H17      1.0000 0.25310  0.44820  0.85650  Biso   1.000  H
  H18      1.0000 0.74690  0.44820  0.64350  Biso   1.000  H
  H19      1.0000 0.75310  0.94820  0.85650  Biso   1.000  H
  H20      1.0000 0.24690  0.94820  0.64350  Biso   1.000  H
  H21      1.0000 0.74690  0.55180  0.14350  Biso   1.000  H
  H22      1.0000 0.25310  0.55180  0.35650  Biso   1.000  H
  H23      1.0000 0.24690  0.05180  0.14350  Biso   1.000  H
  H24      1.0000 0.75310  0.05180  0.35650  Biso   1.000  H
  H25      1.0000 0.32980  0.43510  0.00240  Biso   1.000  H
  H26      1.0000 0.67020  0.43510  0.49760  Biso   1.000  H
  H27      1.0000 0.82980  0.93510  0.00240  Biso   1.000  H
  H28      1.0000 0.17020  0.93510  0.49760  Biso   1.000  H
  H29      1.0000 0.67020  0.56490  0.99760  Biso   1.000  H
  H30      1.0000 0.32980  0.56490  0.50240  Biso   1.000  H
  H31      1.0000 0.17020  0.06490  0.99760  Biso   1.000  H
  H32      1.0000 0.82980  0.06490  0.50240  Biso   1.000  H
  C17      1.0000 0.33945  0.25110  0.65520  Biso   1.000  C
  C18      1.0000 0.66055  0.25110  0.84480  Biso   1.000  C
  C19      1.0000 0.83945  0.75110  0.65520  Biso   1.000  C
  C20      1.0000 0.16055  0.75110  0.84480  Biso   1.000  C
  C21      1.0000 0.66055  0.74890  0.34480  Biso   1.000  C
  C22      1.0000 0.33945  0.74890  0.15520  Biso   1.000  C
  C23      1.0000 0.16055  0.24890  0.34480  Biso   1.000  C
  C24      1.0000 0.83945  0.24890  0.15520  Biso   1.000  C
  H33      1.0000 0.32840  0.20760  0.56510  Biso   1.000  H
  H34      1.0000 0.67160  0.20760  0.93490  Biso   1.000  H
  H35      1.0000 0.82840  0.70760  0.56510  Biso   1.000  H
  H36      1.0000 0.17160  0.70760  0.93490  Biso   1.000  H
  H37      1.0000 0.67160  0.79240  0.43490  Biso   1.000  H
  H38      1.0000 0.32840  0.79240  0.06510  Biso   1.000  H
  H39      1.0000 0.17160  0.29240  0.43490  Biso   1.000  H
  H40      1.0000 0.82840  0.29240  0.06510  Biso   1.000  H
  C25      1.0000 0.39870  0.35200  0.86570  Biso   1.000  C
  C26      1.0000 0.60130  0.35200  0.63430  Biso   1.000  C
  C27      1.0000 0.89870  0.85200  0.86570  Biso   1.000  C
  C28      1.0000 0.10130  0.85200  0.63430  Biso   1.000  C
  C29      1.0000 0.60130  0.64800  0.13430  Biso   1.000  C
  C30      1.0000 0.39870  0.64800  0.36570  Biso   1.000  C
  C31      1.0000 0.10130  0.14800  0.13430  Biso   1.000  C
  C32      1.0000 0.89870  0.14800  0.36570  Biso   1.000  C
  H41      1.0000 0.43580  0.39470  0.95420  Biso   1.000  H
  H42      1.0000 0.56420  0.39470  0.54580  Biso   1.000  H
  H43      1.0000 0.93580  0.89470  0.95420  Biso   1.000  H
  H44      1.0000 0.06420  0.89470  0.54580  Biso   1.000  H
  H45      1.0000 0.56420  0.60530  0.04580  Biso   1.000  H
  H46      1.0000 0.43580  0.60530  0.45420  Biso   1.000  H
  H47      1.0000 0.06420  0.10530  0.04580  Biso   1.000  H
  H48      1.0000 0.93580  0.10530  0.45420  Biso   1.000  H
  C33      1.0000 0.57363  0.19540  0.06130  Biso   1.000  C
  C34      1.0000 0.42637  0.19540  0.43870  Biso   1.000  C
  C35      1.0000 0.07363  0.69540  0.06130  Biso   1.000  C
  C36      1.0000 0.92637  0.69540  0.43870  Biso   1.000  C
  C37      1.0000 0.42637  0.80460  0.93870  Biso   1.000  C
  C38      1.0000 0.57363  0.80460  0.56130  Biso   1.000  C
  C39      1.0000 0.92637  0.30460  0.93870  Biso   1.000  C
  C40      1.0000 0.07363  0.30460  0.56130  Biso   1.000  C
  H49      1.0000 0.58020  0.09340  0.03160  Biso   1.000  H
  H50      1.0000 0.41980  0.09340  0.46840  Biso   1.000  H
  H51      1.0000 0.08020  0.59340  0.03160  Biso   1.000  H
  H52      1.0000 0.91980  0.59340  0.46840  Biso   1.000  H
  H53      1.0000 0.41980  0.90660  0.96840  Biso   1.000  H
  H54      1.0000 0.58020  0.90660  0.53160  Biso   1.000  H
  H55      1.0000 0.91980  0.40660  0.96840  Biso   1.000  H
  H56      1.0000 0.08020  0.40660  0.53160  Biso   1.000  H
  H57      1.0000 0.52860  0.63800  0.73300  Biso   1.000  H
  H58      1.0000 0.47140  0.63800  0.76700  Biso   1.000  H
  H59      1.0000 0.02860  0.13800  0.73300  Biso   1.000  H
  H60      1.0000 0.97140  0.13800  0.76700  Biso   1.000  H
  H61      1.0000 0.47140  0.36200  0.26700  Biso   1.000  H
  H62      1.0000 0.52860  0.36200  0.23300  Biso   1.000  H
  H63      1.0000 0.97140  0.86200  0.26700  Biso   1.000  H
  H64      1.0000 0.02860  0.86200  0.23300  Biso   1.000  H
  H65      1.0000 0.52920  0.96100  0.74000  Biso   1.000  H
  H66      1.0000 0.47080  0.96100  0.76000  Biso   1.000  H
  H67      1.0000 0.02920  0.46100  0.74000  Biso   1.000  H
  H68      1.0000 0.97080  0.46100  0.76000  Biso   1.000  H
  H69      1.0000 0.47080  0.03900  0.26000  Biso   1.000  H
  H70      1.0000 0.52920  0.03900  0.24000  Biso   1.000  H
  H71      1.0000 0.97080  0.53900  0.26000  Biso   1.000  H
  H72      1.0000 0.02920  0.53900  0.24000  Biso   1.000  H
