data_image0
_cell_length_a       5.068
_cell_length_b       11.0147
_cell_length_c       20.8655
_cell_angle_alpha    81.306
_cell_angle_beta     89.114
_cell_angle_gamma    80.325

_symmetry_space_group_name_H-M    "P 1"
_symmetry_int_tables_number       1

loop_
  _symmetry_equiv_pos_as_xyz
  'x, y, z'

loop_
  _atom_site_label
  _atom_site_occupancy
  _atom_site_fract_x
  _atom_site_fract_y
  _atom_site_fract_z
  _atom_site_thermal_displace_type
  _atom_site_B_iso_or_equiv
  _atom_site_type_symbol
  Cu1      1.0000 0.20478  0.01674  0.25440  Biso   1.000  Cu
  Cu2      1.0000 0.79522  0.98326  0.74560  Biso   1.000  Cu
  S1       1.0000 0.28094  0.01598  0.40772  Biso   1.000  S
  S2       1.0000 0.71906  0.98402  0.59228  Biso   1.000  S
  S3       1.0000 0.24499  0.40217  0.08848  Biso   1.000  S
  S4       1.0000 0.75501  0.59783  0.91152  Biso   1.000  S
  N1       1.0000 0.67700  0.02200  0.18822  Biso   1.000  N
  N2       1.0000 0.32300  0.97800  0.81178  Biso   1.000  N
  N3       1.0000 0.80650  0.62910  0.29123  Biso   1.000  N
  N4       1.0000 0.19350  0.37090  0.70877  Biso   1.000  N
  O1       1.0000 0.13150  0.26400  0.44840  Biso   1.000  O
  O2       1.0000 0.86850  0.73600  0.55160  Biso   1.000  O
  O3       1.0000 0.32540  0.75710  0.47624  Biso   1.000  O
  O4       1.0000 0.67460  0.24290  0.52376  Biso   1.000  O
  O5       1.0000 0.11330  0.01380  0.34805  Biso   1.000  O
  O6       1.0000 0.88670  0.98620  0.65195  Biso   1.000  O
  O7       1.0000 0.33150  0.25100  0.98052  Biso   1.000  O
  O8       1.0000 0.66850  0.74900  0.01948  Biso   1.000  O
  O9       1.0000 0.75970  0.32600  0.91210  Biso   1.000  O
  O10      1.0000 0.24030  0.67400  0.08790  Biso   1.000  O
  O11      1.0000 0.39650  0.32720  0.14781  Biso   1.000  O
  O12      1.0000 0.60350  0.67280  0.85219  Biso   1.000  O
  O13      1.0000 0.15450  0.19470  0.24043  Biso   1.000  O
  O14      1.0000 0.84550  0.80530  0.75957  Biso   1.000  O
  H1       1.0000 0.02800  0.23000  0.24500  Biso   1.000  H
  H2       1.0000 0.97200  0.77000  0.75500  Biso   1.000  H
  H3       1.0000 0.25100  0.23700  0.20300  Biso   1.000  H
  H4       1.0000 0.74900  0.76300  0.79700  Biso   1.000  H
  O15      1.0000 0.23520  0.83950  0.25932  Biso   1.000  O
  O16      1.0000 0.76480  0.16050  0.74068  Biso   1.000  O
  H5       1.0000 0.36500  0.79900  0.26500  Biso   1.000  H
  H6       1.0000 0.63500  0.20100  0.73500  Biso   1.000  H
  H7       1.0000 0.11800  0.80200  0.27200  Biso   1.000  H
  H8       1.0000 0.88200  0.19800  0.72800  Biso   1.000  H
  O17      1.0000 0.69700  0.33530  0.26034  Biso   1.000  O
  O18      1.0000 0.30300  0.66470  0.73966  Biso   1.000  O
  H9       1.0000 0.60800  0.34400  0.23000  Biso   1.000  H
  H10      1.0000 0.39200  0.65600  0.77000  Biso   1.000  H
  H11      1.0000 0.69200  0.39900  0.26900  Biso   1.000  H
  H12      1.0000 0.30800  0.60100  0.73100  Biso   1.000  H
  O19      1.0000 0.43440  0.01550  0.17526  Biso   1.000  O
  O20      1.0000 0.56560  0.98450  0.82474  Biso   1.000  O
  O21      1.0000 0.73690  0.02570  0.24625  Biso   1.000  O
  O22      1.0000 0.26310  0.97430  0.75375  Biso   1.000  O
  O23      1.0000 0.84180  0.02490  0.14484  Biso   1.000  O
  O24      1.0000 0.15820  0.97510  0.85516  Biso   1.000  O
  O25      1.0000 0.01190  0.56300  0.30980  Biso   1.000  O
  O26      1.0000 0.98810  0.43700  0.69020  Biso   1.000  O
  O27      1.0000 0.60730  0.58430  0.28000  Biso   1.000  O
  O28      1.0000 0.39270  0.41570  0.72000  Biso   1.000  O
  O29      1.0000 0.78340  0.74510  0.28179  Biso   1.000  O
  O30      1.0000 0.21660  0.25490  0.71821  Biso   1.000  O
  C1       1.0000 0.92010  0.36350  0.44990  Biso   1.000  C
  C2       1.0000 0.07990  0.63650  0.55010  Biso   1.000  C
  H13      1.0000 0.78490  0.36280  0.41630  Biso   1.000  H
  H14      1.0000 0.21510  0.63720  0.58370  Biso   1.000  H
  H15      1.0000 0.98790  0.44360  0.44100  Biso   1.000  H
  H16      1.0000 0.01210  0.55640  0.55900  Biso   1.000  H
  C3       1.0000 0.25830  0.26540  0.38759  Biso   1.000  C
  C4       1.0000 0.74170  0.73460  0.61241  Biso   1.000  C
  H17      1.0000 0.35240  0.33790  0.37860  Biso   1.000  H
  H18      1.0000 0.64760  0.66210  0.62140  Biso   1.000  H
  H19      1.0000 0.12370  0.27190  0.35280  Biso   1.000  H
  H20      1.0000 0.87630  0.72810  0.64720  Biso   1.000  H
  C5       1.0000 0.45450  0.14650  0.38975  Biso   1.000  C
  C6       1.0000 0.54550  0.85350  0.61025  Biso   1.000  C
  H21      1.0000 0.59260  0.14200  0.42350  Biso   1.000  H
  H22      1.0000 0.40740  0.85800  0.57650  Biso   1.000  H
  H23      1.0000 0.54480  0.14440  0.34740  Biso   1.000  H
  H24      1.0000 0.45520  0.85560  0.65260  Biso   1.000  H
  C7       1.0000 0.56230  0.89300  0.40842  Biso   1.000  C
  C8       1.0000 0.43770  0.10700  0.59158  Biso   1.000  C
  H25      1.0000 0.66020  0.90430  0.36710  Biso   1.000  H
  H26      1.0000 0.33980  0.09570  0.63290  Biso   1.000  H
  H27      1.0000 0.68640  0.89520  0.44430  Biso   1.000  H
  H28      1.0000 0.31360  0.10480  0.55570  Biso   1.000  H
  C9       1.0000 0.46620  0.76980  0.41722  Biso   1.000  C
  C10      1.0000 0.53380  0.23020  0.58278  Biso   1.000  C
  H29      1.0000 0.34720  0.76620  0.38060  Biso   1.000  H
  H30      1.0000 0.65280  0.23380  0.61940  Biso   1.000  H
  H31      1.0000 0.62050  0.70120  0.41830  Biso   1.000  H
  H32      1.0000 0.37950  0.29880  0.58170  Biso   1.000  H
  C11      1.0000 0.79620  0.35030  0.51540  Biso   1.000  C
  C12      1.0000 0.20380  0.64970  0.48460  Biso   1.000  C
  H33      1.0000 0.66060  0.42480  0.51920  Biso   1.000  H
  H34      1.0000 0.33940  0.57520  0.48080  Biso   1.000  H
  H35      1.0000 0.93500  0.34280  0.54930  Biso   1.000  H
  H36      1.0000 0.06500  0.65720  0.45070  Biso   1.000  H
  C13      1.0000 0.99000  0.51290  0.11839  Biso   1.000  C
  C14      1.0000 0.01000  0.48710  0.88161  Biso   1.000  C
  H37      1.0000 0.85840  0.55060  0.08340  Biso   1.000  H
  H38      1.0000 0.14160  0.44940  0.91660  Biso   1.000  H
  H39      1.0000 0.89450  0.47020  0.15450  Biso   1.000  H
  H40      1.0000 0.10550  0.52980  0.84550  Biso   1.000  H
  C15      1.0000 0.03370  0.30140  0.06330  Biso   1.000  C
  C16      1.0000 0.96630  0.69860  0.93670  Biso   1.000  C
  H41      1.0000 0.93320  0.26700  0.10090  Biso   1.000  H
  H42      1.0000 0.06680  0.73300  0.89910  Biso   1.000  H
  H43      1.0000 0.90300  0.34920  0.03020  Biso   1.000  H
  H44      1.0000 0.09700  0.65080  0.96980  Biso   1.000  H
  C17      1.0000 0.20470  0.19730  0.03566  Biso   1.000  C
  C18      1.0000 0.79530  0.80270  0.96434  Biso   1.000  C
  H45      1.0000 0.34000  0.15100  0.06810  Biso   1.000  H
  H46      1.0000 0.66000  0.84900  0.93190  Biso   1.000  H
  H47      1.0000 0.09290  0.13870  0.02350  Biso   1.000  H
  H48      1.0000 0.90710  0.86130  0.97650  Biso   1.000  H
  C19      1.0000 0.52130  0.16430  0.95418  Biso   1.000  C
  C20      1.0000 0.47870  0.83570  0.04582  Biso   1.000  C
  H49      1.0000 0.43430  0.09650  0.94250  Biso   1.000  H
  H50      1.0000 0.56570  0.90350  0.05750  Biso   1.000  H
  H51      1.0000 0.66350  0.12710  0.98670  Biso   1.000  H
  H52      1.0000 0.33650  0.87290  0.01330  Biso   1.000  H
  C21      1.0000 0.64150  0.22770  0.89520  Biso   1.000  C
  C22      1.0000 0.35850  0.77230  0.10480  Biso   1.000  C
  H53      1.0000 0.77870  0.16720  0.87720  Biso   1.000  H
  H54      1.0000 0.22130  0.83280  0.12280  Biso   1.000  H
  H55      1.0000 0.50100  0.26090  0.86170  Biso   1.000  H
  H56      1.0000 0.49900  0.73910  0.13830  Biso   1.000  H
  C23      1.0000 0.11370  0.61280  0.14170  Biso   1.000  C
  C24      1.0000 0.88630  0.38720  0.85830  Biso   1.000  C
  H57      1.0000 0.24670  0.57580  0.17650  Biso   1.000  H
  H58      1.0000 0.75330  0.42420  0.82350  Biso   1.000  H
  H59      1.0000 0.97430  0.67290  0.15930  Biso   1.000  H
  H60      1.0000 0.02570  0.32710  0.84070  Biso   1.000  H
