data_image0
_cell_length_a       10.399
_cell_length_b       10.583
_cell_length_c       23.268
_cell_angle_alpha    90
_cell_angle_beta     101.25
_cell_angle_gamma    90

_symmetry_space_group_name_H-M    "P 1"
_symmetry_int_tables_number       1

loop_
  _symmetry_equiv_pos_as_xyz
  'x, y, z'

loop_
  _atom_site_label
  _atom_site_occupancy
  _atom_site_fract_x
  _atom_site_fract_y
  _atom_site_fract_z
  _atom_site_thermal_displace_type
  _atom_site_B_iso_or_equiv
  _atom_site_type_symbol
  Cu1      1.0000 0.43931  0.78172  0.76117  Biso   1.000  Cu
  Cu2      1.0000 0.56069  0.28172  0.73883  Biso   1.000  Cu
  Cu3      1.0000 0.56069  0.21828  0.23883  Biso   1.000  Cu
  Cu4      1.0000 0.43931  0.71828  0.26117  Biso   1.000  Cu
  C1       1.0000 0.40420  0.93640  0.85340  Biso   1.000  C
  C2       1.0000 0.59580  0.43640  0.64660  Biso   1.000  C
  C3       1.0000 0.59580  0.06360  0.14660  Biso   1.000  C
  C4       1.0000 0.40420  0.56360  0.35340  Biso   1.000  C
  C5       1.0000 0.44230  0.04410  0.89450  Biso   1.000  C
  C6       1.0000 0.55770  0.54410  0.60550  Biso   1.000  C
  C7       1.0000 0.55770  0.95590  0.10550  Biso   1.000  C
  C8       1.0000 0.44230  0.45590  0.39450  Biso   1.000  C
  C9       1.0000 0.55970  0.03890  0.93530  Biso   1.000  C
  C10      1.0000 0.44030  0.53890  0.56470  Biso   1.000  C
  C11      1.0000 0.44030  0.96110  0.06470  Biso   1.000  C
  C12      1.0000 0.55970  0.46110  0.43530  Biso   1.000  C
  H1       1.0000 0.61290  0.96800  0.93650  Biso   1.000  H
  H2       1.0000 0.38710  0.46800  0.56350  Biso   1.000  H
  H3       1.0000 0.38710  0.03200  0.06350  Biso   1.000  H
  H4       1.0000 0.61290  0.53200  0.43650  Biso   1.000  H
  C13      1.0000 0.59840  0.13610  0.97380  Biso   1.000  C
  C14      1.0000 0.40160  0.63610  0.52620  Biso   1.000  C
  C15      1.0000 0.40160  0.86390  0.02620  Biso   1.000  C
  C16      1.0000 0.59840  0.36390  0.47380  Biso   1.000  C
  H5       1.0000 0.67610  0.13000  0.00140  Biso   1.000  H
  H6       1.0000 0.32390  0.63000  0.49860  Biso   1.000  H
  H7       1.0000 0.32390  0.87000  0.99860  Biso   1.000  H
  H8       1.0000 0.67610  0.37000  0.50140  Biso   1.000  H
  C17      1.0000 0.52190  0.24230  0.97150  Biso   1.000  C
  C18      1.0000 0.47810  0.74230  0.52850  Biso   1.000  C
  C19      1.0000 0.47810  0.75770  0.02850  Biso   1.000  C
  C20      1.0000 0.52190  0.25770  0.47150  Biso   1.000  C
  H9       1.0000 0.54790  0.30850  0.99750  Biso   1.000  H
  H10      1.0000 0.45210  0.80850  0.50250  Biso   1.000  H
  H11      1.0000 0.45210  0.69150  0.00250  Biso   1.000  H
  H12      1.0000 0.54790  0.19150  0.49750  Biso   1.000  H
  C21      1.0000 0.40750  0.25130  0.93100  Biso   1.000  C
  C22      1.0000 0.59250  0.75130  0.56900  Biso   1.000  C
  C23      1.0000 0.59250  0.74870  0.06900  Biso   1.000  C
  C24      1.0000 0.40750  0.24870  0.43100  Biso   1.000  C
  H13      1.0000 0.35780  0.32480  0.92890  Biso   1.000  H
  H14      1.0000 0.64220  0.82480  0.57110  Biso   1.000  H
  H15      1.0000 0.64220  0.67520  0.07110  Biso   1.000  H
  H16      1.0000 0.35780  0.17520  0.42890  Biso   1.000  H
  C25      1.0000 0.36420  0.15160  0.89260  Biso   1.000  C
  C26      1.0000 0.63580  0.65160  0.60740  Biso   1.000  C
  C27      1.0000 0.63580  0.84840  0.10740  Biso   1.000  C
  C28      1.0000 0.36420  0.34840  0.39260  Biso   1.000  C
  C29      1.0000 0.23420  0.15870  0.85180  Biso   1.000  C
  C30      1.0000 0.76580  0.65870  0.64820  Biso   1.000  C
  C31      1.0000 0.76580  0.84130  0.14820  Biso   1.000  C
  C32      1.0000 0.23420  0.34130  0.35180  Biso   1.000  C
  C33      1.0000 0.13770  0.07290  0.86080  Biso   1.000  C
  C34      1.0000 0.86230  0.57290  0.63920  Biso   1.000  C
  C35      1.0000 0.86230  0.92710  0.13920  Biso   1.000  C
  C36      1.0000 0.13770  0.42710  0.36080  Biso   1.000  C
  H17      1.0000 0.15650  0.01400  0.89090  Biso   1.000  H
  H18      1.0000 0.84350  0.51400  0.60910  Biso   1.000  H
  H19      1.0000 0.84350  0.98600  0.10910  Biso   1.000  H
  H20      1.0000 0.15650  0.48600  0.39090  Biso   1.000  H
  C37      1.0000 0.01560  0.07500  0.82540  Biso   1.000  C
  C38      1.0000 0.98440  0.57500  0.67460  Biso   1.000  C
  C39      1.0000 0.98440  0.92500  0.17460  Biso   1.000  C
  C40      1.0000 0.01560  0.42500  0.32540  Biso   1.000  C
  H21      1.0000 0.95300  0.01680  0.83180  Biso   1.000  H
  H22      1.0000 0.04700  0.51680  0.66820  Biso   1.000  H
  H23      1.0000 0.04700  0.98320  0.16820  Biso   1.000  H
  H24      1.0000 0.95300  0.48320  0.33180  Biso   1.000  H
  C41      1.0000 0.98440  0.15980  0.78160  Biso   1.000  C
  C42      1.0000 0.01560  0.65980  0.71840  Biso   1.000  C
  C43      1.0000 0.01560  0.84020  0.21840  Biso   1.000  C
  C44      1.0000 0.98440  0.34020  0.28160  Biso   1.000  C
  H25      1.0000 0.90140  0.15940  0.75790  Biso   1.000  H
  H26      1.0000 0.09860  0.65940  0.74210  Biso   1.000  H
  H27      1.0000 0.09860  0.84060  0.24210  Biso   1.000  H
  H28      1.0000 0.90140  0.34060  0.25790  Biso   1.000  H
  C45      1.0000 0.07720  0.24750  0.77240  Biso   1.000  C
  C46      1.0000 0.92280  0.74750  0.72760  Biso   1.000  C
  C47      1.0000 0.92280  0.75250  0.22760  Biso   1.000  C
  C48      1.0000 0.07720  0.25250  0.27240  Biso   1.000  C
  H29      1.0000 0.05540  0.30730  0.74280  Biso   1.000  H
  H30      1.0000 0.94460  0.80730  0.75720  Biso   1.000  H
  H31      1.0000 0.94460  0.69270  0.25720  Biso   1.000  H
  H32      1.0000 0.05540  0.19270  0.24280  Biso   1.000  H
  C49      1.0000 0.20410  0.24700  0.80730  Biso   1.000  C
  C50      1.0000 0.79590  0.74700  0.69270  Biso   1.000  C
  C51      1.0000 0.79590  0.75300  0.19270  Biso   1.000  C
  C52      1.0000 0.20410  0.25300  0.30730  Biso   1.000  C
  C53      1.0000 0.30050  0.34030  0.79270  Biso   1.000  C
  C54      1.0000 0.69950  0.84030  0.70730  Biso   1.000  C
  C55      1.0000 0.69950  0.65970  0.20730  Biso   1.000  C
  C56      1.0000 0.30050  0.15970  0.29270  Biso   1.000  C
  C57      1.0000 0.20340  0.92960  0.70630  Biso   1.000  C
  C58      1.0000 0.79660  0.42960  0.79370  Biso   1.000  C
  C59      1.0000 0.79660  0.07040  0.29370  Biso   1.000  C
  C60      1.0000 0.20340  0.57040  0.20630  Biso   1.000  C
  H33      1.0000 0.21430  0.97060  0.74230  Biso   1.000  H
  H34      1.0000 0.78570  0.47060  0.75770  Biso   1.000  H
  H35      1.0000 0.78570  0.02940  0.25770  Biso   1.000  H
  H36      1.0000 0.21430  0.52940  0.24230  Biso   1.000  H
  C61      1.0000 0.09450  0.95690  0.66440  Biso   1.000  C
  C62      1.0000 0.90550  0.45690  0.83560  Biso   1.000  C
  C63      1.0000 0.90550  0.04310  0.33560  Biso   1.000  C
  C64      1.0000 0.09450  0.54310  0.16440  Biso   1.000  C
  H37      1.0000 0.03290  0.01490  0.67220  Biso   1.000  H
  H38      1.0000 0.96710  0.51490  0.82780  Biso   1.000  H
  H39      1.0000 0.96710  0.98510  0.32780  Biso   1.000  H
  H40      1.0000 0.03290  0.48510  0.17220  Biso   1.000  H
  C65      1.0000 0.07720  0.89740  0.61050  Biso   1.000  C
  C66      1.0000 0.92280  0.39740  0.88950  Biso   1.000  C
  C67      1.0000 0.92280  0.10260  0.38950  Biso   1.000  C
  C68      1.0000 0.07720  0.60260  0.11050  Biso   1.000  C
  C69      1.0000 0.17310  0.81630  0.60070  Biso   1.000  C
  C70      1.0000 0.82690  0.31630  0.89930  Biso   1.000  C
  C71      1.0000 0.82690  0.18370  0.39930  Biso   1.000  C
  C72      1.0000 0.17310  0.68370  0.10070  Biso   1.000  C
  H41      1.0000 0.16630  0.77680  0.56450  Biso   1.000  H
  H42      1.0000 0.83370  0.27680  0.93550  Biso   1.000  H
  H43      1.0000 0.83370  0.22320  0.43550  Biso   1.000  H
  H44      1.0000 0.16630  0.72320  0.06450  Biso   1.000  H
  C73      1.0000 0.27980  0.79380  0.64470  Biso   1.000  C
  C74      1.0000 0.72020  0.29380  0.85530  Biso   1.000  C
  C75      1.0000 0.72020  0.20620  0.35530  Biso   1.000  C
  C76      1.0000 0.27980  0.70620  0.14470  Biso   1.000  C
  H45      1.0000 0.34470  0.73920  0.63730  Biso   1.000  H
  H46      1.0000 0.65530  0.23920  0.86270  Biso   1.000  H
  H47      1.0000 0.65530  0.26080  0.36270  Biso   1.000  H
  H48      1.0000 0.34470  0.76080  0.13730  Biso   1.000  H
  C77      1.0000 0.96020  0.91920  0.56460  Biso   1.000  C
  C78      1.0000 0.03980  0.41920  0.93540  Biso   1.000  C
  C79      1.0000 0.03980  0.08080  0.43540  Biso   1.000  C
  C80      1.0000 0.96020  0.58080  0.06460  Biso   1.000  C
  C81      1.0000 0.81070  0.90930  0.48930  Biso   1.000  C
  C82      1.0000 0.18930  0.40930  0.01070  Biso   1.000  C
  C83      1.0000 0.18930  0.09070  0.51070  Biso   1.000  C
  C84      1.0000 0.81070  0.59070  0.98930  Biso   1.000  C
  C85      1.0000 0.72930  0.86810  0.43360  Biso   1.000  C
  C86      1.0000 0.27070  0.36810  0.06640  Biso   1.000  C
  C87      1.0000 0.27070  0.13190  0.56640  Biso   1.000  C
  C88      1.0000 0.72930  0.63190  0.93360  Biso   1.000  C
  C89      1.0000 0.76530  0.76880  0.40140  Biso   1.000  C
  C90      1.0000 0.23470  0.26880  0.09860  Biso   1.000  C
  C91      1.0000 0.23470  0.23120  0.59860  Biso   1.000  C
  C92      1.0000 0.76530  0.73120  0.90140  Biso   1.000  C
  H49      1.0000 0.84420  0.72670  0.41420  Biso   1.000  H
  H50      1.0000 0.15580  0.22670  0.08580  Biso   1.000  H
  H51      1.0000 0.15580  0.27330  0.58580  Biso   1.000  H
  H52      1.0000 0.84420  0.77330  0.91420  Biso   1.000  H
  C93      1.0000 0.68300  0.73320  0.35050  Biso   1.000  C
  C94      1.0000 0.31700  0.23320  0.14950  Biso   1.000  C
  C95      1.0000 0.31700  0.26680  0.64950  Biso   1.000  C
  C96      1.0000 0.68300  0.76680  0.85050  Biso   1.000  C
  H53      1.0000 0.70770  0.66570  0.32940  Biso   1.000  H
  H54      1.0000 0.29230  0.16570  0.17060  Biso   1.000  H
  H55      1.0000 0.29230  0.33430  0.67060  Biso   1.000  H
  H56      1.0000 0.70770  0.83430  0.82940  Biso   1.000  H
  C97      1.0000 0.53740  0.88800  0.35970  Biso   1.000  C
  C98      1.0000 0.46260  0.38800  0.14030  Biso   1.000  C
  C99      1.0000 0.46260  0.11200  0.64030  Biso   1.000  C
  C100     1.0000 0.53740  0.61200  0.85970  Biso   1.000  C
  H57      1.0000 0.45990  0.93100  0.34510  Biso   1.000  H
  H58      1.0000 0.54010  0.43100  0.15490  Biso   1.000  H
  H59      1.0000 0.54010  0.06900  0.65490  Biso   1.000  H
  H60      1.0000 0.45990  0.56900  0.84510  Biso   1.000  H
  C101     1.0000 0.61320  0.92890  0.41170  Biso   1.000  C
  C102     1.0000 0.38680  0.42890  0.08830  Biso   1.000  C
  C103     1.0000 0.38680  0.07110  0.58830  Biso   1.000  C
  C104     1.0000 0.61320  0.57110  0.91170  Biso   1.000  C
  H61      1.0000 0.58610  0.99680  0.43170  Biso   1.000  H
  H62      1.0000 0.41390  0.49680  0.06830  Biso   1.000  H
  H63      1.0000 0.41390  0.00320  0.56830  Biso   1.000  H
  H64      1.0000 0.58610  0.50320  0.93170  Biso   1.000  H
  N1       1.0000 0.29430  0.84660  0.69749  Biso   1.000  N
  N2       1.0000 0.70570  0.34660  0.80251  Biso   1.000  N
  N3       1.0000 0.70570  0.15340  0.30251  Biso   1.000  N
  N4       1.0000 0.29430  0.65340  0.19749  Biso   1.000  N
  N5       1.0000 0.92380  0.85190  0.51620  Biso   1.000  N
  N6       1.0000 0.07620  0.35190  0.98380  Biso   1.000  N
  N7       1.0000 0.07620  0.14810  0.48380  Biso   1.000  N
  N8       1.0000 0.92380  0.64810  0.01620  Biso   1.000  N
  N9       1.0000 0.87230  0.01060  0.56670  Biso   1.000  N
  N10      1.0000 0.12770  0.51060  0.93330  Biso   1.000  N
  N11      1.0000 0.12770  0.98940  0.43330  Biso   1.000  N
  N12      1.0000 0.87230  0.48940  0.06670  Biso   1.000  N
  N13      1.0000 0.77610  0.00550  0.51870  Biso   1.000  N
  N14      1.0000 0.22390  0.50550  0.98130  Biso   1.000  N
  N15      1.0000 0.22390  0.99450  0.48130  Biso   1.000  N
  N16      1.0000 0.77610  0.49450  0.01870  Biso   1.000  N
  N17      1.0000 0.56910  0.79090  0.32970  Biso   1.000  N
  N18      1.0000 0.43090  0.29090  0.17030  Biso   1.000  N
  N19      1.0000 0.43090  0.20910  0.67030  Biso   1.000  N
  N20      1.0000 0.56910  0.70910  0.82970  Biso   1.000  N
  O1       1.0000 0.44560  0.94140  0.80502  Biso   1.000  O
  O2       1.0000 0.55440  0.44140  0.69498  Biso   1.000  O
  O3       1.0000 0.55440  0.05860  0.19498  Biso   1.000  O
  O4       1.0000 0.44560  0.55860  0.30502  Biso   1.000  O
  O5       1.0000 0.34290  0.84650  0.86710  Biso   1.000  O
  O6       1.0000 0.65710  0.34650  0.63290  Biso   1.000  O
  O7       1.0000 0.65710  0.15350  0.13290  Biso   1.000  O
  O8       1.0000 0.34290  0.65350  0.36710  Biso   1.000  O
  O9       1.0000 0.41400  0.30310  0.79270  Biso   1.000  O
  O10      1.0000 0.58600  0.80310  0.70730  Biso   1.000  O
  O11      1.0000 0.58600  0.69690  0.20730  Biso   1.000  O
  O12      1.0000 0.41400  0.19690  0.29270  Biso   1.000  O
  O13      1.0000 0.26040  0.45030  0.78000  Biso   1.000  O
  O14      1.0000 0.73960  0.95030  0.72000  Biso   1.000  O
  O15      1.0000 0.73960  0.54970  0.22000  Biso   1.000  O
  O16      1.0000 0.26040  0.04970  0.28000  Biso   1.000  O
  O17      1.0000 0.39220  0.60890  0.73020  Biso   1.000  O
  O18      1.0000 0.60780  0.10890  0.76980  Biso   1.000  O
  O19      1.0000 0.60780  0.39110  0.26980  Biso   1.000  O
  O20      1.0000 0.39220  0.89110  0.23020  Biso   1.000  O
  O21      1.0000 0.04280  0.63210  0.47640  Biso   1.000  O
  O22      1.0000 0.95720  0.13210  0.02360  Biso   1.000  O
  O23      1.0000 0.95720  0.36790  0.52360  Biso   1.000  O
  O24      1.0000 0.04280  0.86790  0.97640  Biso   1.000  O
  O25      1.0000 0.88940  0.24260  0.62160  Biso   1.000  O
  O26      1.0000 0.11060  0.74260  0.87840  Biso   1.000  O
  O27      1.0000 0.11060  0.75740  0.37840  Biso   1.000  O
  O28      1.0000 0.88940  0.25740  0.12160  Biso   1.000  O
  O29      1.0000 0.06050  0.52260  0.50660  Biso   1.000  O
  O30      1.0000 0.93950  0.02260  0.99340  Biso   1.000  O
  O31      1.0000 0.93950  0.47740  0.49340  Biso   1.000  O
  O32      1.0000 0.06050  0.97740  0.00660  Biso   1.000  O
  H65      1.0000 0.87000  0.07800  0.59400  Biso   1.000  H
  H66      1.0000 0.13000  0.57800  0.90600  Biso   1.000  H
  H67      1.0000 0.13000  0.92200  0.40600  Biso   1.000  H
  H68      1.0000 0.87000  0.42200  0.09400  Biso   1.000  H
  H69      1.0000 0.36100  0.56600  0.74600  Biso   1.000  H
  H70      1.0000 0.63900  0.06600  0.75400  Biso   1.000  H
  H71      1.0000 0.63900  0.43400  0.25400  Biso   1.000  H
  H72      1.0000 0.36100  0.93400  0.24600  Biso   1.000  H
  H73      1.0000 0.45400  0.57400  0.72100  Biso   1.000  H
  H74      1.0000 0.54600  0.07400  0.77900  Biso   1.000  H
  H75      1.0000 0.54600  0.42600  0.27900  Biso   1.000  H
  H76      1.0000 0.45400  0.92600  0.22100  Biso   1.000  H
  O33      1.0000 0.82410  0.15120  0.65520  Biso   1.000  O
  O34      1.0000 0.17590  0.65120  0.84480  Biso   1.000  O
  O35      1.0000 0.17590  0.84880  0.34480  Biso   1.000  O
  O36      1.0000 0.82410  0.34880  0.15520  Biso   1.000  O
