data_image0
_cell_length_a       9.0525
_cell_length_b       15.2308
_cell_length_c       15.9726
_cell_angle_alpha    90
_cell_angle_beta     92.487
_cell_angle_gamma    90

_symmetry_space_group_name_H-M    "P 1"
_symmetry_int_tables_number       1

loop_
  _symmetry_equiv_pos_as_xyz
  'x, y, z'

loop_
  _atom_site_label
  _atom_site_occupancy
  _atom_site_fract_x
  _atom_site_fract_y
  _atom_site_fract_z
  _atom_site_thermal_displace_type
  _atom_site_B_iso_or_equiv
  _atom_site_type_symbol
  Cu1      1.0000 0.58829  0.77061  0.71672  Biso   1.000  Cu
  Cu2      1.0000 0.08829  0.72939  0.21672  Biso   1.000  Cu
  Cu3      1.0000 0.41171  0.22939  0.28328  Biso   1.000  Cu
  Cu4      1.0000 0.91171  0.27061  0.78328  Biso   1.000  Cu
  O1       1.0000 0.65320  0.84805  0.62809  Biso   1.000  O
  O2       1.0000 0.15320  0.65195  0.12809  Biso   1.000  O
  O3       1.0000 0.34680  0.15195  0.37191  Biso   1.000  O
  O4       1.0000 0.84680  0.34805  0.87191  Biso   1.000  O
  O5       1.0000 0.76460  0.73983  0.56010  Biso   1.000  O
  O6       1.0000 0.26460  0.76017  0.06010  Biso   1.000  O
  O7       1.0000 0.23540  0.26017  0.43990  Biso   1.000  O
  O8       1.0000 0.73540  0.23983  0.93990  Biso   1.000  O
  O9       1.0000 0.01916  0.80241  0.30709  Biso   1.000  O
  O10      1.0000 0.51916  0.69759  0.80709  Biso   1.000  O
  O11      1.0000 0.98084  0.19759  0.69291  Biso   1.000  O
  O12      1.0000 0.48084  0.30241  0.19291  Biso   1.000  O
  O13      1.0000 0.05480  0.93932  0.26243  Biso   1.000  O
  O14      1.0000 0.55480  0.56068  0.76243  Biso   1.000  O
  O15      1.0000 0.94520  0.06068  0.73757  Biso   1.000  O
  O16      1.0000 0.44520  0.43932  0.23757  Biso   1.000  O
  C1       1.0000 0.73030  0.81827  0.56933  Biso   1.000  C
  C2       1.0000 0.23030  0.68173  0.06933  Biso   1.000  C
  C3       1.0000 0.26970  0.18173  0.43067  Biso   1.000  C
  C4       1.0000 0.76970  0.31827  0.93067  Biso   1.000  C
  C5       1.0000 0.78220  0.88484  0.50777  Biso   1.000  C
  C6       1.0000 0.28220  0.61516  0.00777  Biso   1.000  C
  C7       1.0000 0.21780  0.11516  0.49223  Biso   1.000  C
  C8       1.0000 0.71780  0.38484  0.99223  Biso   1.000  C
  C9       1.0000 0.75230  0.97380  0.51662  Biso   1.000  C
  C10      1.0000 0.25230  0.52620  0.01662  Biso   1.000  C
  C11      1.0000 0.24770  0.02620  0.48338  Biso   1.000  C
  C12      1.0000 0.74770  0.47380  0.98338  Biso   1.000  C
  H1       1.0000 0.69580  0.99350  0.56170  Biso   1.000  H
  H2       1.0000 0.19580  0.50650  0.06170  Biso   1.000  H
  H3       1.0000 0.30420  0.00650  0.43830  Biso   1.000  H
  H4       1.0000 0.80420  0.49350  0.93830  Biso   1.000  H
  C13      1.0000 0.80470  0.03374  0.46000  Biso   1.000  C
  C14      1.0000 0.30470  0.46626  0.96000  Biso   1.000  C
  C15      1.0000 0.19530  0.96626  0.54000  Biso   1.000  C
  C16      1.0000 0.69530  0.53374  0.04000  Biso   1.000  C
  H5       1.0000 0.78400  0.09450  0.46650  Biso   1.000  H
  H6       1.0000 0.28400  0.40550  0.96650  Biso   1.000  H
  H7       1.0000 0.21600  0.90550  0.53350  Biso   1.000  H
  H8       1.0000 0.71600  0.59450  0.03350  Biso   1.000  H
  C17      1.0000 0.88710  0.00597  0.39387  Biso   1.000  C
  C18      1.0000 0.38710  0.49403  0.89387  Biso   1.000  C
  C19      1.0000 0.11290  0.99403  0.60613  Biso   1.000  C
  C20      1.0000 0.61290  0.50597  0.10613  Biso   1.000  C
  H9       1.0000 0.92380  0.04760  0.35570  Biso   1.000  H
  H10      1.0000 0.42380  0.45240  0.85570  Biso   1.000  H
  H11      1.0000 0.07620  0.95240  0.64430  Biso   1.000  H
  H12      1.0000 0.57620  0.54760  0.14430  Biso   1.000  H
  C21      1.0000 0.91610  0.91707  0.38335  Biso   1.000  C
  C22      1.0000 0.41610  0.58293  0.88335  Biso   1.000  C
  C23      1.0000 0.08390  0.08293  0.61665  Biso   1.000  C
  C24      1.0000 0.58390  0.41707  0.11665  Biso   1.000  C
  C25      1.0000 0.86270  0.85770  0.44054  Biso   1.000  C
  C26      1.0000 0.36270  0.64230  0.94054  Biso   1.000  C
  C27      1.0000 0.13730  0.14230  0.55946  Biso   1.000  C
  C28      1.0000 0.63730  0.35770  0.05946  Biso   1.000  C
  H13      1.0000 0.88180  0.79690  0.43350  Biso   1.000  H
  H14      1.0000 0.38180  0.70310  0.93350  Biso   1.000  H
  H15      1.0000 0.11820  0.20310  0.56650  Biso   1.000  H
  H16      1.0000 0.61820  0.29690  0.06650  Biso   1.000  H
  C29      1.0000 0.00380  0.88612  0.31112  Biso   1.000  C
  C30      1.0000 0.50380  0.61388  0.81112  Biso   1.000  C
  C31      1.0000 0.99620  0.11388  0.68888  Biso   1.000  C
  C32      1.0000 0.49620  0.38612  0.18888  Biso   1.000  C
  N1       1.0000 0.50090  0.89029  0.78538  Biso   1.000  N
  N2       1.0000 0.00090  0.60971  0.28538  Biso   1.000  N
  N3       1.0000 0.49910  0.10971  0.21462  Biso   1.000  N
  N4       1.0000 0.99910  0.39029  0.71462  Biso   1.000  N
  C33      1.0000 0.47200  0.88390  0.86651  Biso   1.000  C
  C34      1.0000 0.97200  0.61610  0.36651  Biso   1.000  C
  C35      1.0000 0.52800  0.11610  0.13349  Biso   1.000  C
  C36      1.0000 0.02800  0.38390  0.63349  Biso   1.000  C
  H17      1.0000 0.51470  0.83670  0.89800  Biso   1.000  H
  H18      1.0000 0.01470  0.66330  0.39800  Biso   1.000  H
  H19      1.0000 0.48530  0.16330  0.10200  Biso   1.000  H
  H20      1.0000 0.98530  0.33670  0.60200  Biso   1.000  H
  C37      1.0000 0.38280  0.94270  0.90680  Biso   1.000  C
  C38      1.0000 0.88280  0.55730  0.40680  Biso   1.000  C
  C39      1.0000 0.61720  0.05730  0.09320  Biso   1.000  C
  C40      1.0000 0.11720  0.44270  0.59320  Biso   1.000  C
  H21      1.0000 0.36410  0.93590  0.96450  Biso   1.000  H
  H22      1.0000 0.86410  0.56410  0.46450  Biso   1.000  H
  H23      1.0000 0.63590  0.06410  0.03550  Biso   1.000  H
  H24      1.0000 0.13590  0.43590  0.53550  Biso   1.000  H
  C41      1.0000 0.32160  0.01170  0.86090  Biso   1.000  C
  C42      1.0000 0.82160  0.48830  0.36090  Biso   1.000  C
  C43      1.0000 0.67840  0.98830  0.13910  Biso   1.000  C
  C44      1.0000 0.17840  0.51170  0.63910  Biso   1.000  C
  H25      1.0000 0.25780  0.05250  0.88620  Biso   1.000  H
  H26      1.0000 0.75780  0.44750  0.38620  Biso   1.000  H
  H27      1.0000 0.74220  0.94750  0.11380  Biso   1.000  H
  H28      1.0000 0.24220  0.55250  0.61380  Biso   1.000  H
  C45      1.0000 0.35410  0.02040  0.77890  Biso   1.000  C
  C46      1.0000 0.85410  0.47960  0.27890  Biso   1.000  C
  C47      1.0000 0.64590  0.97960  0.22110  Biso   1.000  C
  C48      1.0000 0.14590  0.52040  0.72110  Biso   1.000  C
  H29      1.0000 0.31550  0.06820  0.74670  Biso   1.000  H
  H30      1.0000 0.81550  0.43180  0.24670  Biso   1.000  H
  H31      1.0000 0.68450  0.93180  0.25330  Biso   1.000  H
  H32      1.0000 0.18450  0.56820  0.75330  Biso   1.000  H
  C49      1.0000 0.44360  0.95898  0.74343  Biso   1.000  C
  C50      1.0000 0.94360  0.54102  0.24343  Biso   1.000  C
  C51      1.0000 0.55640  0.04102  0.25657  Biso   1.000  C
  C52      1.0000 0.05640  0.45898  0.75657  Biso   1.000  C
  H33      1.0000 0.46570  0.96580  0.68620  Biso   1.000  H
  H34      1.0000 0.96570  0.53420  0.18620  Biso   1.000  H
  H35      1.0000 0.53430  0.03420  0.31380  Biso   1.000  H
  H36      1.0000 0.03430  0.46580  0.81380  Biso   1.000  H
  N5       1.0000 0.79090  0.77471  0.77471  Biso   1.000  N
  N6       1.0000 0.29090  0.72529  0.27471  Biso   1.000  N
  N7       1.0000 0.20910  0.22529  0.22529  Biso   1.000  N
  N8       1.0000 0.70910  0.27471  0.72529  Biso   1.000  N
  C53      1.0000 0.85830  0.85257  0.78512  Biso   1.000  C
  C54      1.0000 0.35830  0.64743  0.28512  Biso   1.000  C
  C55      1.0000 0.14170  0.14743  0.21488  Biso   1.000  C
  C56      1.0000 0.64170  0.35257  0.71488  Biso   1.000  C
  H37      1.0000 0.81420  0.90290  0.75930  Biso   1.000  H
  H38      1.0000 0.31420  0.59710  0.25930  Biso   1.000  H
  H39      1.0000 0.18580  0.09710  0.24070  Biso   1.000  H
  H40      1.0000 0.68580  0.40290  0.74070  Biso   1.000  H
  C57      1.0000 0.98960  0.86264  0.83196  Biso   1.000  C
  C58      1.0000 0.48960  0.63736  0.33196  Biso   1.000  C
  C59      1.0000 0.01040  0.13736  0.16804  Biso   1.000  C
  C60      1.0000 0.51040  0.36264  0.66804  Biso   1.000  C
  H41      1.0000 0.03450  0.91880  0.83820  Biso   1.000  H
  H42      1.0000 0.53450  0.58120  0.33820  Biso   1.000  H
  H43      1.0000 0.96550  0.08120  0.16180  Biso   1.000  H
  H44      1.0000 0.46550  0.41880  0.66180  Biso   1.000  H
  C61      1.0000 0.05390  0.78982  0.86932  Biso   1.000  C
  C62      1.0000 0.55390  0.71018  0.36932  Biso   1.000  C
  C63      1.0000 0.94610  0.21018  0.13068  Biso   1.000  C
  C64      1.0000 0.44610  0.28982  0.63068  Biso   1.000  C
  H45      1.0000 0.14310  0.79500  0.90250  Biso   1.000  H
  H46      1.0000 0.64310  0.70500  0.40250  Biso   1.000  H
  H47      1.0000 0.85690  0.20500  0.09750  Biso   1.000  H
  H48      1.0000 0.35690  0.29500  0.59750  Biso   1.000  H
  C65      1.0000 0.98640  0.70877  0.85766  Biso   1.000  C
  C66      1.0000 0.48640  0.79123  0.35766  Biso   1.000  C
  C67      1.0000 0.01360  0.29123  0.14234  Biso   1.000  C
  C68      1.0000 0.51360  0.20877  0.64234  Biso   1.000  C
  H49      1.0000 0.02940  0.65730  0.88200  Biso   1.000  H
  H50      1.0000 0.52940  0.84270  0.38200  Biso   1.000  H
  H51      1.0000 0.97060  0.34270  0.11800  Biso   1.000  H
  H52      1.0000 0.47060  0.15730  0.61800  Biso   1.000  H
  C69      1.0000 0.85570  0.70419  0.81009  Biso   1.000  C
  C70      1.0000 0.35570  0.79581  0.31009  Biso   1.000  C
  C71      1.0000 0.14430  0.29581  0.18991  Biso   1.000  C
  C72      1.0000 0.64430  0.20419  0.68991  Biso   1.000  C
  H53      1.0000 0.80980  0.64850  0.80210  Biso   1.000  H
  H54      1.0000 0.30980  0.85150  0.30210  Biso   1.000  H
  H55      1.0000 0.19020  0.35150  0.19790  Biso   1.000  H
  H56      1.0000 0.69020  0.14850  0.69790  Biso   1.000  H
  N9       1.0000 0.39590  0.74758  0.65035  Biso   1.000  N
  N10      1.0000 0.89590  0.75242  0.15035  Biso   1.000  N
  N11      1.0000 0.60410  0.25242  0.34965  Biso   1.000  N
  N12      1.0000 0.10410  0.24758  0.84965  Biso   1.000  N
  C73      1.0000 0.39090  0.72389  0.57023  Biso   1.000  C
  C74      1.0000 0.89090  0.77611  0.07023  Biso   1.000  C
  C75      1.0000 0.60910  0.27611  0.42977  Biso   1.000  C
  C76      1.0000 0.10910  0.22389  0.92977  Biso   1.000  C
  H57      1.0000 0.48120  0.71560  0.54320  Biso   1.000  H
  H58      1.0000 0.98120  0.78440  0.04320  Biso   1.000  H
  H59      1.0000 0.51880  0.28440  0.45680  Biso   1.000  H
  H60      1.0000 0.01880  0.21560  0.95680  Biso   1.000  H
  C77      1.0000 0.25900  0.71085  0.52453  Biso   1.000  C
  C78      1.0000 0.75900  0.78915  0.02453  Biso   1.000  C
  C79      1.0000 0.74100  0.28915  0.47547  Biso   1.000  C
  C80      1.0000 0.24100  0.21085  0.97547  Biso   1.000  C
  H61      1.0000 0.25930  0.69390  0.46730  Biso   1.000  H
  H62      1.0000 0.75930  0.80610  0.96730  Biso   1.000  H
  H63      1.0000 0.74070  0.30610  0.53270  Biso   1.000  H
  H64      1.0000 0.24070  0.19390  0.03270  Biso   1.000  H
  C81      1.0000 0.12730  0.72276  0.56334  Biso   1.000  C
  C82      1.0000 0.62730  0.77724  0.06334  Biso   1.000  C
  C83      1.0000 0.87270  0.27724  0.43666  Biso   1.000  C
  C84      1.0000 0.37270  0.22276  0.93666  Biso   1.000  C
  H65      1.0000 0.03540  0.71410  0.53340  Biso   1.000  H
  H66      1.0000 0.53540  0.78590  0.03340  Biso   1.000  H
  H67      1.0000 0.96460  0.28590  0.46660  Biso   1.000  H
  H68      1.0000 0.46460  0.21410  0.96660  Biso   1.000  H
  C85      1.0000 0.13170  0.74747  0.64638  Biso   1.000  C
  C86      1.0000 0.63170  0.75253  0.14638  Biso   1.000  C
  C87      1.0000 0.86830  0.25253  0.35362  Biso   1.000  C
  C88      1.0000 0.36830  0.24747  0.85362  Biso   1.000  C
  H69      1.0000 0.04280  0.75660  0.67470  Biso   1.000  H
  H70      1.0000 0.54280  0.74340  0.17470  Biso   1.000  H
  H71      1.0000 0.95720  0.24340  0.32530  Biso   1.000  H
  H72      1.0000 0.45720  0.25660  0.82530  Biso   1.000  H
  C89      1.0000 0.26670  0.75869  0.68764  Biso   1.000  C
  C90      1.0000 0.76670  0.74131  0.18764  Biso   1.000  C
  C91      1.0000 0.73330  0.24131  0.31236  Biso   1.000  C
  C92      1.0000 0.23330  0.25869  0.81236  Biso   1.000  C
  H73      1.0000 0.26890  0.77500  0.74510  Biso   1.000  H
  H74      1.0000 0.76890  0.72500  0.24510  Biso   1.000  H
  H75      1.0000 0.73110  0.22500  0.25490  Biso   1.000  H
  H76      1.0000 0.23110  0.27500  0.75490  Biso   1.000  H
  O17      1.0000 0.69920  0.56814  0.61136  Biso   1.000  O
  O18      1.0000 0.19920  0.93186  0.11136  Biso   1.000  O
  O19      1.0000 0.30080  0.43186  0.38864  Biso   1.000  O
  O20      1.0000 0.80080  0.06814  0.88864  Biso   1.000  O
  H77      1.0000 0.63580  0.56770  0.65600  Biso   1.000  H
  H78      1.0000 0.13580  0.93230  0.15600  Biso   1.000  H
  H79      1.0000 0.36420  0.43230  0.34400  Biso   1.000  H
  H80      1.0000 0.86420  0.06770  0.84400  Biso   1.000  H
  H81      1.0000 0.73860  0.62160  0.60230  Biso   1.000  H
  H82      1.0000 0.23860  0.87840  0.10230  Biso   1.000  H
  H83      1.0000 0.26140  0.37840  0.39770  Biso   1.000  H
  H84      1.0000 0.76140  0.12160  0.89770  Biso   1.000  H
  O21      1.0000 0.45970  0.53270  0.51390  Biso   1.000  O
  O22      1.0000 0.95970  0.96730  0.01390  Biso   1.000  O
  O23      1.0000 0.54030  0.46730  0.48610  Biso   1.000  O
  O24      1.0000 0.04030  0.03270  0.98610  Biso   1.000  O
