data_image0
_cell_length_a       16.3014
_cell_length_b       16.1441
_cell_length_c       9.0093
_cell_angle_alpha    90
_cell_angle_beta     90
_cell_angle_gamma    90

_symmetry_space_group_name_H-M    "P 1"
_symmetry_int_tables_number       1

loop_
  _symmetry_equiv_pos_as_xyz
  'x, y, z'

loop_
  _atom_site_label
  _atom_site_occupancy
  _atom_site_fract_x
  _atom_site_fract_y
  _atom_site_fract_z
  _atom_site_thermal_displace_type
  _atom_site_B_iso_or_equiv
  _atom_site_type_symbol
  Cu1      1.0000 0.22132  0.20963  0.89060  Biso   1.000  Cu
  Cu2      1.0000 0.77868  0.79037  0.39060  Biso   1.000  Cu
  Cu3      1.0000 0.27868  0.70963  0.39060  Biso   1.000  Cu
  Cu4      1.0000 0.72132  0.29037  0.89060  Biso   1.000  Cu
  O1       1.0000 0.14578  0.29562  0.81890  Biso   1.000  O
  O2       1.0000 0.85422  0.70438  0.31890  Biso   1.000  O
  O3       1.0000 0.35422  0.79562  0.31890  Biso   1.000  O
  O4       1.0000 0.64578  0.20438  0.81890  Biso   1.000  O
  O5       1.0000 0.24900  0.36314  0.70900  Biso   1.000  O
  O6       1.0000 0.75100  0.63686  0.20900  Biso   1.000  O
  O7       1.0000 0.25100  0.86314  0.20900  Biso   1.000  O
  O8       1.0000 0.74900  0.13686  0.70900  Biso   1.000  O
  O9       1.0000 0.20451  0.62348  0.46340  Biso   1.000  O
  O10      1.0000 0.79549  0.37652  0.96340  Biso   1.000  O
  O11      1.0000 0.29549  0.12348  0.96340  Biso   1.000  O
  O12      1.0000 0.70451  0.87652  0.46340  Biso   1.000  O
  O13      1.0000 0.08614  0.69219  0.48210  Biso   1.000  O
  O14      1.0000 0.91386  0.30781  0.98210  Biso   1.000  O
  O15      1.0000 0.41386  0.19219  0.98210  Biso   1.000  O
  O16      1.0000 0.58614  0.80781  0.48210  Biso   1.000  O
  C1       1.0000 0.17610  0.35630  0.74600  Biso   1.000  C
  C2       1.0000 0.82390  0.64370  0.24600  Biso   1.000  C
  C3       1.0000 0.32390  0.85630  0.24600  Biso   1.000  C
  C4       1.0000 0.67610  0.14370  0.74600  Biso   1.000  C
  C5       1.0000 0.11720  0.42560  0.70840  Biso   1.000  C
  C6       1.0000 0.88280  0.57440  0.20840  Biso   1.000  C
  C7       1.0000 0.38280  0.92560  0.20840  Biso   1.000  C
  C8       1.0000 0.61720  0.07440  0.70840  Biso   1.000  C
  C9       1.0000 0.03700  0.42600  0.75710  Biso   1.000  C
  C10      1.0000 0.96300  0.57400  0.25710  Biso   1.000  C
  C11      1.0000 0.46300  0.92600  0.25710  Biso   1.000  C
  C12      1.0000 0.53700  0.07400  0.75710  Biso   1.000  C
  H1       1.0000 0.01610  0.38020  0.81140  Biso   1.000  H
  H2       1.0000 0.98390  0.61980  0.31140  Biso   1.000  H
  H3       1.0000 0.48390  0.88020  0.31140  Biso   1.000  H
  H4       1.0000 0.51610  0.11980  0.81140  Biso   1.000  H
  C13      1.0000 0.98680  0.49330  0.72700  Biso   1.000  C
  C14      1.0000 0.01320  0.50670  0.22700  Biso   1.000  C
  C15      1.0000 0.51320  0.99330  0.22700  Biso   1.000  C
  C16      1.0000 0.48680  0.00670  0.72700  Biso   1.000  C
  H5       1.0000 0.93200  0.49400  0.76300  Biso   1.000  H
  H6       1.0000 0.06800  0.50600  0.26300  Biso   1.000  H
  H7       1.0000 0.56800  0.99400  0.26300  Biso   1.000  H
  H8       1.0000 0.43200  0.00600  0.76300  Biso   1.000  H
  C17      1.0000 0.01630  0.56000  0.64380  Biso   1.000  C
  C18      1.0000 0.98370  0.44000  0.14380  Biso   1.000  C
  C19      1.0000 0.48370  0.06000  0.14380  Biso   1.000  C
  C20      1.0000 0.51630  0.94000  0.64380  Biso   1.000  C
  H9       1.0000 0.98120  0.60530  0.62150  Biso   1.000  H
  H10      1.0000 0.01880  0.39470  0.12150  Biso   1.000  H
  H11      1.0000 0.51880  0.10530  0.12150  Biso   1.000  H
  H12      1.0000 0.48120  0.89470  0.62150  Biso   1.000  H
  C21      1.0000 0.09670  0.56000  0.59380  Biso   1.000  C
  C22      1.0000 0.90330  0.44000  0.09380  Biso   1.000  C
  C23      1.0000 0.40330  0.06000  0.09380  Biso   1.000  C
  C24      1.0000 0.59670  0.94000  0.59380  Biso   1.000  C
  C25      1.0000 0.14710  0.49280  0.62700  Biso   1.000  C
  C26      1.0000 0.85290  0.50720  0.12700  Biso   1.000  C
  C27      1.0000 0.35290  0.99280  0.12700  Biso   1.000  C
  C28      1.0000 0.64710  0.00720  0.62700  Biso   1.000  C
  H13      1.0000 0.20240  0.49260  0.59390  Biso   1.000  H
  H14      1.0000 0.79760  0.50740  0.09390  Biso   1.000  H
  H15      1.0000 0.29760  0.99260  0.09390  Biso   1.000  H
  H16      1.0000 0.70240  0.00740  0.59390  Biso   1.000  H
  C29      1.0000 0.13030  0.63160  0.50590  Biso   1.000  C
  C30      1.0000 0.86970  0.36840  0.00590  Biso   1.000  C
  C31      1.0000 0.36970  0.13160  0.00590  Biso   1.000  C
  C32      1.0000 0.63030  0.86840  0.50590  Biso   1.000  C
  N1       1.0000 0.11497  0.13483  0.98360  Biso   1.000  N
  N2       1.0000 0.88503  0.86517  0.48360  Biso   1.000  N
  N3       1.0000 0.38503  0.63483  0.48360  Biso   1.000  N
  N4       1.0000 0.61497  0.36517  0.98360  Biso   1.000  N
  C33      1.0000 0.12260  0.05330  0.01330  Biso   1.000  C
  C34      1.0000 0.87740  0.94670  0.51330  Biso   1.000  C
  C35      1.0000 0.37740  0.55330  0.51330  Biso   1.000  C
  C36      1.0000 0.62260  0.44670  0.01330  Biso   1.000  C
  H17      1.0000 0.16850  0.02440  0.97390  Biso   1.000  H
  H18      1.0000 0.83150  0.97560  0.47390  Biso   1.000  H
  H19      1.0000 0.33150  0.52440  0.47390  Biso   1.000  H
  H20      1.0000 0.66850  0.47560  0.97390  Biso   1.000  H
  C37      1.0000 0.06690  0.01010  0.09830  Biso   1.000  C
  C38      1.0000 0.93310  0.98990  0.59830  Biso   1.000  C
  C39      1.0000 0.43310  0.51010  0.59830  Biso   1.000  C
  C40      1.0000 0.56690  0.48990  0.09830  Biso   1.000  C
  H21      1.0000 0.07480  0.95280  0.11770  Biso   1.000  H
  H22      1.0000 0.92520  0.04720  0.61770  Biso   1.000  H
  H23      1.0000 0.42520  0.45280  0.61770  Biso   1.000  H
  H24      1.0000 0.57480  0.54720  0.11770  Biso   1.000  H
  C41      1.0000 0.00030  0.05060  0.15420  Biso   1.000  C
  C42      1.0000 0.99970  0.94940  0.65420  Biso   1.000  C
  C43      1.0000 0.49970  0.55060  0.65420  Biso   1.000  C
  C44      1.0000 0.50030  0.44940  0.15420  Biso   1.000  C
  H25      1.0000 0.96140  0.02220  0.21390  Biso   1.000  H
  H26      1.0000 0.03860  0.97780  0.71390  Biso   1.000  H
  H27      1.0000 0.53860  0.52220  0.71390  Biso   1.000  H
  H28      1.0000 0.46140  0.47780  0.21390  Biso   1.000  H
  C45      1.0000 0.99060  0.13370  0.12220  Biso   1.000  C
  C46      1.0000 0.00940  0.86630  0.62220  Biso   1.000  C
  C47      1.0000 0.50940  0.63370  0.62220  Biso   1.000  C
  C48      1.0000 0.49060  0.36630  0.12220  Biso   1.000  C
  H29      1.0000 0.94440  0.16350  0.15820  Biso   1.000  H
  H30      1.0000 0.05560  0.83650  0.65820  Biso   1.000  H
  H31      1.0000 0.55560  0.66350  0.65820  Biso   1.000  H
  H32      1.0000 0.44440  0.33650  0.15820  Biso   1.000  H
  C49      1.0000 0.04910  0.17200  0.03720  Biso   1.000  C
  C50      1.0000 0.95090  0.82800  0.53720  Biso   1.000  C
  C51      1.0000 0.45090  0.67200  0.53720  Biso   1.000  C
  C52      1.0000 0.54910  0.32800  0.03720  Biso   1.000  C
  H33      1.0000 0.04190  0.22910  0.01540  Biso   1.000  H
  H34      1.0000 0.95810  0.77090  0.51540  Biso   1.000  H
  H35      1.0000 0.45810  0.72910  0.51540  Biso   1.000  H
  H36      1.0000 0.54190  0.27090  0.01540  Biso   1.000  H
  N5       1.0000 0.24140  0.27670  0.07940  Biso   1.000  N
  N6       1.0000 0.75860  0.72330  0.57940  Biso   1.000  N
  N7       1.0000 0.25860  0.77670  0.57940  Biso   1.000  N
  N8       1.0000 0.74140  0.22330  0.07940  Biso   1.000  N
  C53      1.0000 0.26040  0.35670  0.08040  Biso   1.000  C
  C54      1.0000 0.73960  0.64330  0.58040  Biso   1.000  C
  C55      1.0000 0.23960  0.85670  0.58040  Biso   1.000  C
  C56      1.0000 0.76040  0.14330  0.08040  Biso   1.000  C
  H37      1.0000 0.26480  0.38500  0.98830  Biso   1.000  H
  H38      1.0000 0.73520  0.61500  0.48830  Biso   1.000  H
  H39      1.0000 0.23520  0.88500  0.48830  Biso   1.000  H
  H40      1.0000 0.76480  0.11500  0.98830  Biso   1.000  H
  C57      1.0000 0.27390  0.40020  0.20900  Biso   1.000  C
  C58      1.0000 0.72610  0.59980  0.70900  Biso   1.000  C
  C59      1.0000 0.22610  0.90020  0.70900  Biso   1.000  C
  C60      1.0000 0.77390  0.09980  0.20900  Biso   1.000  C
  H41      1.0000 0.28820  0.45720  0.20430  Biso   1.000  H
  H42      1.0000 0.71180  0.54280  0.70430  Biso   1.000  H
  H43      1.0000 0.21180  0.95720  0.70430  Biso   1.000  H
  H44      1.0000 0.78820  0.04280  0.20430  Biso   1.000  H
  C61      1.0000 0.26710  0.36200  0.34410  Biso   1.000  C
  C62      1.0000 0.73290  0.63800  0.84410  Biso   1.000  C
  C63      1.0000 0.23290  0.86200  0.84410  Biso   1.000  C
  C64      1.0000 0.76710  0.13800  0.34410  Biso   1.000  C
  H45      1.0000 0.27530  0.39140  0.43420  Biso   1.000  H
  H46      1.0000 0.72470  0.60860  0.93420  Biso   1.000  H
  H47      1.0000 0.22470  0.89140  0.93420  Biso   1.000  H
  H48      1.0000 0.77530  0.10860  0.43420  Biso   1.000  H
  C65      1.0000 0.24780  0.27870  0.34360  Biso   1.000  C
  C66      1.0000 0.75220  0.72130  0.84360  Biso   1.000  C
  C67      1.0000 0.25220  0.77870  0.84360  Biso   1.000  C
  C68      1.0000 0.74780  0.22130  0.34360  Biso   1.000  C
  H49      1.0000 0.24240  0.24910  0.43430  Biso   1.000  H
  H50      1.0000 0.75760  0.75090  0.93430  Biso   1.000  H
  H51      1.0000 0.25760  0.74910  0.93430  Biso   1.000  H
  H52      1.0000 0.74240  0.25090  0.43430  Biso   1.000  H
  C69      1.0000 0.23640  0.23930  0.21030  Biso   1.000  C
  C70      1.0000 0.76360  0.76070  0.71030  Biso   1.000  C
  C71      1.0000 0.26360  0.73930  0.71030  Biso   1.000  C
  C72      1.0000 0.73640  0.26070  0.21030  Biso   1.000  C
  H53      1.0000 0.22430  0.18170  0.21170  Biso   1.000  H
  H54      1.0000 0.77570  0.81830  0.71170  Biso   1.000  H
  H55      1.0000 0.27570  0.68170  0.71170  Biso   1.000  H
  H56      1.0000 0.72430  0.31830  0.21170  Biso   1.000  H
  N9       1.0000 0.22250  0.15185  0.68880  Biso   1.000  N
  N10      1.0000 0.77750  0.84815  0.18880  Biso   1.000  N
  N11      1.0000 0.27750  0.65185  0.18880  Biso   1.000  N
  N12      1.0000 0.72250  0.34815  0.68880  Biso   1.000  N
  C73      1.0000 0.29120  0.12260  0.62970  Biso   1.000  C
  C74      1.0000 0.70880  0.87740  0.12970  Biso   1.000  C
  C75      1.0000 0.20880  0.62260  0.12970  Biso   1.000  C
  C76      1.0000 0.79120  0.37740  0.62970  Biso   1.000  C
  H57      1.0000 0.34190  0.13320  0.67830  Biso   1.000  H
  H58      1.0000 0.65810  0.86680  0.17830  Biso   1.000  H
  H59      1.0000 0.15810  0.63320  0.17830  Biso   1.000  H
  H60      1.0000 0.84190  0.36680  0.67830  Biso   1.000  H
  C77      1.0000 0.29130  0.07640  0.49740  Biso   1.000  C
  C78      1.0000 0.70870  0.92360  0.99740  Biso   1.000  C
  C79      1.0000 0.20870  0.57640  0.99740  Biso   1.000  C
  C80      1.0000 0.79130  0.42360  0.49740  Biso   1.000  C
  H61      1.0000 0.34110  0.05580  0.45690  Biso   1.000  H
  H62      1.0000 0.65890  0.94420  0.95690  Biso   1.000  H
  H63      1.0000 0.15890  0.55580  0.95690  Biso   1.000  H
  H64      1.0000 0.84110  0.44420  0.45690  Biso   1.000  H
  C81      1.0000 0.21710  0.06160  0.42740  Biso   1.000  C
  C82      1.0000 0.78290  0.93840  0.92740  Biso   1.000  C
  C83      1.0000 0.28290  0.56160  0.92740  Biso   1.000  C
  C84      1.0000 0.71710  0.43840  0.42740  Biso   1.000  C
  H65      1.0000 0.21520  0.02960  0.33890  Biso   1.000  H
  H66      1.0000 0.78480  0.97040  0.83890  Biso   1.000  H
  H67      1.0000 0.28480  0.52960  0.83890  Biso   1.000  H
  H68      1.0000 0.71520  0.47040  0.33890  Biso   1.000  H
  C85      1.0000 0.14640  0.09340  0.48700  Biso   1.000  C
  C86      1.0000 0.85360  0.90660  0.98700  Biso   1.000  C
  C87      1.0000 0.35360  0.59340  0.98700  Biso   1.000  C
  C88      1.0000 0.64640  0.40660  0.48700  Biso   1.000  C
  H69      1.0000 0.09510  0.08490  0.43960  Biso   1.000  H
  H70      1.0000 0.90490  0.91510  0.93960  Biso   1.000  H
  H71      1.0000 0.40490  0.58490  0.93960  Biso   1.000  H
  H72      1.0000 0.59510  0.41510  0.43960  Biso   1.000  H
  C89      1.0000 0.15140  0.13860  0.61880  Biso   1.000  C
  C90      1.0000 0.84860  0.86140  0.11880  Biso   1.000  C
  C91      1.0000 0.34860  0.63860  0.11880  Biso   1.000  C
  C92      1.0000 0.65140  0.36140  0.61880  Biso   1.000  C
  H73      1.0000 0.10250  0.16080  0.66020  Biso   1.000  H
  H74      1.0000 0.89750  0.83920  0.16020  Biso   1.000  H
  H75      1.0000 0.39750  0.66080  0.16020  Biso   1.000  H
  H76      1.0000 0.60250  0.33920  0.66020  Biso   1.000  H
  O17      1.0000 0.40430  0.30150  0.74380  Biso   1.000  O
  O18      1.0000 0.59570  0.69850  0.24380  Biso   1.000  O
  O19      1.0000 0.09570  0.80150  0.24380  Biso   1.000  O
  O20      1.0000 0.90430  0.19850  0.74380  Biso   1.000  O
  H77      1.0000 0.34380  0.30260  0.73920  Biso   1.000  H
  H78      1.0000 0.65620  0.69740  0.23920  Biso   1.000  H
  H79      1.0000 0.15620  0.80260  0.23920  Biso   1.000  H
  H80      1.0000 0.84380  0.19740  0.73920  Biso   1.000  H
  H81      1.0000 0.39840  0.27090  0.83020  Biso   1.000  H
  H82      1.0000 0.60160  0.72910  0.33020  Biso   1.000  H
  H83      1.0000 0.10160  0.77090  0.33020  Biso   1.000  H
  H84      1.0000 0.89840  0.22910  0.83020  Biso   1.000  H
  O21      1.0000 0.47560  0.30140  0.47450  Biso   1.000  O
  O22      1.0000 0.52440  0.69860  0.97450  Biso   1.000  O
  O23      1.0000 0.02440  0.80140  0.97450  Biso   1.000  O
  O24      1.0000 0.97560  0.19860  0.47450  Biso   1.000  O
  H85      1.0000 0.44280  0.30510  0.55490  Biso   1.000  H
  H86      1.0000 0.55720  0.69490  0.05490  Biso   1.000  H
  H87      1.0000 0.05720  0.80510  0.05490  Biso   1.000  H
  H88      1.0000 0.94280  0.19490  0.55490  Biso   1.000  H
  C93      1.0000 0.49250  0.22200  0.42270  Biso   1.000  C
  C94      1.0000 0.50750  0.77800  0.92270  Biso   1.000  C
  C95      1.0000 0.00750  0.72200  0.92270  Biso   1.000  C
  C96      1.0000 0.99250  0.27800  0.42270  Biso   1.000  C
  H89      1.0000 0.54060  0.22370  0.35740  Biso   1.000  H
  H90      1.0000 0.45940  0.77630  0.85740  Biso   1.000  H
  H91      1.0000 0.95940  0.72370  0.85740  Biso   1.000  H
  H92      1.0000 0.04060  0.27630  0.35740  Biso   1.000  H
  H93      1.0000 0.44520  0.20100  0.36730  Biso   1.000  H
  H94      1.0000 0.55480  0.79900  0.86730  Biso   1.000  H
  H95      1.0000 0.05480  0.70100  0.86730  Biso   1.000  H
  H96      1.0000 0.94520  0.29900  0.36730  Biso   1.000  H
  H97      1.0000 0.50370  0.18530  0.50700  Biso   1.000  H
  H98      1.0000 0.49630  0.81470  0.00700  Biso   1.000  H
  H99      1.0000 0.99630  0.68530  0.00700  Biso   1.000  H
  H100     1.0000 0.00370  0.31470  0.50700  Biso   1.000  H
