data_image0
_cell_length_a       18.7912
_cell_length_b       18.7912
_cell_length_c       16.8886
_cell_angle_alpha    90
_cell_angle_beta     90
_cell_angle_gamma    90

_symmetry_space_group_name_H-M    "P 1"
_symmetry_int_tables_number       1

loop_
  _symmetry_equiv_pos_as_xyz
  'x, y, z'

loop_
  _atom_site_label
  _atom_site_occupancy
  _atom_site_fract_x
  _atom_site_fract_y
  _atom_site_fract_z
  _atom_site_thermal_displace_type
  _atom_site_B_iso_or_equiv
  _atom_site_type_symbol
  Cu1      1.0000 0.47792  0.04666  0.69245  Biso   1.000  Cu
  Cu2      1.0000 0.45334  0.47792  0.69245  Biso   1.000  Cu
  Cu3      1.0000 0.04666  0.02208  0.69245  Biso   1.000  Cu
  Cu4      1.0000 0.54666  0.97792  0.80755  Biso   1.000  Cu
  Cu5      1.0000 0.97792  0.54666  0.30755  Biso   1.000  Cu
  Cu6      1.0000 0.47792  0.45334  0.19245  Biso   1.000  Cu
  Cu7      1.0000 0.02208  0.04666  0.19245  Biso   1.000  Cu
  Cu8      1.0000 0.04666  0.47792  0.19245  Biso   1.000  Cu
  Cu9      1.0000 0.52208  0.95334  0.30755  Biso   1.000  Cu
  Cu10     1.0000 0.54666  0.52208  0.30755  Biso   1.000  Cu
  Cu11     1.0000 0.95334  0.97792  0.30755  Biso   1.000  Cu
  Cu12     1.0000 0.45334  0.02208  0.19245  Biso   1.000  Cu
  Cu13     1.0000 0.02208  0.45334  0.69245  Biso   1.000  Cu
  Cu14     1.0000 0.52208  0.54666  0.80755  Biso   1.000  Cu
  Cu15     1.0000 0.97792  0.95334  0.80755  Biso   1.000  Cu
  Cu16     1.0000 0.95334  0.52208  0.80755  Biso   1.000  Cu
  O1       1.0000 0.46403  0.95298  0.64647  Biso   1.000  O
  O2       1.0000 0.54702  0.46403  0.64647  Biso   1.000  O
  O3       1.0000 0.95298  0.03597  0.64647  Biso   1.000  O
  O4       1.0000 0.45298  0.96403  0.85353  Biso   1.000  O
  O5       1.0000 0.96403  0.45298  0.35353  Biso   1.000  O
  O6       1.0000 0.46403  0.54702  0.14647  Biso   1.000  O
  O7       1.0000 0.03597  0.95298  0.14647  Biso   1.000  O
  O8       1.0000 0.95298  0.46403  0.14647  Biso   1.000  O
  O9       1.0000 0.53597  0.04702  0.35353  Biso   1.000  O
  O10      1.0000 0.45298  0.53597  0.35353  Biso   1.000  O
  O11      1.0000 0.04702  0.96403  0.35353  Biso   1.000  O
  O12      1.0000 0.54702  0.03597  0.14647  Biso   1.000  O
  O13      1.0000 0.03597  0.54702  0.64647  Biso   1.000  O
  O14      1.0000 0.53597  0.45298  0.85353  Biso   1.000  O
  O15      1.0000 0.96403  0.04702  0.85353  Biso   1.000  O
  O16      1.0000 0.04702  0.53597  0.85353  Biso   1.000  O
  C1       1.0000 0.48780  0.89676  0.67707  Biso   1.000  C
  C2       1.0000 0.60324  0.48780  0.67707  Biso   1.000  C
  C3       1.0000 0.89676  0.01220  0.67707  Biso   1.000  C
  C4       1.0000 0.39676  0.98780  0.82293  Biso   1.000  C
  C5       1.0000 0.98780  0.39676  0.32293  Biso   1.000  C
  C6       1.0000 0.48780  0.60324  0.17707  Biso   1.000  C
  C7       1.0000 0.01220  0.89676  0.17707  Biso   1.000  C
  C8       1.0000 0.89676  0.48780  0.17707  Biso   1.000  C
  C9       1.0000 0.51220  0.10324  0.32293  Biso   1.000  C
  C10      1.0000 0.39676  0.51220  0.32293  Biso   1.000  C
  C11      1.0000 0.10324  0.98780  0.32293  Biso   1.000  C
  C12      1.0000 0.60324  0.01220  0.17707  Biso   1.000  C
  C13      1.0000 0.01220  0.60324  0.67707  Biso   1.000  C
  C14      1.0000 0.51220  0.39676  0.82293  Biso   1.000  C
  C15      1.0000 0.98780  0.10324  0.82293  Biso   1.000  C
  C16      1.0000 0.10324  0.51220  0.82293  Biso   1.000  C
  O17      1.0000 0.39397  0.02716  0.76258  Biso   1.000  O
  O18      1.0000 0.47284  0.39397  0.76258  Biso   1.000  O
  O19      1.0000 0.02716  0.10603  0.76258  Biso   1.000  O
  O20      1.0000 0.52716  0.89397  0.73742  Biso   1.000  O
  O21      1.0000 0.89397  0.52716  0.23742  Biso   1.000  O
  O22      1.0000 0.39397  0.47284  0.26258  Biso   1.000  O
  O23      1.0000 0.10603  0.02716  0.26258  Biso   1.000  O
  O24      1.0000 0.02716  0.39397  0.26258  Biso   1.000  O
  O25      1.0000 0.60603  0.97284  0.23742  Biso   1.000  O
  O26      1.0000 0.52716  0.60603  0.23742  Biso   1.000  O
  O27      1.0000 0.97284  0.89397  0.23742  Biso   1.000  O
  O28      1.0000 0.47284  0.10603  0.26258  Biso   1.000  O
  O29      1.0000 0.10603  0.47284  0.76258  Biso   1.000  O
  O30      1.0000 0.60603  0.52716  0.73742  Biso   1.000  O
  O31      1.0000 0.89397  0.97284  0.73742  Biso   1.000  O
  O32      1.0000 0.97284  0.60603  0.73742  Biso   1.000  O
  C17      1.0000 0.63042  0.02928  0.68040  Biso   1.000  C
  C18      1.0000 0.47072  0.63042  0.68040  Biso   1.000  C
  C19      1.0000 0.02928  0.86958  0.68040  Biso   1.000  C
  C20      1.0000 0.52928  0.13042  0.81960  Biso   1.000  C
  C21      1.0000 0.13042  0.52928  0.31960  Biso   1.000  C
  C22      1.0000 0.63042  0.47072  0.18040  Biso   1.000  C
  C23      1.0000 0.86958  0.02928  0.18040  Biso   1.000  C
  C24      1.0000 0.02928  0.63042  0.18040  Biso   1.000  C
  C25      1.0000 0.36958  0.97072  0.31960  Biso   1.000  C
  C26      1.0000 0.52928  0.36958  0.31960  Biso   1.000  C
  C27      1.0000 0.97072  0.13042  0.31960  Biso   1.000  C
  C28      1.0000 0.47072  0.86958  0.18040  Biso   1.000  C
  C29      1.0000 0.86958  0.47072  0.68040  Biso   1.000  C
  C30      1.0000 0.36958  0.52928  0.81960  Biso   1.000  C
  C31      1.0000 0.13042  0.97072  0.81960  Biso   1.000  C
  C32      1.0000 0.97072  0.36958  0.81960  Biso   1.000  C
  O33      1.0000 0.57560  0.05056  0.64624  Biso   1.000  O
  O34      1.0000 0.44944  0.57560  0.64624  Biso   1.000  O
  O35      1.0000 0.05056  0.92440  0.64624  Biso   1.000  O
  O36      1.0000 0.55056  0.07560  0.85376  Biso   1.000  O
  O37      1.0000 0.07560  0.55056  0.35376  Biso   1.000  O
  O38      1.0000 0.57560  0.44944  0.14624  Biso   1.000  O
  O39      1.0000 0.92440  0.05056  0.14624  Biso   1.000  O
  O40      1.0000 0.05056  0.57560  0.14624  Biso   1.000  O
  O41      1.0000 0.42440  0.94944  0.35376  Biso   1.000  O
  O42      1.0000 0.55056  0.42440  0.35376  Biso   1.000  O
  O43      1.0000 0.94944  0.07560  0.35376  Biso   1.000  O
  O44      1.0000 0.44944  0.92440  0.14624  Biso   1.000  O
  O45      1.0000 0.92440  0.44944  0.64624  Biso   1.000  O
  O46      1.0000 0.42440  0.55056  0.85376  Biso   1.000  O
  O47      1.0000 0.07560  0.94944  0.85376  Biso   1.000  O
  O48      1.0000 0.94944  0.42440  0.85376  Biso   1.000  O
  O49      1.0000 0.49808  0.13235  0.75359  Biso   1.000  O
  O50      1.0000 0.36765  0.49808  0.75359  Biso   1.000  O
  O51      1.0000 0.13235  0.00192  0.75359  Biso   1.000  O
  O52      1.0000 0.63235  0.99808  0.74641  Biso   1.000  O
  O53      1.0000 0.99808  0.63235  0.24641  Biso   1.000  O
  O54      1.0000 0.49808  0.36765  0.25359  Biso   1.000  O
  O55      1.0000 0.00192  0.13235  0.25359  Biso   1.000  O
  O56      1.0000 0.13235  0.49808  0.25359  Biso   1.000  O
  O57      1.0000 0.50192  0.86765  0.24641  Biso   1.000  O
  O58      1.0000 0.63235  0.50192  0.24641  Biso   1.000  O
  O59      1.0000 0.86765  0.99808  0.24641  Biso   1.000  O
  O60      1.0000 0.36765  0.00192  0.25359  Biso   1.000  O
  O61      1.0000 0.00192  0.36765  0.75359  Biso   1.000  O
  O62      1.0000 0.50192  0.63235  0.74641  Biso   1.000  O
  O63      1.0000 0.99808  0.86765  0.74641  Biso   1.000  O
  O64      1.0000 0.86765  0.50192  0.74641  Biso   1.000  O
  N1       1.0000 0.42899  0.10525  0.59697  Biso   1.000  N
  N2       1.0000 0.39475  0.42899  0.59697  Biso   1.000  N
  N3       1.0000 0.10525  0.07101  0.59697  Biso   1.000  N
  N4       1.0000 0.60525  0.92899  0.90303  Biso   1.000  N
  N5       1.0000 0.92899  0.60525  0.40303  Biso   1.000  N
  N6       1.0000 0.42899  0.39475  0.09697  Biso   1.000  N
  N7       1.0000 0.07101  0.10525  0.09697  Biso   1.000  N
  N8       1.0000 0.10525  0.42899  0.09697  Biso   1.000  N
  N9       1.0000 0.57101  0.89475  0.40303  Biso   1.000  N
  N10      1.0000 0.60525  0.57101  0.40303  Biso   1.000  N
  N11      1.0000 0.89475  0.92899  0.40303  Biso   1.000  N
  N12      1.0000 0.39475  0.07101  0.09697  Biso   1.000  N
  N13      1.0000 0.07101  0.39475  0.59697  Biso   1.000  N
  N14      1.0000 0.57101  0.60525  0.90303  Biso   1.000  N
  N15      1.0000 0.92899  0.89475  0.90303  Biso   1.000  N
  N16      1.0000 0.89475  0.57101  0.90303  Biso   1.000  N
  C33      1.0000 0.48061  0.76390  0.67510  Biso   1.000  C
  C34      1.0000 0.73610  0.48061  0.67510  Biso   1.000  C
  C35      1.0000 0.76390  0.01939  0.67510  Biso   1.000  C
  C36      1.0000 0.26390  0.98061  0.82490  Biso   1.000  C
  C37      1.0000 0.98061  0.26390  0.32490  Biso   1.000  C
  C38      1.0000 0.48061  0.73610  0.17510  Biso   1.000  C
  C39      1.0000 0.01939  0.76390  0.17510  Biso   1.000  C
  C40      1.0000 0.76390  0.48061  0.17510  Biso   1.000  C
  C41      1.0000 0.51939  0.23610  0.32490  Biso   1.000  C
  C42      1.0000 0.26390  0.51939  0.32490  Biso   1.000  C
  C43      1.0000 0.23610  0.98061  0.32490  Biso   1.000  C
  C44      1.0000 0.73610  0.01939  0.17510  Biso   1.000  C
  C45      1.0000 0.01939  0.73610  0.67510  Biso   1.000  C
  C46      1.0000 0.51939  0.26390  0.82490  Biso   1.000  C
  C47      1.0000 0.98061  0.23610  0.82490  Biso   1.000  C
  C48      1.0000 0.23610  0.51939  0.82490  Biso   1.000  C
  H1       1.0000 0.50390  0.76290  0.72510  Biso   1.000  H
  H2       1.0000 0.73710  0.50390  0.72510  Biso   1.000  H
  H3       1.0000 0.76290  0.99610  0.72510  Biso   1.000  H
  H4       1.0000 0.26290  0.00390  0.77490  Biso   1.000  H
  H5       1.0000 0.00390  0.26290  0.27490  Biso   1.000  H
  H6       1.0000 0.50390  0.73710  0.22510  Biso   1.000  H
  H7       1.0000 0.99610  0.76290  0.22510  Biso   1.000  H
  H8       1.0000 0.76290  0.50390  0.22510  Biso   1.000  H
  H9       1.0000 0.49610  0.23710  0.27490  Biso   1.000  H
  H10      1.0000 0.26290  0.49610  0.27490  Biso   1.000  H
  H11      1.0000 0.23710  0.00390  0.27490  Biso   1.000  H
  H12      1.0000 0.73710  0.99610  0.22510  Biso   1.000  H
  H13      1.0000 0.99610  0.73710  0.72510  Biso   1.000  H
  H14      1.0000 0.49610  0.26290  0.77490  Biso   1.000  H
  H15      1.0000 0.00390  0.23710  0.77490  Biso   1.000  H
  H16      1.0000 0.23710  0.49610  0.77490  Biso   1.000  H
  C49      1.0000 0.46789  0.82818  0.63810  Biso   1.000  C
  C50      1.0000 0.67182  0.46789  0.63810  Biso   1.000  C
  C51      1.0000 0.82818  0.03211  0.63810  Biso   1.000  C
  C52      1.0000 0.32818  0.96789  0.86190  Biso   1.000  C
  C53      1.0000 0.96789  0.32818  0.36190  Biso   1.000  C
  C54      1.0000 0.46789  0.67182  0.13810  Biso   1.000  C
  C55      1.0000 0.03211  0.82818  0.13810  Biso   1.000  C
  C56      1.0000 0.82818  0.46789  0.13810  Biso   1.000  C
  C57      1.0000 0.53211  0.17182  0.36190  Biso   1.000  C
  C58      1.0000 0.32818  0.53211  0.36190  Biso   1.000  C
  C59      1.0000 0.17182  0.96789  0.36190  Biso   1.000  C
  C60      1.0000 0.67182  0.03211  0.13810  Biso   1.000  C
  C61      1.0000 0.03211  0.67182  0.63810  Biso   1.000  C
  C62      1.0000 0.53211  0.32818  0.86190  Biso   1.000  C
  C63      1.0000 0.96789  0.17182  0.86190  Biso   1.000  C
  C64      1.0000 0.17182  0.53211  0.86190  Biso   1.000  C
  C65      1.0000 0.70037  0.04061  0.63940  Biso   1.000  C
  C66      1.0000 0.45939  0.70037  0.63940  Biso   1.000  C
  C67      1.0000 0.04061  0.79963  0.63940  Biso   1.000  C
  C68      1.0000 0.54061  0.20037  0.86060  Biso   1.000  C
  C69      1.0000 0.20037  0.54061  0.36060  Biso   1.000  C
  C70      1.0000 0.70037  0.45939  0.13940  Biso   1.000  C
  C71      1.0000 0.79963  0.04061  0.13940  Biso   1.000  C
  C72      1.0000 0.04061  0.70037  0.13940  Biso   1.000  C
  C73      1.0000 0.29963  0.95939  0.36060  Biso   1.000  C
  C74      1.0000 0.54061  0.29963  0.36060  Biso   1.000  C
  C75      1.0000 0.95939  0.20037  0.36060  Biso   1.000  C
  C76      1.0000 0.45939  0.79963  0.13940  Biso   1.000  C
  C77      1.0000 0.79963  0.45939  0.63940  Biso   1.000  C
  C78      1.0000 0.29963  0.54061  0.86060  Biso   1.000  C
  C79      1.0000 0.20037  0.95939  0.86060  Biso   1.000  C
  C80      1.0000 0.95939  0.29963  0.86060  Biso   1.000  C
  C81      1.0000 0.41450  0.07750  0.52650  Biso   1.000  C
  C82      1.0000 0.42250  0.41450  0.52650  Biso   1.000  C
  C83      1.0000 0.07750  0.08550  0.52650  Biso   1.000  C
  C84      1.0000 0.57750  0.91450  0.97350  Biso   1.000  C
  C85      1.0000 0.91450  0.57750  0.47350  Biso   1.000  C
  C86      1.0000 0.41450  0.42250  0.02650  Biso   1.000  C
  C87      1.0000 0.08550  0.07750  0.02650  Biso   1.000  C
  C88      1.0000 0.07750  0.41450  0.02650  Biso   1.000  C
  C89      1.0000 0.58550  0.92250  0.47350  Biso   1.000  C
  C90      1.0000 0.57750  0.58550  0.47350  Biso   1.000  C
  C91      1.0000 0.92250  0.91450  0.47350  Biso   1.000  C
  C92      1.0000 0.42250  0.08550  0.02650  Biso   1.000  C
  C93      1.0000 0.08550  0.42250  0.52650  Biso   1.000  C
  C94      1.0000 0.58550  0.57750  0.97350  Biso   1.000  C
  C95      1.0000 0.91450  0.92250  0.97350  Biso   1.000  C
  C96      1.0000 0.92250  0.58550  0.97350  Biso   1.000  C
  H17      1.0000 0.42250  0.02810  0.51860  Biso   1.000  H
  H18      1.0000 0.47190  0.42250  0.51860  Biso   1.000  H
  H19      1.0000 0.02810  0.07750  0.51860  Biso   1.000  H
  H20      1.0000 0.52810  0.92250  0.98140  Biso   1.000  H
  H21      1.0000 0.92250  0.52810  0.48140  Biso   1.000  H
  H22      1.0000 0.42250  0.47190  0.01860  Biso   1.000  H
  H23      1.0000 0.07750  0.02810  0.01860  Biso   1.000  H
  H24      1.0000 0.02810  0.42250  0.01860  Biso   1.000  H
  H25      1.0000 0.57750  0.97190  0.48140  Biso   1.000  H
  H26      1.0000 0.52810  0.57750  0.48140  Biso   1.000  H
  H27      1.0000 0.97190  0.92250  0.48140  Biso   1.000  H
  H28      1.0000 0.47190  0.07750  0.01860  Biso   1.000  H
  H29      1.0000 0.07750  0.47190  0.51860  Biso   1.000  H
  H30      1.0000 0.57750  0.52810  0.98140  Biso   1.000  H
  H31      1.0000 0.92250  0.97190  0.98140  Biso   1.000  H
  H32      1.0000 0.97190  0.57750  0.98140  Biso   1.000  H
  C97      1.0000 0.39089  0.21729  0.54710  Biso   1.000  C
  C98      1.0000 0.28271  0.39089  0.54710  Biso   1.000  C
  C99      1.0000 0.21729  0.10911  0.54710  Biso   1.000  C
  C100     1.0000 0.71729  0.89089  0.95290  Biso   1.000  C
  C101     1.0000 0.89089  0.71729  0.45290  Biso   1.000  C
  C102     1.0000 0.39089  0.28271  0.04710  Biso   1.000  C
  C103     1.0000 0.10911  0.21729  0.04710  Biso   1.000  C
  C104     1.0000 0.21729  0.39089  0.04710  Biso   1.000  C
  C105     1.0000 0.60911  0.78271  0.45290  Biso   1.000  C
  C106     1.0000 0.71729  0.60911  0.45290  Biso   1.000  C
  C107     1.0000 0.78271  0.89089  0.45290  Biso   1.000  C
  C108     1.0000 0.28271  0.10911  0.04710  Biso   1.000  C
  C109     1.0000 0.10911  0.28271  0.54710  Biso   1.000  C
  C110     1.0000 0.60911  0.71729  0.95290  Biso   1.000  C
  C111     1.0000 0.89089  0.78271  0.95290  Biso   1.000  C
  C112     1.0000 0.78271  0.60911  0.95290  Biso   1.000  C
  H33      1.0000 0.38310  0.26650  0.55630  Biso   1.000  H
  H34      1.0000 0.23350  0.38310  0.55630  Biso   1.000  H
  H35      1.0000 0.26650  0.11690  0.55630  Biso   1.000  H
  H36      1.0000 0.76650  0.88310  0.94370  Biso   1.000  H
  H37      1.0000 0.88310  0.76650  0.44370  Biso   1.000  H
  H38      1.0000 0.38310  0.23350  0.05630  Biso   1.000  H
  H39      1.0000 0.11690  0.26650  0.05630  Biso   1.000  H
  H40      1.0000 0.26650  0.38310  0.05630  Biso   1.000  H
  H41      1.0000 0.61690  0.73350  0.44370  Biso   1.000  H
  H42      1.0000 0.76650  0.61690  0.44370  Biso   1.000  H
  H43      1.0000 0.73350  0.88310  0.44370  Biso   1.000  H
  H44      1.0000 0.23350  0.11690  0.05630  Biso   1.000  H
  H45      1.0000 0.11690  0.23350  0.55630  Biso   1.000  H
  H46      1.0000 0.61690  0.76650  0.94370  Biso   1.000  H
  H47      1.0000 0.88310  0.73350  0.94370  Biso   1.000  H
  H48      1.0000 0.73350  0.61690  0.94370  Biso   1.000  H
  C113     1.0000 0.41667  0.17475  0.60670  Biso   1.000  C
  C114     1.0000 0.32525  0.41667  0.60670  Biso   1.000  C
  C115     1.0000 0.17475  0.08333  0.60670  Biso   1.000  C
  C116     1.0000 0.67475  0.91667  0.89330  Biso   1.000  C
  C117     1.0000 0.91667  0.67475  0.39330  Biso   1.000  C
  C118     1.0000 0.41667  0.32525  0.10670  Biso   1.000  C
  C119     1.0000 0.08333  0.17475  0.10670  Biso   1.000  C
  C120     1.0000 0.17475  0.41667  0.10670  Biso   1.000  C
  C121     1.0000 0.58333  0.82525  0.39330  Biso   1.000  C
  C122     1.0000 0.67475  0.58333  0.39330  Biso   1.000  C
  C123     1.0000 0.82525  0.91667  0.39330  Biso   1.000  C
  C124     1.0000 0.32525  0.08333  0.10670  Biso   1.000  C
  C125     1.0000 0.08333  0.32525  0.60670  Biso   1.000  C
  C126     1.0000 0.58333  0.67475  0.89330  Biso   1.000  C
  C127     1.0000 0.91667  0.82525  0.89330  Biso   1.000  C
  C128     1.0000 0.82525  0.58333  0.89330  Biso   1.000  C
  H49      1.0000 0.42610  0.19560  0.65680  Biso   1.000  H
  H50      1.0000 0.30440  0.42610  0.65680  Biso   1.000  H
  H51      1.0000 0.19560  0.07390  0.65680  Biso   1.000  H
  H52      1.0000 0.69560  0.92610  0.84320  Biso   1.000  H
  H53      1.0000 0.92610  0.69560  0.34320  Biso   1.000  H
  H54      1.0000 0.42610  0.30440  0.15680  Biso   1.000  H
  H55      1.0000 0.07390  0.19560  0.15680  Biso   1.000  H
  H56      1.0000 0.19560  0.42610  0.15680  Biso   1.000  H
  H57      1.0000 0.57390  0.80440  0.34320  Biso   1.000  H
  H58      1.0000 0.69560  0.57390  0.34320  Biso   1.000  H
  H59      1.0000 0.80440  0.92610  0.34320  Biso   1.000  H
  H60      1.0000 0.30440  0.07390  0.15680  Biso   1.000  H
  H61      1.0000 0.07390  0.30440  0.65680  Biso   1.000  H
  H62      1.0000 0.57390  0.69560  0.84320  Biso   1.000  H
  H63      1.0000 0.92610  0.80440  0.84320  Biso   1.000  H
  H64      1.0000 0.80440  0.57390  0.84320  Biso   1.000  H
  C129     1.0000 0.37661  0.18869  0.47500  Biso   1.000  C
  C130     1.0000 0.31131  0.37661  0.47500  Biso   1.000  C
  C131     1.0000 0.18869  0.12339  0.47500  Biso   1.000  C
  C132     1.0000 0.68869  0.87661  0.02500  Biso   1.000  C
  C133     1.0000 0.87661  0.68869  0.52500  Biso   1.000  C
  C134     1.0000 0.37661  0.31131  0.97500  Biso   1.000  C
  C135     1.0000 0.12339  0.18869  0.97500  Biso   1.000  C
  C136     1.0000 0.18869  0.37661  0.97500  Biso   1.000  C
  C137     1.0000 0.62339  0.81131  0.52500  Biso   1.000  C
  C138     1.0000 0.68869  0.62339  0.52500  Biso   1.000  C
  C139     1.0000 0.81131  0.87661  0.52500  Biso   1.000  C
  C140     1.0000 0.31131  0.12339  0.97500  Biso   1.000  C
  C141     1.0000 0.12339  0.31131  0.47500  Biso   1.000  C
  C142     1.0000 0.62339  0.68869  0.02500  Biso   1.000  C
  C143     1.0000 0.87661  0.81131  0.02500  Biso   1.000  C
  C144     1.0000 0.81131  0.62339  0.02500  Biso   1.000  C
  H65      1.0000 0.35890  0.21750  0.43320  Biso   1.000  H
  H66      1.0000 0.28250  0.35890  0.43320  Biso   1.000  H
  H67      1.0000 0.21750  0.14110  0.43320  Biso   1.000  H
  H68      1.0000 0.71750  0.85890  0.06680  Biso   1.000  H
  H69      1.0000 0.85890  0.71750  0.56680  Biso   1.000  H
  H70      1.0000 0.35890  0.28250  0.93320  Biso   1.000  H
  H71      1.0000 0.14110  0.21750  0.93320  Biso   1.000  H
  H72      1.0000 0.21750  0.35890  0.93320  Biso   1.000  H
  H73      1.0000 0.64110  0.78250  0.56680  Biso   1.000  H
  H74      1.0000 0.71750  0.64110  0.56680  Biso   1.000  H
  H75      1.0000 0.78250  0.85890  0.56680  Biso   1.000  H
  H76      1.0000 0.28250  0.14110  0.93320  Biso   1.000  H
  H77      1.0000 0.14110  0.28250  0.43320  Biso   1.000  H
  H78      1.0000 0.64110  0.71750  0.06680  Biso   1.000  H
  H79      1.0000 0.85890  0.78250  0.06680  Biso   1.000  H
  H80      1.0000 0.78250  0.64110  0.06680  Biso   1.000  H
  C145     1.0000 0.41980  0.76580  0.52560  Biso   1.000  C
  C146     1.0000 0.73420  0.41980  0.52560  Biso   1.000  C
  C147     1.0000 0.76580  0.08020  0.52560  Biso   1.000  C
  C148     1.0000 0.26580  0.91980  0.97440  Biso   1.000  C
  C149     1.0000 0.91980  0.26580  0.47440  Biso   1.000  C
  C150     1.0000 0.41980  0.73420  0.02560  Biso   1.000  C
  C151     1.0000 0.08020  0.76580  0.02560  Biso   1.000  C
  C152     1.0000 0.76580  0.41980  0.02560  Biso   1.000  C
  C153     1.0000 0.58020  0.23420  0.47440  Biso   1.000  C
  C154     1.0000 0.26580  0.58020  0.47440  Biso   1.000  C
  C155     1.0000 0.23420  0.91980  0.47440  Biso   1.000  C
  C156     1.0000 0.73420  0.08020  0.02560  Biso   1.000  C
  C157     1.0000 0.08020  0.73420  0.52560  Biso   1.000  C
  C158     1.0000 0.58020  0.26580  0.97440  Biso   1.000  C
  C159     1.0000 0.91980  0.23420  0.97440  Biso   1.000  C
  C160     1.0000 0.23420  0.58020  0.97440  Biso   1.000  C
  H81      1.0000 0.39980  0.76650  0.47390  Biso   1.000  H
  H82      1.0000 0.73350  0.39980  0.47390  Biso   1.000  H
  H83      1.0000 0.76650  0.10020  0.47390  Biso   1.000  H
  H84      1.0000 0.26650  0.89980  0.02610  Biso   1.000  H
  H85      1.0000 0.89980  0.26650  0.52610  Biso   1.000  H
  H86      1.0000 0.39980  0.73350  0.97390  Biso   1.000  H
  H87      1.0000 0.10020  0.76650  0.97390  Biso   1.000  H
  H88      1.0000 0.76650  0.39980  0.97390  Biso   1.000  H
  H89      1.0000 0.60020  0.23350  0.52610  Biso   1.000  H
  H90      1.0000 0.26650  0.60020  0.52610  Biso   1.000  H
  H91      1.0000 0.23350  0.89980  0.52610  Biso   1.000  H
  H92      1.0000 0.73350  0.10020  0.97390  Biso   1.000  H
  H93      1.0000 0.10020  0.73350  0.47390  Biso   1.000  H
  H94      1.0000 0.60020  0.26650  0.02610  Biso   1.000  H
  H95      1.0000 0.89980  0.23350  0.02610  Biso   1.000  H
  H96      1.0000 0.23350  0.60020  0.02610  Biso   1.000  H
  C161     1.0000 0.38829  0.11730  0.46400  Biso   1.000  C
  C162     1.0000 0.38270  0.38829  0.46400  Biso   1.000  C
  C163     1.0000 0.11730  0.11171  0.46400  Biso   1.000  C
  C164     1.0000 0.61730  0.88829  0.03600  Biso   1.000  C
  C165     1.0000 0.88829  0.61730  0.53600  Biso   1.000  C
  C166     1.0000 0.38829  0.38270  0.96400  Biso   1.000  C
  C167     1.0000 0.11171  0.11730  0.96400  Biso   1.000  C
  C168     1.0000 0.11730  0.38829  0.96400  Biso   1.000  C
  C169     1.0000 0.61171  0.88270  0.53600  Biso   1.000  C
  C170     1.0000 0.61730  0.61171  0.53600  Biso   1.000  C
  C171     1.0000 0.88270  0.88829  0.53600  Biso   1.000  C
  C172     1.0000 0.38270  0.11171  0.96400  Biso   1.000  C
  C173     1.0000 0.11171  0.38270  0.46400  Biso   1.000  C
  C174     1.0000 0.61171  0.61730  0.03600  Biso   1.000  C
  C175     1.0000 0.88829  0.88270  0.03600  Biso   1.000  C
  C176     1.0000 0.88270  0.61171  0.03600  Biso   1.000  C
  H97      1.0000 0.37860  0.09560  0.41440  Biso   1.000  H
  H98      1.0000 0.40440  0.37860  0.41440  Biso   1.000  H
  H99      1.0000 0.09560  0.12140  0.41440  Biso   1.000  H
  H100     1.0000 0.59560  0.87860  0.08560  Biso   1.000  H
  H101     1.0000 0.87860  0.59560  0.58560  Biso   1.000  H
  H102     1.0000 0.37860  0.40440  0.91440  Biso   1.000  H
  H103     1.0000 0.12140  0.09560  0.91440  Biso   1.000  H
  H104     1.0000 0.09560  0.37860  0.91440  Biso   1.000  H
  H105     1.0000 0.62140  0.90440  0.58560  Biso   1.000  H
  H106     1.0000 0.59560  0.62140  0.58560  Biso   1.000  H
  H107     1.0000 0.90440  0.87860  0.58560  Biso   1.000  H
  H108     1.0000 0.40440  0.12140  0.91440  Biso   1.000  H
  H109     1.0000 0.12140  0.40440  0.41440  Biso   1.000  H
  H110     1.0000 0.62140  0.59560  0.08560  Biso   1.000  H
  H111     1.0000 0.87860  0.90440  0.08560  Biso   1.000  H
  H112     1.0000 0.90440  0.62140  0.08560  Biso   1.000  H
  C177     1.0000 0.43880  0.82870  0.56210  Biso   1.000  C
  C178     1.0000 0.67130  0.43880  0.56210  Biso   1.000  C
  C179     1.0000 0.82870  0.06120  0.56210  Biso   1.000  C
  C180     1.0000 0.32870  0.93880  0.93790  Biso   1.000  C
  C181     1.0000 0.93880  0.32870  0.43790  Biso   1.000  C
  C182     1.0000 0.43880  0.67130  0.06210  Biso   1.000  C
  C183     1.0000 0.06120  0.82870  0.06210  Biso   1.000  C
  C184     1.0000 0.82870  0.43880  0.06210  Biso   1.000  C
  C185     1.0000 0.56120  0.17130  0.43790  Biso   1.000  C
  C186     1.0000 0.32870  0.56120  0.43790  Biso   1.000  C
  C187     1.0000 0.17130  0.93880  0.43790  Biso   1.000  C
  C188     1.0000 0.67130  0.06120  0.06210  Biso   1.000  C
  C189     1.0000 0.06120  0.67130  0.56210  Biso   1.000  C
  C190     1.0000 0.56120  0.32870  0.93790  Biso   1.000  C
  C191     1.0000 0.93880  0.17130  0.93790  Biso   1.000  C
  C192     1.0000 0.17130  0.56120  0.93790  Biso   1.000  C
  H113     1.0000 0.43210  0.87260  0.53520  Biso   1.000  H
  H114     1.0000 0.62740  0.43210  0.53520  Biso   1.000  H
  H115     1.0000 0.87260  0.06790  0.53520  Biso   1.000  H
  H116     1.0000 0.37260  0.93210  0.96480  Biso   1.000  H
  H117     1.0000 0.93210  0.37260  0.46480  Biso   1.000  H
  H118     1.0000 0.43210  0.62740  0.03520  Biso   1.000  H
  H119     1.0000 0.06790  0.87260  0.03520  Biso   1.000  H
  H120     1.0000 0.87260  0.43210  0.03520  Biso   1.000  H
  H121     1.0000 0.56790  0.12740  0.46480  Biso   1.000  H
  H122     1.0000 0.37260  0.56790  0.46480  Biso   1.000  H
  H123     1.0000 0.12740  0.93210  0.46480  Biso   1.000  H
  H124     1.0000 0.62740  0.06790  0.03520  Biso   1.000  H
  H125     1.0000 0.06790  0.62740  0.53520  Biso   1.000  H
  H126     1.0000 0.56790  0.37260  0.96480  Biso   1.000  H
  H127     1.0000 0.93210  0.12740  0.96480  Biso   1.000  H
  H128     1.0000 0.12740  0.56790  0.96480  Biso   1.000  H
  C193     1.0000 0.70179  0.07000  0.56420  Biso   1.000  C
  C194     1.0000 0.43000  0.70179  0.56420  Biso   1.000  C
  C195     1.0000 0.07000  0.79821  0.56420  Biso   1.000  C
  C196     1.0000 0.57000  0.20179  0.93580  Biso   1.000  C
  C197     1.0000 0.20179  0.57000  0.43580  Biso   1.000  C
  C198     1.0000 0.70179  0.43000  0.06420  Biso   1.000  C
  C199     1.0000 0.79821  0.07000  0.06420  Biso   1.000  C
  C200     1.0000 0.07000  0.70179  0.06420  Biso   1.000  C
  C201     1.0000 0.29821  0.93000  0.43580  Biso   1.000  C
  C202     1.0000 0.57000  0.29821  0.43580  Biso   1.000  C
  C203     1.0000 0.93000  0.20179  0.43580  Biso   1.000  C
  C204     1.0000 0.43000  0.79821  0.06420  Biso   1.000  C
  C205     1.0000 0.79821  0.43000  0.56420  Biso   1.000  C
  C206     1.0000 0.29821  0.57000  0.93580  Biso   1.000  C
  C207     1.0000 0.20179  0.93000  0.93580  Biso   1.000  C
  C208     1.0000 0.93000  0.29821  0.93580  Biso   1.000  C
  H129     1.0000 0.65850  0.08320  0.53910  Biso   1.000  H
  H130     1.0000 0.41680  0.65850  0.53910  Biso   1.000  H
  H131     1.0000 0.08320  0.84150  0.53910  Biso   1.000  H
  H132     1.0000 0.58320  0.15850  0.96090  Biso   1.000  H
  H133     1.0000 0.15850  0.58320  0.46090  Biso   1.000  H
  H134     1.0000 0.65850  0.41680  0.03910  Biso   1.000  H
  H135     1.0000 0.84150  0.08320  0.03910  Biso   1.000  H
  H136     1.0000 0.08320  0.65850  0.03910  Biso   1.000  H
  H137     1.0000 0.34150  0.91680  0.46090  Biso   1.000  H
  H138     1.0000 0.58320  0.34150  0.46090  Biso   1.000  H
  H139     1.0000 0.91680  0.15850  0.46090  Biso   1.000  H
  H140     1.0000 0.41680  0.84150  0.03910  Biso   1.000  H
  H141     1.0000 0.84150  0.41680  0.53910  Biso   1.000  H
  H142     1.0000 0.34150  0.58320  0.96090  Biso   1.000  H
  H143     1.0000 0.15850  0.91680  0.96090  Biso   1.000  H
  H144     1.0000 0.91680  0.34150  0.96090  Biso   1.000  H
  C209     1.0000 0.29740  0.15600  0.76940  Biso   1.000  C
  C210     1.0000 0.34400  0.29740  0.76940  Biso   1.000  C
  C211     1.0000 0.15600  0.20260  0.76940  Biso   1.000  C
  C212     1.0000 0.65600  0.79740  0.73060  Biso   1.000  C
  C213     1.0000 0.79740  0.65600  0.23060  Biso   1.000  C
  C214     1.0000 0.29740  0.34400  0.26940  Biso   1.000  C
  C215     1.0000 0.20260  0.15600  0.26940  Biso   1.000  C
  C216     1.0000 0.15600  0.29740  0.26940  Biso   1.000  C
  C217     1.0000 0.70260  0.84400  0.23060  Biso   1.000  C
  C218     1.0000 0.65600  0.70260  0.23060  Biso   1.000  C
  C219     1.0000 0.84400  0.79740  0.23060  Biso   1.000  C
  C220     1.0000 0.34400  0.20260  0.26940  Biso   1.000  C
  C221     1.0000 0.20260  0.34400  0.76940  Biso   1.000  C
  C222     1.0000 0.70260  0.65600  0.73060  Biso   1.000  C
  C223     1.0000 0.79740  0.84400  0.73060  Biso   1.000  C
  C224     1.0000 0.84400  0.70260  0.73060  Biso   1.000  C
  C225     1.0000 0.31570  0.22600  0.77180  Biso   1.000  C
  C226     1.0000 0.27400  0.31570  0.77180  Biso   1.000  C
  C227     1.0000 0.22600  0.18430  0.77180  Biso   1.000  C
  C228     1.0000 0.72600  0.81570  0.72820  Biso   1.000  C
  C229     1.0000 0.81570  0.72600  0.22820  Biso   1.000  C
  C230     1.0000 0.31570  0.27400  0.27180  Biso   1.000  C
  C231     1.0000 0.18430  0.22600  0.27180  Biso   1.000  C
  C232     1.0000 0.22600  0.31570  0.27180  Biso   1.000  C
  C233     1.0000 0.68430  0.77400  0.22820  Biso   1.000  C
  C234     1.0000 0.72600  0.68430  0.22820  Biso   1.000  C
  C235     1.0000 0.77400  0.81570  0.22820  Biso   1.000  C
  C236     1.0000 0.27400  0.18430  0.27180  Biso   1.000  C
  C237     1.0000 0.18430  0.27400  0.77180  Biso   1.000  C
  C238     1.0000 0.68430  0.72600  0.72820  Biso   1.000  C
  C239     1.0000 0.81570  0.77400  0.72820  Biso   1.000  C
  C240     1.0000 0.77400  0.68430  0.72820  Biso   1.000  C
  C241     1.0000 0.77670  0.22330  0.75000  Biso   1.000  C
  C242     1.0000 0.27670  0.77670  0.75000  Biso   1.000  C
  C243     1.0000 0.22330  0.72330  0.75000  Biso   1.000  C
  C244     1.0000 0.72330  0.27670  0.75000  Biso   1.000  C
  C245     1.0000 0.27670  0.72330  0.25000  Biso   1.000  C
  C246     1.0000 0.77670  0.27670  0.25000  Biso   1.000  C
  C247     1.0000 0.72330  0.22330  0.25000  Biso   1.000  C
  C248     1.0000 0.22330  0.77670  0.25000  Biso   1.000  C
  C249     1.0000 0.76720  0.10200  0.86050  Biso   1.000  C
  C250     1.0000 0.39800  0.76720  0.86050  Biso   1.000  C
  C251     1.0000 0.10200  0.73280  0.86050  Biso   1.000  C
  C252     1.0000 0.60200  0.26720  0.63950  Biso   1.000  C
  C253     1.0000 0.26720  0.60200  0.13950  Biso   1.000  C
  C254     1.0000 0.76720  0.39800  0.36050  Biso   1.000  C
  C255     1.0000 0.73280  0.10200  0.36050  Biso   1.000  C
  C256     1.0000 0.10200  0.76720  0.36050  Biso   1.000  C
  C257     1.0000 0.23280  0.89800  0.13950  Biso   1.000  C
  C258     1.0000 0.60200  0.23280  0.13950  Biso   1.000  C
  C259     1.0000 0.89800  0.26720  0.13950  Biso   1.000  C
  C260     1.0000 0.39800  0.73280  0.36050  Biso   1.000  C
  C261     1.0000 0.73280  0.39800  0.86050  Biso   1.000  C
  C262     1.0000 0.23280  0.60200  0.63950  Biso   1.000  C
  C263     1.0000 0.26720  0.89800  0.63950  Biso   1.000  C
  C264     1.0000 0.89800  0.23280  0.63950  Biso   1.000  C
  C265     1.0000 0.76300  0.16890  0.82300  Biso   1.000  C
  C266     1.0000 0.33110  0.76300  0.82300  Biso   1.000  C
  C267     1.0000 0.16890  0.73700  0.82300  Biso   1.000  C
  C268     1.0000 0.66890  0.26300  0.67700  Biso   1.000  C
  C269     1.0000 0.26300  0.66890  0.17700  Biso   1.000  C
  C270     1.0000 0.76300  0.33110  0.32300  Biso   1.000  C
  C271     1.0000 0.73700  0.16890  0.32300  Biso   1.000  C
  C272     1.0000 0.16890  0.76300  0.32300  Biso   1.000  C
  C273     1.0000 0.23700  0.83110  0.17700  Biso   1.000  C
  C274     1.0000 0.66890  0.23700  0.17700  Biso   1.000  C
  C275     1.0000 0.83110  0.26300  0.17700  Biso   1.000  C
  C276     1.0000 0.33110  0.73700  0.32300  Biso   1.000  C
  C277     1.0000 0.73700  0.33110  0.82300  Biso   1.000  C
  C278     1.0000 0.23700  0.66890  0.67700  Biso   1.000  C
  C279     1.0000 0.26300  0.83110  0.67700  Biso   1.000  C
  C280     1.0000 0.83110  0.23700  0.67700  Biso   1.000  C
  C281     1.0000 0.81130  0.27640  0.72570  Biso   1.000  C
  C282     1.0000 0.22360  0.81130  0.72570  Biso   1.000  C
  C283     1.0000 0.27640  0.68870  0.72570  Biso   1.000  C
  C284     1.0000 0.77640  0.31130  0.77430  Biso   1.000  C
  C285     1.0000 0.31130  0.77640  0.27430  Biso   1.000  C
  C286     1.0000 0.81130  0.22360  0.22570  Biso   1.000  C
  C287     1.0000 0.68870  0.27640  0.22570  Biso   1.000  C
  C288     1.0000 0.27640  0.81130  0.22570  Biso   1.000  C
  C289     1.0000 0.18870  0.72360  0.27430  Biso   1.000  C
  C290     1.0000 0.77640  0.18870  0.27430  Biso   1.000  C
  C291     1.0000 0.72360  0.31130  0.27430  Biso   1.000  C
  C292     1.0000 0.22360  0.68870  0.22570  Biso   1.000  C
  C293     1.0000 0.68870  0.22360  0.72570  Biso   1.000  C
  C294     1.0000 0.18870  0.77640  0.77430  Biso   1.000  C
  C295     1.0000 0.31130  0.72360  0.77430  Biso   1.000  C
  C296     1.0000 0.72360  0.18870  0.77430  Biso   1.000  C
  C297     1.0000 0.76170  0.21180  0.89740  Biso   1.000  C
  C298     1.0000 0.28820  0.76170  0.89740  Biso   1.000  C
  C299     1.0000 0.21180  0.73830  0.89740  Biso   1.000  C
  C300     1.0000 0.71180  0.26170  0.60260  Biso   1.000  C
  C301     1.0000 0.26170  0.71180  0.10260  Biso   1.000  C
  C302     1.0000 0.76170  0.28820  0.39740  Biso   1.000  C
  C303     1.0000 0.73830  0.21180  0.39740  Biso   1.000  C
  C304     1.0000 0.21180  0.76170  0.39740  Biso   1.000  C
  C305     1.0000 0.23830  0.78820  0.10260  Biso   1.000  C
  C306     1.0000 0.71180  0.23830  0.10260  Biso   1.000  C
  C307     1.0000 0.78820  0.26170  0.10260  Biso   1.000  C
  C308     1.0000 0.28820  0.73830  0.39740  Biso   1.000  C
  C309     1.0000 0.73830  0.28820  0.89740  Biso   1.000  C
  C310     1.0000 0.23830  0.71180  0.60260  Biso   1.000  C
  C311     1.0000 0.26170  0.78820  0.60260  Biso   1.000  C
  C312     1.0000 0.78820  0.23830  0.60260  Biso   1.000  C
