data_image0
_cell_length_a       10.64
_cell_length_b       21.61
_cell_length_c       7.347
_cell_angle_alpha    90
_cell_angle_beta     133.67
_cell_angle_gamma    90

_symmetry_space_group_name_H-M    "P 1"
_symmetry_int_tables_number       1

loop_
  _symmetry_equiv_pos_as_xyz
  'x, y, z'

loop_
  _atom_site_label
  _atom_site_occupancy
  _atom_site_fract_x
  _atom_site_fract_y
  _atom_site_fract_z
  _atom_site_thermal_displace_type
  _atom_site_B_iso_or_equiv
  _atom_site_type_symbol
  Cu1      1.0000 0.00000  0.22111  0.75000  Biso   1.000  Cu
  Cu2      1.0000 0.50000  0.72111  0.75000  Biso   1.000  Cu
  Cu3      1.0000 0.00000  0.77889  0.25000  Biso   1.000  Cu
  Cu4      1.0000 0.50000  0.27889  0.25000  Biso   1.000  Cu
  Cl1      1.0000 0.86106  0.29253  0.78560  Biso   1.000  Cl
  Cl2      1.0000 0.13894  0.29253  0.71440  Biso   1.000  Cl
  Cl3      1.0000 0.36106  0.79253  0.78560  Biso   1.000  Cl
  Cl4      1.0000 0.63894  0.79253  0.71440  Biso   1.000  Cl
  Cl5      1.0000 0.13894  0.70747  0.21440  Biso   1.000  Cl
  Cl6      1.0000 0.86106  0.70747  0.28560  Biso   1.000  Cl
  Cl7      1.0000 0.63894  0.20747  0.21440  Biso   1.000  Cl
  Cl8      1.0000 0.36106  0.20747  0.28560  Biso   1.000  Cl
  C1       1.0000 0.22650  0.14550  0.72190  Biso   1.000  C
  C2       1.0000 0.77350  0.14550  0.77810  Biso   1.000  C
  C3       1.0000 0.72650  0.64550  0.72190  Biso   1.000  C
  C4       1.0000 0.27350  0.64550  0.77810  Biso   1.000  C
  C5       1.0000 0.77350  0.85450  0.27810  Biso   1.000  C
  C6       1.0000 0.22650  0.85450  0.22190  Biso   1.000  C
  C7       1.0000 0.27350  0.35450  0.27810  Biso   1.000  C
  C8       1.0000 0.72650  0.35450  0.22190  Biso   1.000  C
  N1       1.0000 0.07530  0.15380  0.65110  Biso   1.000  N
  N2       1.0000 0.92470  0.15380  0.84890  Biso   1.000  N
  N3       1.0000 0.57530  0.65380  0.65110  Biso   1.000  N
  N4       1.0000 0.42470  0.65380  0.84890  Biso   1.000  N
  N5       1.0000 0.92470  0.84620  0.34890  Biso   1.000  N
  N6       1.0000 0.07530  0.84620  0.15110  Biso   1.000  N
  N7       1.0000 0.42470  0.34620  0.34890  Biso   1.000  N
  N8       1.0000 0.57530  0.34620  0.15110  Biso   1.000  N
  N9       1.0000 0.98050  0.10180  0.52080  Biso   1.000  N
  N10      1.0000 0.01950  0.10180  0.97920  Biso   1.000  N
  N11      1.0000 0.48050  0.60180  0.52080  Biso   1.000  N
  N12      1.0000 0.51950  0.60180  0.97920  Biso   1.000  N
  N13      1.0000 0.01950  0.89820  0.47920  Biso   1.000  N
  N14      1.0000 0.98050  0.89820  0.02080  Biso   1.000  N
  N15      1.0000 0.51950  0.39820  0.47920  Biso   1.000  N
  N16      1.0000 0.48050  0.39820  0.02080  Biso   1.000  N
  N17      1.0000 0.06920  0.06400  0.51220  Biso   1.000  N
  N18      1.0000 0.93080  0.06400  0.98780  Biso   1.000  N
  N19      1.0000 0.56920  0.56400  0.51220  Biso   1.000  N
  N20      1.0000 0.43080  0.56400  0.98780  Biso   1.000  N
  N21      1.0000 0.93080  0.93600  0.48780  Biso   1.000  N
  N22      1.0000 0.06920  0.93600  0.01220  Biso   1.000  N
  N23      1.0000 0.43080  0.43600  0.48780  Biso   1.000  N
  N24      1.0000 0.56920  0.43600  0.01220  Biso   1.000  N
  N25      1.0000 0.22580  0.09040  0.63840  Biso   1.000  N
  N26      1.0000 0.77420  0.09040  0.86160  Biso   1.000  N
  N27      1.0000 0.72580  0.59040  0.63840  Biso   1.000  N
  N28      1.0000 0.27420  0.59040  0.86160  Biso   1.000  N
  N29      1.0000 0.77420  0.90960  0.36160  Biso   1.000  N
  N30      1.0000 0.22580  0.90960  0.13840  Biso   1.000  N
  N31      1.0000 0.27420  0.40960  0.36160  Biso   1.000  N
  N32      1.0000 0.72580  0.40960  0.13840  Biso   1.000  N
  C9       1.0000 0.36380  0.05720  0.68880  Biso   1.000  C
  C10      1.0000 0.63620  0.05720  0.81120  Biso   1.000  C
  C11      1.0000 0.86380  0.55720  0.68880  Biso   1.000  C
  C12      1.0000 0.13620  0.55720  0.81120  Biso   1.000  C
  C13      1.0000 0.63620  0.94280  0.31120  Biso   1.000  C
  C14      1.0000 0.36380  0.94280  0.18880  Biso   1.000  C
  C15      1.0000 0.13620  0.44280  0.31120  Biso   1.000  C
  C16      1.0000 0.86380  0.44280  0.18880  Biso   1.000  C
  C17      1.0000 0.50000  0.09130  0.75000  Biso   1.000  C
  C18      1.0000 0.00000  0.59130  0.75000  Biso   1.000  C
  C19      1.0000 0.50000  0.90870  0.25000  Biso   1.000  C
  C20      1.0000 0.00000  0.40870  0.25000  Biso   1.000  C
  H1       1.0000 0.50000  0.13430  0.75000  Biso   1.000  H
  H2       1.0000 0.00000  0.63430  0.75000  Biso   1.000  H
  H3       1.0000 0.50000  0.86570  0.25000  Biso   1.000  H
  H4       1.0000 0.00000  0.36570  0.25000  Biso   1.000  H
  C21      1.0000 0.36090  0.99340  0.68470  Biso   1.000  C
  C22      1.0000 0.63910  0.99340  0.81530  Biso   1.000  C
  C23      1.0000 0.86090  0.49340  0.68470  Biso   1.000  C
  C24      1.0000 0.13910  0.49340  0.81530  Biso   1.000  C
  C25      1.0000 0.63910  0.00660  0.31530  Biso   1.000  C
  C26      1.0000 0.36090  0.00660  0.18470  Biso   1.000  C
  C27      1.0000 0.13910  0.50660  0.31530  Biso   1.000  C
  C28      1.0000 0.86090  0.50660  0.18470  Biso   1.000  C
  H5       1.0000 0.26680  0.97190  0.63870  Biso   1.000  H
  H6       1.0000 0.73320  0.97190  0.86130  Biso   1.000  H
  H7       1.0000 0.76680  0.47190  0.63870  Biso   1.000  H
  H8       1.0000 0.23320  0.47190  0.86130  Biso   1.000  H
  H9       1.0000 0.73320  0.02810  0.36130  Biso   1.000  H
  H10      1.0000 0.26680  0.02810  0.13870  Biso   1.000  H
  H11      1.0000 0.23320  0.52810  0.36130  Biso   1.000  H
  H12      1.0000 0.76680  0.52810  0.13870  Biso   1.000  H
  C29      1.0000 0.50000  0.96200  0.75000  Biso   1.000  C
  C30      1.0000 0.00000  0.46200  0.75000  Biso   1.000  C
  C31      1.0000 0.50000  0.03800  0.25000  Biso   1.000  C
  C32      1.0000 0.00000  0.53800  0.25000  Biso   1.000  C
  H13      1.0000 0.50000  0.91900  0.75000  Biso   1.000  H
  H14      1.0000 0.00000  0.41900  0.75000  Biso   1.000  H
  H15      1.0000 0.50000  0.08100  0.25000  Biso   1.000  H
  H16      1.0000 0.00000  0.58100  0.25000  Biso   1.000  H
  H17      1.0000 0.31400  0.17000  0.83000  Biso   1.000  H
  H18      1.0000 0.68600  0.17000  0.67000  Biso   1.000  H
  H19      1.0000 0.81400  0.67000  0.83000  Biso   1.000  H
  H20      1.0000 0.18600  0.67000  0.67000  Biso   1.000  H
  H21      1.0000 0.68600  0.83000  0.17000  Biso   1.000  H
  H22      1.0000 0.31400  0.83000  0.33000  Biso   1.000  H
  H23      1.0000 0.18600  0.33000  0.17000  Biso   1.000  H
  H24      1.0000 0.81400  0.33000  0.33000  Biso   1.000  H
