data_image0
_cell_length_a       22.4693
_cell_length_b       14.3685
_cell_length_c       21.7069
_cell_angle_alpha    90
_cell_angle_beta     109.168
_cell_angle_gamma    90

_symmetry_space_group_name_H-M    "P 1"
_symmetry_int_tables_number       1

loop_
  _symmetry_equiv_pos_as_xyz
  'x, y, z'

loop_
  _atom_site_label
  _atom_site_occupancy
  _atom_site_fract_x
  _atom_site_fract_y
  _atom_site_fract_z
  _atom_site_thermal_displace_type
  _atom_site_B_iso_or_equiv
  _atom_site_type_symbol
  Cu1      1.0000 0.29023  0.84138  0.44356  Biso   1.000  Cu
  Cu2      1.0000 0.70977  0.84138  0.05644  Biso   1.000  Cu
  Cu3      1.0000 0.79023  0.34138  0.44356  Biso   1.000  Cu
  Cu4      1.0000 0.20977  0.34138  0.05644  Biso   1.000  Cu
  Cu5      1.0000 0.70977  0.15862  0.55644  Biso   1.000  Cu
  Cu6      1.0000 0.29023  0.15862  0.94356  Biso   1.000  Cu
  Cu7      1.0000 0.20977  0.65862  0.55644  Biso   1.000  Cu
  Cu8      1.0000 0.79023  0.65862  0.94356  Biso   1.000  Cu
  Cu9      1.0000 0.50382  0.90029  0.58836  Biso   1.000  Cu
  Cu10     1.0000 0.49618  0.90029  0.91164  Biso   1.000  Cu
  Cu11     1.0000 0.00382  0.40029  0.58836  Biso   1.000  Cu
  Cu12     1.0000 0.99618  0.40029  0.91164  Biso   1.000  Cu
  Cu13     1.0000 0.49618  0.09971  0.41164  Biso   1.000  Cu
  Cu14     1.0000 0.50382  0.09971  0.08836  Biso   1.000  Cu
  Cu15     1.0000 0.99618  0.59971  0.41164  Biso   1.000  Cu
  Cu16     1.0000 0.00382  0.59971  0.08836  Biso   1.000  Cu
  Cu17     1.0000 0.21354  0.66032  0.23924  Biso   1.000  Cu
  Cu18     1.0000 0.78646  0.66032  0.26076  Biso   1.000  Cu
  Cu19     1.0000 0.71354  0.16032  0.23924  Biso   1.000  Cu
  Cu20     1.0000 0.28646  0.16032  0.26076  Biso   1.000  Cu
  Cu21     1.0000 0.78646  0.33968  0.76076  Biso   1.000  Cu
  Cu22     1.0000 0.21354  0.33968  0.73924  Biso   1.000  Cu
  Cu23     1.0000 0.28646  0.83968  0.76076  Biso   1.000  Cu
  Cu24     1.0000 0.71354  0.83968  0.73924  Biso   1.000  Cu
  C1       1.0000 0.42104  0.87670  0.54109  Biso   1.000  C
  C2       1.0000 0.57896  0.87670  0.95891  Biso   1.000  C
  C3       1.0000 0.92104  0.37670  0.54109  Biso   1.000  C
  C4       1.0000 0.07896  0.37670  0.95891  Biso   1.000  C
  C5       1.0000 0.57896  0.12330  0.45891  Biso   1.000  C
  C6       1.0000 0.42104  0.12330  0.04109  Biso   1.000  C
  C7       1.0000 0.07896  0.62330  0.45891  Biso   1.000  C
  C8       1.0000 0.92104  0.62330  0.04109  Biso   1.000  C
  C9       1.0000 0.63667  0.85130  0.67420  Biso   1.000  C
  C10      1.0000 0.36333  0.85130  0.82580  Biso   1.000  C
  C11      1.0000 0.13667  0.35130  0.67420  Biso   1.000  C
  C12      1.0000 0.86333  0.35130  0.82580  Biso   1.000  C
  C13      1.0000 0.36333  0.14870  0.32580  Biso   1.000  C
  C14      1.0000 0.63667  0.14870  0.17420  Biso   1.000  C
  C15      1.0000 0.86333  0.64870  0.32580  Biso   1.000  C
  C16      1.0000 0.13667  0.64870  0.17420  Biso   1.000  C
  C17      1.0000 0.24638  0.72280  0.31850  Biso   1.000  C
  C18      1.0000 0.75362  0.72280  0.18150  Biso   1.000  C
  C19      1.0000 0.74638  0.22280  0.31850  Biso   1.000  C
  C20      1.0000 0.25362  0.22280  0.18150  Biso   1.000  C
  C21      1.0000 0.75362  0.27720  0.68150  Biso   1.000  C
  C22      1.0000 0.24638  0.27720  0.81850  Biso   1.000  C
  C23      1.0000 0.25362  0.77720  0.68150  Biso   1.000  C
  C24      1.0000 0.74638  0.77720  0.81850  Biso   1.000  C
  C25      1.0000 0.69050  0.80890  0.40490  Biso   1.000  C
  C26      1.0000 0.30950  0.80890  0.09510  Biso   1.000  C
  C27      1.0000 0.19050  0.30890  0.40490  Biso   1.000  C
  C28      1.0000 0.80950  0.30890  0.09510  Biso   1.000  C
  C29      1.0000 0.30950  0.19110  0.59510  Biso   1.000  C
  C30      1.0000 0.69050  0.19110  0.90490  Biso   1.000  C
  C31      1.0000 0.80950  0.69110  0.59510  Biso   1.000  C
  C32      1.0000 0.19050  0.69110  0.90490  Biso   1.000  C
  H1       1.0000 0.69920  0.74340  0.40650  Biso   1.000  H
  H2       1.0000 0.30080  0.74340  0.09350  Biso   1.000  H
  H3       1.0000 0.19920  0.24340  0.40650  Biso   1.000  H
  H4       1.0000 0.80080  0.24340  0.09350  Biso   1.000  H
  H5       1.0000 0.30080  0.25660  0.59350  Biso   1.000  H
  H6       1.0000 0.69920  0.25660  0.90650  Biso   1.000  H
  H7       1.0000 0.80080  0.75660  0.59350  Biso   1.000  H
  H8       1.0000 0.19920  0.75660  0.90650  Biso   1.000  H
  H9       1.0000 0.65600  0.82280  0.36610  Biso   1.000  H
  H10      1.0000 0.34400  0.82280  0.13390  Biso   1.000  H
  H11      1.0000 0.15600  0.32280  0.36610  Biso   1.000  H
  H12      1.0000 0.84400  0.32280  0.13390  Biso   1.000  H
  H13      1.0000 0.34400  0.17720  0.63390  Biso   1.000  H
  H14      1.0000 0.65600  0.17720  0.86610  Biso   1.000  H
  H15      1.0000 0.84400  0.67720  0.63390  Biso   1.000  H
  H16      1.0000 0.15600  0.67720  0.86610  Biso   1.000  H
  H17      1.0000 0.67960  0.82660  0.44250  Biso   1.000  H
  H18      1.0000 0.32040  0.82660  0.05750  Biso   1.000  H
  H19      1.0000 0.17960  0.32660  0.44250  Biso   1.000  H
  H20      1.0000 0.82040  0.32660  0.05750  Biso   1.000  H
  H21      1.0000 0.32040  0.17340  0.55750  Biso   1.000  H
  H22      1.0000 0.67960  0.17340  0.94250  Biso   1.000  H
  H23      1.0000 0.82040  0.67340  0.55750  Biso   1.000  H
  H24      1.0000 0.17960  0.67340  0.94250  Biso   1.000  H
  C33      1.0000 0.74760  0.86180  0.40410  Biso   1.000  C
  C34      1.0000 0.25240  0.86180  0.09590  Biso   1.000  C
  C35      1.0000 0.24760  0.36180  0.40410  Biso   1.000  C
  C36      1.0000 0.75240  0.36180  0.09590  Biso   1.000  C
  C37      1.0000 0.25240  0.13820  0.59590  Biso   1.000  C
  C38      1.0000 0.74760  0.13820  0.90410  Biso   1.000  C
  C39      1.0000 0.75240  0.63820  0.59590  Biso   1.000  C
  C40      1.0000 0.24760  0.63820  0.90410  Biso   1.000  C
  C41      1.0000 0.80250  0.81630  0.40740  Biso   1.000  C
  C42      1.0000 0.19750  0.81630  0.09260  Biso   1.000  C
  C43      1.0000 0.30250  0.31630  0.40740  Biso   1.000  C
  C44      1.0000 0.69750  0.31630  0.09260  Biso   1.000  C
  C45      1.0000 0.19750  0.18370  0.59260  Biso   1.000  C
  C46      1.0000 0.80250  0.18370  0.90740  Biso   1.000  C
  C47      1.0000 0.69750  0.68370  0.59260  Biso   1.000  C
  C48      1.0000 0.30250  0.68370  0.90740  Biso   1.000  C
  H25      1.0000 0.80320  0.75160  0.40850  Biso   1.000  H
  H26      1.0000 0.19680  0.75160  0.09150  Biso   1.000  H
  H27      1.0000 0.30320  0.25160  0.40850  Biso   1.000  H
  H28      1.0000 0.69680  0.25160  0.09150  Biso   1.000  H
  H29      1.0000 0.19680  0.24840  0.59150  Biso   1.000  H
  H30      1.0000 0.80320  0.24840  0.90850  Biso   1.000  H
  H31      1.0000 0.69680  0.74840  0.59150  Biso   1.000  H
  H32      1.0000 0.30320  0.74840  0.90850  Biso   1.000  H
  C49      1.0000 0.85640  0.86330  0.40890  Biso   1.000  C
  C50      1.0000 0.14360  0.86330  0.09110  Biso   1.000  C
  C51      1.0000 0.35640  0.36330  0.40890  Biso   1.000  C
  C52      1.0000 0.64360  0.36330  0.09110  Biso   1.000  C
  C53      1.0000 0.14360  0.13670  0.59110  Biso   1.000  C
  C54      1.0000 0.85640  0.13670  0.90890  Biso   1.000  C
  C55      1.0000 0.64360  0.63670  0.59110  Biso   1.000  C
  C56      1.0000 0.35640  0.63670  0.90890  Biso   1.000  C
  H33      1.0000 0.89260  0.82980  0.41160  Biso   1.000  H
  H34      1.0000 0.10740  0.82980  0.08840  Biso   1.000  H
  H35      1.0000 0.39260  0.32980  0.41160  Biso   1.000  H
  H36      1.0000 0.60740  0.32980  0.08840  Biso   1.000  H
  H37      1.0000 0.10740  0.17020  0.58840  Biso   1.000  H
  H38      1.0000 0.89260  0.17020  0.91160  Biso   1.000  H
  H39      1.0000 0.60740  0.67020  0.58840  Biso   1.000  H
  H40      1.0000 0.39260  0.67020  0.91160  Biso   1.000  H
  C57      1.0000 0.85769  0.95910  0.40664  Biso   1.000  C
  C58      1.0000 0.14231  0.95910  0.09336  Biso   1.000  C
  C59      1.0000 0.35769  0.45910  0.40664  Biso   1.000  C
  C60      1.0000 0.64231  0.45910  0.09336  Biso   1.000  C
  C61      1.0000 0.14231  0.04090  0.59336  Biso   1.000  C
  C62      1.0000 0.85769  0.04090  0.90664  Biso   1.000  C
  C63      1.0000 0.64231  0.54090  0.59336  Biso   1.000  C
  C64      1.0000 0.35769  0.54090  0.90664  Biso   1.000  C
  C65      1.0000 0.80210  0.00460  0.40220  Biso   1.000  C
  C66      1.0000 0.19790  0.00460  0.09780  Biso   1.000  C
  C67      1.0000 0.30210  0.50460  0.40220  Biso   1.000  C
  C68      1.0000 0.69790  0.50460  0.09780  Biso   1.000  C
  C69      1.0000 0.19790  0.99540  0.59780  Biso   1.000  C
  C70      1.0000 0.80210  0.99540  0.90220  Biso   1.000  C
  C71      1.0000 0.69790  0.49540  0.59780  Biso   1.000  C
  C72      1.0000 0.30210  0.49540  0.90220  Biso   1.000  C
  H41      1.0000 0.80090  0.06930  0.39990  Biso   1.000  H
  H42      1.0000 0.19910  0.06930  0.10010  Biso   1.000  H
  H43      1.0000 0.30090  0.56930  0.39990  Biso   1.000  H
  H44      1.0000 0.69910  0.56930  0.10010  Biso   1.000  H
  H45      1.0000 0.19910  0.93070  0.60010  Biso   1.000  H
  H46      1.0000 0.80090  0.93070  0.89990  Biso   1.000  H
  H47      1.0000 0.69910  0.43070  0.60010  Biso   1.000  H
  H48      1.0000 0.30090  0.43070  0.89990  Biso   1.000  H
  C73      1.0000 0.74920  0.95750  0.40110  Biso   1.000  C
  C74      1.0000 0.25080  0.95750  0.09890  Biso   1.000  C
  C75      1.0000 0.24920  0.45750  0.40110  Biso   1.000  C
  C76      1.0000 0.75080  0.45750  0.09890  Biso   1.000  C
  C77      1.0000 0.25080  0.04250  0.59890  Biso   1.000  C
  C78      1.0000 0.74920  0.04250  0.90110  Biso   1.000  C
  C79      1.0000 0.75080  0.54250  0.59890  Biso   1.000  C
  C80      1.0000 0.24920  0.54250  0.90110  Biso   1.000  C
  H49      1.0000 0.71290  0.99100  0.39810  Biso   1.000  H
  H50      1.0000 0.28710  0.99100  0.10190  Biso   1.000  H
  H51      1.0000 0.21290  0.49100  0.39810  Biso   1.000  H
  H52      1.0000 0.78710  0.49100  0.10190  Biso   1.000  H
  H53      1.0000 0.28710  0.00900  0.60190  Biso   1.000  H
  H54      1.0000 0.71290  0.00900  0.89810  Biso   1.000  H
  H55      1.0000 0.78710  0.50900  0.60190  Biso   1.000  H
  H56      1.0000 0.21290  0.50900  0.89810  Biso   1.000  H
  C81      1.0000 0.91558  0.01170  0.41032  Biso   1.000  C
  C82      1.0000 0.08442  0.01170  0.08968  Biso   1.000  C
  C83      1.0000 0.41558  0.51170  0.41032  Biso   1.000  C
  C84      1.0000 0.58442  0.51170  0.08968  Biso   1.000  C
  C85      1.0000 0.08442  0.98830  0.58968  Biso   1.000  C
  C86      1.0000 0.91558  0.98830  0.91032  Biso   1.000  C
  C87      1.0000 0.58442  0.48830  0.58968  Biso   1.000  C
  C88      1.0000 0.41558  0.48830  0.91032  Biso   1.000  C
  C89      1.0000 0.97181  0.96750  0.41397  Biso   1.000  C
  C90      1.0000 0.02819  0.96750  0.08603  Biso   1.000  C
  C91      1.0000 0.47181  0.46750  0.41397  Biso   1.000  C
  C92      1.0000 0.52819  0.46750  0.08603  Biso   1.000  C
  C93      1.0000 0.02819  0.03250  0.58603  Biso   1.000  C
  C94      1.0000 0.97181  0.03250  0.91397  Biso   1.000  C
  C95      1.0000 0.52819  0.53250  0.58603  Biso   1.000  C
  C96      1.0000 0.47181  0.53250  0.91397  Biso   1.000  C
  H57      1.0000 0.97330  0.90280  0.41320  Biso   1.000  H
  H58      1.0000 0.02670  0.90280  0.08680  Biso   1.000  H
  H59      1.0000 0.47330  0.40280  0.41320  Biso   1.000  H
  H60      1.0000 0.52670  0.40280  0.08680  Biso   1.000  H
  H61      1.0000 0.02670  0.09720  0.58680  Biso   1.000  H
  H62      1.0000 0.97330  0.09720  0.91320  Biso   1.000  H
  H63      1.0000 0.52670  0.59720  0.58680  Biso   1.000  H
  H64      1.0000 0.47330  0.59720  0.91320  Biso   1.000  H
  C97      1.0000 0.02558  0.01820  0.41870  Biso   1.000  C
  C98      1.0000 0.97442  0.01820  0.08130  Biso   1.000  C
  C99      1.0000 0.52558  0.51820  0.41870  Biso   1.000  C
  C100     1.0000 0.47442  0.51820  0.08130  Biso   1.000  C
  C101     1.0000 0.97442  0.98180  0.58130  Biso   1.000  C
  C102     1.0000 0.02558  0.98180  0.91870  Biso   1.000  C
  C103     1.0000 0.47442  0.48180  0.58130  Biso   1.000  C
  C104     1.0000 0.52558  0.48180  0.91870  Biso   1.000  C
  C105     1.0000 0.97247  0.15540  0.41519  Biso   1.000  C
  C106     1.0000 0.02753  0.15540  0.08481  Biso   1.000  C
  C107     1.0000 0.47247  0.65540  0.41519  Biso   1.000  C
  C108     1.0000 0.52753  0.65540  0.08481  Biso   1.000  C
  C109     1.0000 0.02753  0.84460  0.58481  Biso   1.000  C
  C110     1.0000 0.97247  0.84460  0.91519  Biso   1.000  C
  C111     1.0000 0.52753  0.34460  0.58481  Biso   1.000  C
  C112     1.0000 0.47247  0.34460  0.91519  Biso   1.000  C
  C113     1.0000 0.91773  0.10870  0.41102  Biso   1.000  C
  C114     1.0000 0.08227  0.10870  0.08898  Biso   1.000  C
  C115     1.0000 0.41773  0.60870  0.41102  Biso   1.000  C
  C116     1.0000 0.58227  0.60870  0.08898  Biso   1.000  C
  C117     1.0000 0.08227  0.89130  0.58898  Biso   1.000  C
  C118     1.0000 0.91773  0.89130  0.91102  Biso   1.000  C
  C119     1.0000 0.58227  0.39130  0.58898  Biso   1.000  C
  C120     1.0000 0.41773  0.39130  0.91102  Biso   1.000  C
  H65      1.0000 0.88170  0.14240  0.40870  Biso   1.000  H
  H66      1.0000 0.11830  0.14240  0.09130  Biso   1.000  H
  H67      1.0000 0.38170  0.64240  0.40870  Biso   1.000  H
  H68      1.0000 0.61830  0.64240  0.09130  Biso   1.000  H
  H69      1.0000 0.11830  0.85760  0.59130  Biso   1.000  H
  H70      1.0000 0.88170  0.85760  0.90870  Biso   1.000  H
  H71      1.0000 0.61830  0.35760  0.59130  Biso   1.000  H
  H72      1.0000 0.38170  0.35760  0.90870  Biso   1.000  H
  C121     1.0000 0.08725  0.97450  0.42406  Biso   1.000  C
  C122     1.0000 0.91275  0.97450  0.07594  Biso   1.000  C
  C123     1.0000 0.58725  0.47450  0.42406  Biso   1.000  C
  C124     1.0000 0.41275  0.47450  0.07594  Biso   1.000  C
  C125     1.0000 0.91275  0.02550  0.57594  Biso   1.000  C
  C126     1.0000 0.08725  0.02550  0.92406  Biso   1.000  C
  C127     1.0000 0.41275  0.52550  0.57594  Biso   1.000  C
  C128     1.0000 0.58725  0.52550  0.92406  Biso   1.000  C
  C129     1.0000 0.09750  0.87980  0.42500  Biso   1.000  C
  C130     1.0000 0.90250  0.87980  0.07500  Biso   1.000  C
  C131     1.0000 0.59750  0.37980  0.42500  Biso   1.000  C
  C132     1.0000 0.40250  0.37980  0.07500  Biso   1.000  C
  C133     1.0000 0.90250  0.12020  0.57500  Biso   1.000  C
  C134     1.0000 0.09750  0.12020  0.92500  Biso   1.000  C
  C135     1.0000 0.40250  0.62020  0.57500  Biso   1.000  C
  C136     1.0000 0.59750  0.62020  0.92500  Biso   1.000  C
  H73      1.0000 0.06440  0.83890  0.42150  Biso   1.000  H
  H74      1.0000 0.93560  0.83890  0.07850  Biso   1.000  H
  H75      1.0000 0.56440  0.33890  0.42150  Biso   1.000  H
  H76      1.0000 0.43560  0.33890  0.07850  Biso   1.000  H
  H77      1.0000 0.93560  0.16110  0.57850  Biso   1.000  H
  H78      1.0000 0.06440  0.16110  0.92150  Biso   1.000  H
  H79      1.0000 0.43560  0.66110  0.57850  Biso   1.000  H
  H80      1.0000 0.56440  0.66110  0.92150  Biso   1.000  H
  C137     1.0000 0.15600  0.84580  0.43110  Biso   1.000  C
  C138     1.0000 0.84400  0.84580  0.06890  Biso   1.000  C
  C139     1.0000 0.65600  0.34580  0.43110  Biso   1.000  C
  C140     1.0000 0.34400  0.34580  0.06890  Biso   1.000  C
  C141     1.0000 0.84400  0.15420  0.56890  Biso   1.000  C
  C142     1.0000 0.15600  0.15420  0.93110  Biso   1.000  C
  C143     1.0000 0.34400  0.65420  0.56890  Biso   1.000  C
  C144     1.0000 0.65600  0.65420  0.93110  Biso   1.000  C
  H81      1.0000 0.16110  0.78160  0.43060  Biso   1.000  H
  H82      1.0000 0.83890  0.78160  0.06940  Biso   1.000  H
  H83      1.0000 0.66110  0.28160  0.43060  Biso   1.000  H
  H84      1.0000 0.33890  0.28160  0.06940  Biso   1.000  H
  H85      1.0000 0.83890  0.21840  0.56940  Biso   1.000  H
  H86      1.0000 0.16110  0.21840  0.93060  Biso   1.000  H
  H87      1.0000 0.33890  0.71840  0.56940  Biso   1.000  H
  H88      1.0000 0.66110  0.71840  0.93060  Biso   1.000  H
  C145     1.0000 0.19630  0.99090  0.43660  Biso   1.000  C
  C146     1.0000 0.80370  0.99090  0.06340  Biso   1.000  C
  C147     1.0000 0.69630  0.49090  0.43660  Biso   1.000  C
  C148     1.0000 0.30370  0.49090  0.06340  Biso   1.000  C
  C149     1.0000 0.80370  0.00910  0.56340  Biso   1.000  C
  C150     1.0000 0.19630  0.00910  0.93660  Biso   1.000  C
  C151     1.0000 0.30370  0.50910  0.56340  Biso   1.000  C
  C152     1.0000 0.69630  0.50910  0.93660  Biso   1.000  C
  H89      1.0000 0.23020  0.03040  0.44090  Biso   1.000  H
  H90      1.0000 0.76980  0.03040  0.05910  Biso   1.000  H
  H91      1.0000 0.73020  0.53040  0.44090  Biso   1.000  H
  H92      1.0000 0.26980  0.53040  0.05910  Biso   1.000  H
  H93      1.0000 0.76980  0.96960  0.55910  Biso   1.000  H
  H94      1.0000 0.23020  0.96960  0.94090  Biso   1.000  H
  H95      1.0000 0.26980  0.46960  0.55910  Biso   1.000  H
  H96      1.0000 0.73020  0.46960  0.94090  Biso   1.000  H
  C153     1.0000 0.13870  0.02980  0.42940  Biso   1.000  C
  C154     1.0000 0.86130  0.02980  0.07060  Biso   1.000  C
  C155     1.0000 0.63870  0.52980  0.42940  Biso   1.000  C
  C156     1.0000 0.36130  0.52980  0.07060  Biso   1.000  C
  C157     1.0000 0.86130  0.97020  0.57060  Biso   1.000  C
  C158     1.0000 0.13870  0.97020  0.92940  Biso   1.000  C
  C159     1.0000 0.36130  0.47020  0.57060  Biso   1.000  C
  C160     1.0000 0.63870  0.47020  0.92940  Biso   1.000  C
  H97      1.0000 0.13440  0.09420  0.42800  Biso   1.000  H
  H98      1.0000 0.86560  0.09420  0.07200  Biso   1.000  H
  H99      1.0000 0.63440  0.59420  0.42800  Biso   1.000  H
  H100     1.0000 0.36560  0.59420  0.07200  Biso   1.000  H
  H101     1.0000 0.86560  0.90580  0.57200  Biso   1.000  H
  H102     1.0000 0.13440  0.90580  0.92800  Biso   1.000  H
  H103     1.0000 0.36560  0.40580  0.57200  Biso   1.000  H
  H104     1.0000 0.63440  0.40580  0.92800  Biso   1.000  H
  C161     1.0000 0.97642  0.25920  0.41580  Biso   1.000  C
  C162     1.0000 0.02358  0.25920  0.08420  Biso   1.000  C
  C163     1.0000 0.47642  0.75920  0.41580  Biso   1.000  C
  C164     1.0000 0.52358  0.75920  0.08420  Biso   1.000  C
  C165     1.0000 0.02358  0.74080  0.58420  Biso   1.000  C
  C166     1.0000 0.97642  0.74080  0.91580  Biso   1.000  C
  C167     1.0000 0.52358  0.24080  0.58420  Biso   1.000  C
  C168     1.0000 0.47642  0.24080  0.91580  Biso   1.000  C
  C169     1.0000 0.03186  0.30410  0.44900  Biso   1.000  C
  C170     1.0000 0.96814  0.30410  0.05100  Biso   1.000  C
  C171     1.0000 0.53186  0.80410  0.44900  Biso   1.000  C
  C172     1.0000 0.46814  0.80410  0.05100  Biso   1.000  C
  C173     1.0000 0.96814  0.69590  0.55100  Biso   1.000  C
  C174     1.0000 0.03186  0.69590  0.94900  Biso   1.000  C
  C175     1.0000 0.46814  0.19590  0.55100  Biso   1.000  C
  C176     1.0000 0.53186  0.19590  0.94900  Biso   1.000  C
  H105     1.0000 0.06730  0.26970  0.47180  Biso   1.000  H
  H106     1.0000 0.93270  0.26970  0.02820  Biso   1.000  H
  H107     1.0000 0.56730  0.76970  0.47180  Biso   1.000  H
  H108     1.0000 0.43270  0.76970  0.02820  Biso   1.000  H
  H109     1.0000 0.93270  0.73030  0.52820  Biso   1.000  H
  H110     1.0000 0.06730  0.73030  0.97180  Biso   1.000  H
  H111     1.0000 0.43270  0.23030  0.52820  Biso   1.000  H
  H112     1.0000 0.56730  0.23030  0.97180  Biso   1.000  H
  C177     1.0000 0.03491  0.39940  0.44860  Biso   1.000  C
  C178     1.0000 0.96509  0.39940  0.05140  Biso   1.000  C
  C179     1.0000 0.53491  0.89940  0.44860  Biso   1.000  C
  C180     1.0000 0.46509  0.89940  0.05140  Biso   1.000  C
  C181     1.0000 0.96509  0.60060  0.55140  Biso   1.000  C
  C182     1.0000 0.03491  0.60060  0.94860  Biso   1.000  C
  C183     1.0000 0.46509  0.10060  0.55140  Biso   1.000  C
  C184     1.0000 0.53491  0.10060  0.94860  Biso   1.000  C
  H113     1.0000 0.07250  0.42800  0.47260  Biso   1.000  H
  H114     1.0000 0.92750  0.42800  0.02740  Biso   1.000  H
  H115     1.0000 0.57250  0.92800  0.47260  Biso   1.000  H
  H116     1.0000 0.42750  0.92800  0.02740  Biso   1.000  H
  H117     1.0000 0.92750  0.57200  0.52740  Biso   1.000  H
  H118     1.0000 0.07250  0.57200  0.97260  Biso   1.000  H
  H119     1.0000 0.42750  0.07200  0.52740  Biso   1.000  H
  H120     1.0000 0.57250  0.07200  0.97260  Biso   1.000  H
  C185     1.0000 0.93307  0.40930  0.38310  Biso   1.000  C
  C186     1.0000 0.06693  0.40930  0.11690  Biso   1.000  C
  C187     1.0000 0.43307  0.90930  0.38310  Biso   1.000  C
  C188     1.0000 0.56693  0.90930  0.11690  Biso   1.000  C
  C189     1.0000 0.06693  0.59070  0.61690  Biso   1.000  C
  C190     1.0000 0.93307  0.59070  0.88310  Biso   1.000  C
  C191     1.0000 0.56693  0.09070  0.61690  Biso   1.000  C
  C192     1.0000 0.43307  0.09070  0.88310  Biso   1.000  C
  H121     1.0000 0.89860  0.44510  0.35970  Biso   1.000  H
  H122     1.0000 0.10140  0.44510  0.14030  Biso   1.000  H
  H123     1.0000 0.39860  0.94510  0.35970  Biso   1.000  H
  H124     1.0000 0.60140  0.94510  0.14030  Biso   1.000  H
  H125     1.0000 0.10140  0.55490  0.64030  Biso   1.000  H
  H126     1.0000 0.89860  0.55490  0.85970  Biso   1.000  H
  H127     1.0000 0.60140  0.05490  0.64030  Biso   1.000  H
  H128     1.0000 0.39860  0.05490  0.85970  Biso   1.000  H
  C193     1.0000 0.92596  0.31490  0.38240  Biso   1.000  C
  C194     1.0000 0.07404  0.31490  0.11760  Biso   1.000  C
  C195     1.0000 0.42596  0.81490  0.38240  Biso   1.000  C
  C196     1.0000 0.57404  0.81490  0.11760  Biso   1.000  C
  C197     1.0000 0.07404  0.68510  0.61760  Biso   1.000  C
  C198     1.0000 0.92596  0.68510  0.88240  Biso   1.000  C
  C199     1.0000 0.57404  0.18510  0.61760  Biso   1.000  C
  C200     1.0000 0.42596  0.18510  0.88240  Biso   1.000  C
  H129     1.0000 0.88730  0.28810  0.35940  Biso   1.000  H
  H130     1.0000 0.11270  0.28810  0.14060  Biso   1.000  H
  H131     1.0000 0.38730  0.78810  0.35940  Biso   1.000  H
  H132     1.0000 0.61270  0.78810  0.14060  Biso   1.000  H
  H133     1.0000 0.11270  0.71190  0.64060  Biso   1.000  H
  H134     1.0000 0.88730  0.71190  0.85940  Biso   1.000  H
  H135     1.0000 0.61270  0.21190  0.64060  Biso   1.000  H
  H136     1.0000 0.38730  0.21190  0.85940  Biso   1.000  H
  C201     1.0000 0.34280  0.61630  0.23790  Biso   1.000  C
  C202     1.0000 0.65720  0.61630  0.26210  Biso   1.000  C
  C203     1.0000 0.84280  0.11630  0.23790  Biso   1.000  C
  C204     1.0000 0.15720  0.11630  0.26210  Biso   1.000  C
  C205     1.0000 0.65720  0.38370  0.76210  Biso   1.000  C
  C206     1.0000 0.34280  0.38370  0.73790  Biso   1.000  C
  C207     1.0000 0.15720  0.88370  0.76210  Biso   1.000  C
  C208     1.0000 0.84280  0.88370  0.73790  Biso   1.000  C
  H137     1.0000 0.34690  0.68080  0.24040  Biso   1.000  H
  H138     1.0000 0.65310  0.68080  0.25960  Biso   1.000  H
  H139     1.0000 0.84690  0.18080  0.24040  Biso   1.000  H
  H140     1.0000 0.15310  0.18080  0.25960  Biso   1.000  H
  H141     1.0000 0.65310  0.31920  0.75960  Biso   1.000  H
  H142     1.0000 0.34690  0.31920  0.74040  Biso   1.000  H
  H143     1.0000 0.15310  0.81920  0.75960  Biso   1.000  H
  H144     1.0000 0.84690  0.81920  0.74040  Biso   1.000  H
  C209     1.0000 0.39560  0.56450  0.24300  Biso   1.000  C
  C210     1.0000 0.60440  0.56450  0.25700  Biso   1.000  C
  C211     1.0000 0.89560  0.06450  0.24300  Biso   1.000  C
  C212     1.0000 0.10440  0.06450  0.25700  Biso   1.000  C
  C213     1.0000 0.60440  0.43550  0.75700  Biso   1.000  C
  C214     1.0000 0.39560  0.43550  0.74300  Biso   1.000  C
  C215     1.0000 0.10440  0.93550  0.75700  Biso   1.000  C
  C216     1.0000 0.89560  0.93550  0.74300  Biso   1.000  C
  H145     1.0000 0.43390  0.59380  0.24820  Biso   1.000  H
  H146     1.0000 0.56610  0.59380  0.25180  Biso   1.000  H
  H147     1.0000 0.93390  0.09380  0.24820  Biso   1.000  H
  H148     1.0000 0.06610  0.09380  0.25180  Biso   1.000  H
  H149     1.0000 0.56610  0.40620  0.75180  Biso   1.000  H
  H150     1.0000 0.43390  0.40620  0.74820  Biso   1.000  H
  H151     1.0000 0.06610  0.90620  0.75180  Biso   1.000  H
  H152     1.0000 0.93390  0.90620  0.74820  Biso   1.000  H
  C217     1.0000 0.39155  0.46870  0.24047  Biso   1.000  C
  C218     1.0000 0.60845  0.46870  0.25953  Biso   1.000  C
  C219     1.0000 0.89155  0.96870  0.24047  Biso   1.000  C
  C220     1.0000 0.10845  0.96870  0.25953  Biso   1.000  C
  C221     1.0000 0.60845  0.53130  0.75953  Biso   1.000  C
  C222     1.0000 0.39155  0.53130  0.74047  Biso   1.000  C
  C223     1.0000 0.10845  0.03130  0.75953  Biso   1.000  C
  C224     1.0000 0.89155  0.03130  0.74047  Biso   1.000  C
  C225     1.0000 0.33350  0.43110  0.23340  Biso   1.000  C
  C226     1.0000 0.66650  0.43110  0.26660  Biso   1.000  C
  C227     1.0000 0.83350  0.93110  0.23340  Biso   1.000  C
  C228     1.0000 0.16650  0.93110  0.26660  Biso   1.000  C
  C229     1.0000 0.66650  0.56890  0.76660  Biso   1.000  C
  C230     1.0000 0.33350  0.56890  0.73340  Biso   1.000  C
  C231     1.0000 0.16650  0.06890  0.76660  Biso   1.000  C
  C232     1.0000 0.83350  0.06890  0.73340  Biso   1.000  C
  H153     1.0000 0.32850  0.36690  0.23280  Biso   1.000  H
  H154     1.0000 0.67150  0.36690  0.26720  Biso   1.000  H
  H155     1.0000 0.82850  0.86690  0.23280  Biso   1.000  H
  H156     1.0000 0.17150  0.86690  0.26720  Biso   1.000  H
  H157     1.0000 0.67150  0.63310  0.76720  Biso   1.000  H
  H158     1.0000 0.32850  0.63310  0.73280  Biso   1.000  H
  H159     1.0000 0.17150  0.13310  0.76720  Biso   1.000  H
  H160     1.0000 0.82850  0.13310  0.73280  Biso   1.000  H
  C233     1.0000 0.28270  0.48870  0.22720  Biso   1.000  C
  C234     1.0000 0.71730  0.48870  0.27280  Biso   1.000  C
  C235     1.0000 0.78270  0.98870  0.22720  Biso   1.000  C
  C236     1.0000 0.21730  0.98870  0.27280  Biso   1.000  C
  C237     1.0000 0.71730  0.51130  0.77280  Biso   1.000  C
  C238     1.0000 0.28270  0.51130  0.72720  Biso   1.000  C
  C239     1.0000 0.21730  0.01130  0.77280  Biso   1.000  C
  C240     1.0000 0.78270  0.01130  0.72720  Biso   1.000  C
  H161     1.0000 0.24370  0.46130  0.22090  Biso   1.000  H
  H162     1.0000 0.75630  0.46130  0.27910  Biso   1.000  H
  H163     1.0000 0.74370  0.96130  0.22090  Biso   1.000  H
  H164     1.0000 0.25630  0.96130  0.27910  Biso   1.000  H
  H165     1.0000 0.75630  0.53870  0.77910  Biso   1.000  H
  H166     1.0000 0.24370  0.53870  0.72090  Biso   1.000  H
  H167     1.0000 0.25630  0.03870  0.77910  Biso   1.000  H
  H168     1.0000 0.74370  0.03870  0.72090  Biso   1.000  H
  C241     1.0000 0.44749  0.41100  0.24570  Biso   1.000  C
  C242     1.0000 0.55251  0.41100  0.25430  Biso   1.000  C
  C243     1.0000 0.94749  0.91100  0.24570  Biso   1.000  C
  C244     1.0000 0.05251  0.91100  0.25430  Biso   1.000  C
  C245     1.0000 0.55251  0.58900  0.75430  Biso   1.000  C
  C246     1.0000 0.44749  0.58900  0.74570  Biso   1.000  C
  C247     1.0000 0.05251  0.08900  0.75430  Biso   1.000  C
  C248     1.0000 0.94749  0.08900  0.74570  Biso   1.000  C
  C249     1.0000 0.44650  0.31420  0.24650  Biso   1.000  C
  C250     1.0000 0.55350  0.31420  0.25350  Biso   1.000  C
  C251     1.0000 0.94650  0.81420  0.24650  Biso   1.000  C
  C252     1.0000 0.05350  0.81420  0.25350  Biso   1.000  C
  C253     1.0000 0.55350  0.68580  0.75350  Biso   1.000  C
  C254     1.0000 0.44650  0.68580  0.74650  Biso   1.000  C
  C255     1.0000 0.05350  0.18580  0.75350  Biso   1.000  C
  C256     1.0000 0.94650  0.18580  0.74650  Biso   1.000  C
  H169     1.0000 0.40950  0.28350  0.24460  Biso   1.000  H
  H170     1.0000 0.59050  0.28350  0.25540  Biso   1.000  H
  H171     1.0000 0.90950  0.78350  0.24460  Biso   1.000  H
  H172     1.0000 0.09050  0.78350  0.25540  Biso   1.000  H
  H173     1.0000 0.59050  0.71650  0.75540  Biso   1.000  H
  H174     1.0000 0.40950  0.71650  0.74460  Biso   1.000  H
  H175     1.0000 0.09050  0.21650  0.75540  Biso   1.000  H
  H176     1.0000 0.90950  0.21650  0.74460  Biso   1.000  H
  C257     1.0000 0.50000  0.26270  0.25000  Biso   1.000  C
  C258     1.0000 0.00000  0.76270  0.25000  Biso   1.000  C
  C259     1.0000 0.50000  0.73730  0.75000  Biso   1.000  C
  C260     1.0000 0.00000  0.23730  0.75000  Biso   1.000  C
  C261     1.0000 0.50000  0.15990  0.25000  Biso   1.000  C
  C262     1.0000 0.00000  0.65990  0.25000  Biso   1.000  C
  C263     1.0000 0.50000  0.84010  0.75000  Biso   1.000  C
  C264     1.0000 0.00000  0.34010  0.75000  Biso   1.000  C
  C265     1.0000 0.55150  0.11020  0.28760  Biso   1.000  C
  C266     1.0000 0.44850  0.11020  0.21240  Biso   1.000  C
  C267     1.0000 0.05150  0.61020  0.28760  Biso   1.000  C
  C268     1.0000 0.94850  0.61020  0.21240  Biso   1.000  C
  C269     1.0000 0.44850  0.88980  0.71240  Biso   1.000  C
  C270     1.0000 0.55150  0.88980  0.78760  Biso   1.000  C
  C271     1.0000 0.94850  0.38980  0.71240  Biso   1.000  C
  C272     1.0000 0.05150  0.38980  0.78760  Biso   1.000  C
  H177     1.0000 0.58710  0.14180  0.31350  Biso   1.000  H
  H178     1.0000 0.41290  0.14180  0.18650  Biso   1.000  H
  H179     1.0000 0.08710  0.64180  0.31350  Biso   1.000  H
  H180     1.0000 0.91290  0.64180  0.18650  Biso   1.000  H
  H181     1.0000 0.41290  0.85820  0.68650  Biso   1.000  H
  H182     1.0000 0.58710  0.85820  0.81350  Biso   1.000  H
  H183     1.0000 0.91290  0.35820  0.68650  Biso   1.000  H
  H184     1.0000 0.08710  0.35820  0.81350  Biso   1.000  H
  C273     1.0000 0.55090  0.01420  0.28750  Biso   1.000  C
  C274     1.0000 0.44910  0.01420  0.21250  Biso   1.000  C
  C275     1.0000 0.05090  0.51420  0.28750  Biso   1.000  C
  C276     1.0000 0.94910  0.51420  0.21250  Biso   1.000  C
  C277     1.0000 0.44910  0.98580  0.71250  Biso   1.000  C
  C278     1.0000 0.55090  0.98580  0.78750  Biso   1.000  C
  C279     1.0000 0.94910  0.48580  0.71250  Biso   1.000  C
  C280     1.0000 0.05090  0.48580  0.78750  Biso   1.000  C
  H185     1.0000 0.58630  0.98240  0.31360  Biso   1.000  H
  H186     1.0000 0.41370  0.98240  0.18640  Biso   1.000  H
  H187     1.0000 0.08630  0.48240  0.31360  Biso   1.000  H
  H188     1.0000 0.91370  0.48240  0.18640  Biso   1.000  H
  H189     1.0000 0.41370  0.01760  0.68640  Biso   1.000  H
  H190     1.0000 0.58630  0.01760  0.81360  Biso   1.000  H
  H191     1.0000 0.91370  0.51760  0.68640  Biso   1.000  H
  H192     1.0000 0.08630  0.51760  0.81360  Biso   1.000  H
  C281     1.0000 0.50000  0.96400  0.25000  Biso   1.000  C
  C282     1.0000 0.00000  0.46400  0.25000  Biso   1.000  C
  C283     1.0000 0.50000  0.03600  0.75000  Biso   1.000  C
  C284     1.0000 0.00000  0.53600  0.75000  Biso   1.000  C
  C285     1.0000 0.50000  0.85920  0.25000  Biso   1.000  C
  C286     1.0000 0.00000  0.35920  0.25000  Biso   1.000  C
  C287     1.0000 0.50000  0.14080  0.75000  Biso   1.000  C
  C288     1.0000 0.00000  0.64080  0.75000  Biso   1.000  C
  H193     1.0000 0.46070  0.83690  0.22050  Biso   1.000  H
  H194     1.0000 0.53930  0.83690  0.27950  Biso   1.000  H
  H195     1.0000 0.96070  0.33690  0.22050  Biso   1.000  H
  H196     1.0000 0.03930  0.33690  0.27950  Biso   1.000  H
  H197     1.0000 0.53930  0.16310  0.77950  Biso   1.000  H
  H198     1.0000 0.46070  0.16310  0.72050  Biso   1.000  H
  H199     1.0000 0.03930  0.66310  0.77950  Biso   1.000  H
  H200     1.0000 0.96070  0.66310  0.72050  Biso   1.000  H
  H201     1.0000 0.50530  0.83690  0.29320  Biso   1.000  H
  H202     1.0000 0.49470  0.83690  0.20680  Biso   1.000  H
  H203     1.0000 0.00530  0.33690  0.29320  Biso   1.000  H
  H204     1.0000 0.99470  0.33690  0.20680  Biso   1.000  H
  H205     1.0000 0.49470  0.16310  0.70680  Biso   1.000  H
  H206     1.0000 0.50530  0.16310  0.79320  Biso   1.000  H
  H207     1.0000 0.99470  0.66310  0.70680  Biso   1.000  H
  H208     1.0000 0.00530  0.66310  0.79320  Biso   1.000  H
  H209     1.0000 0.53400  0.83690  0.23630  Biso   1.000  H
  H210     1.0000 0.46600  0.83690  0.26370  Biso   1.000  H
  H211     1.0000 0.03400  0.33690  0.23630  Biso   1.000  H
  H212     1.0000 0.96600  0.33690  0.26370  Biso   1.000  H
  H213     1.0000 0.46600  0.16310  0.76370  Biso   1.000  H
  H214     1.0000 0.53400  0.16310  0.73630  Biso   1.000  H
  H215     1.0000 0.96600  0.66310  0.76370  Biso   1.000  H
  H216     1.0000 0.03400  0.66310  0.73630  Biso   1.000  H
  N1       1.0000 0.37120  0.86710  0.50730  Biso   1.000  N
  N2       1.0000 0.62880  0.86710  0.99270  Biso   1.000  N
  N3       1.0000 0.87120  0.36710  0.50730  Biso   1.000  N
  N4       1.0000 0.12880  0.36710  0.99270  Biso   1.000  N
  N5       1.0000 0.62880  0.13290  0.49270  Biso   1.000  N
  N6       1.0000 0.37120  0.13290  0.00730  Biso   1.000  N
  N7       1.0000 0.12880  0.63290  0.49270  Biso   1.000  N
  N8       1.0000 0.87120  0.63290  0.00730  Biso   1.000  N
  N9       1.0000 0.58700  0.86110  0.63890  Biso   1.000  N
  N10      1.0000 0.41300  0.86110  0.86110  Biso   1.000  N
  N11      1.0000 0.08700  0.36110  0.63890  Biso   1.000  N
  N12      1.0000 0.91300  0.36110  0.86110  Biso   1.000  N
  N13      1.0000 0.41300  0.13890  0.36110  Biso   1.000  N
  N14      1.0000 0.58700  0.13890  0.13890  Biso   1.000  N
  N15      1.0000 0.91300  0.63890  0.36110  Biso   1.000  N
  N16      1.0000 0.08700  0.63890  0.13890  Biso   1.000  N
  N17      1.0000 0.26547  0.76090  0.36780  Biso   1.000  N
  N18      1.0000 0.73453  0.76090  0.13220  Biso   1.000  N
  N19      1.0000 0.76547  0.26090  0.36780  Biso   1.000  N
  N20      1.0000 0.23453  0.26090  0.13220  Biso   1.000  N
  N21      1.0000 0.73453  0.23910  0.63220  Biso   1.000  N
  N22      1.0000 0.26547  0.23910  0.86780  Biso   1.000  N
  N23      1.0000 0.23453  0.73910  0.63220  Biso   1.000  N
  N24      1.0000 0.76547  0.73910  0.86780  Biso   1.000  N
  N25      1.0000 0.20621  0.89950  0.43791  Biso   1.000  N
  N26      1.0000 0.79379  0.89950  0.06209  Biso   1.000  N
  N27      1.0000 0.70621  0.39950  0.43791  Biso   1.000  N
  N28      1.0000 0.29379  0.39950  0.06209  Biso   1.000  N
  N29      1.0000 0.79379  0.10050  0.56209  Biso   1.000  N
  N30      1.0000 0.20621  0.10050  0.93791  Biso   1.000  N
  N31      1.0000 0.29379  0.60050  0.56209  Biso   1.000  N
  N32      1.0000 0.70621  0.60050  0.93791  Biso   1.000  N
  N33      1.0000 0.02605  0.11100  0.41917  Biso   1.000  N
  N34      1.0000 0.97395  0.11100  0.08083  Biso   1.000  N
  N35      1.0000 0.52605  0.61100  0.41917  Biso   1.000  N
  N36      1.0000 0.47395  0.61100  0.08083  Biso   1.000  N
  N37      1.0000 0.97395  0.88900  0.58083  Biso   1.000  N
  N38      1.0000 0.02605  0.88900  0.91917  Biso   1.000  N
  N39      1.0000 0.47395  0.38900  0.58083  Biso   1.000  N
  N40      1.0000 0.52605  0.38900  0.91917  Biso   1.000  N
  N41      1.0000 0.98663  0.45310  0.41543  Biso   1.000  N
  N42      1.0000 0.01337  0.45310  0.08457  Biso   1.000  N
  N43      1.0000 0.48663  0.95310  0.41543  Biso   1.000  N
  N44      1.0000 0.51337  0.95310  0.08457  Biso   1.000  N
  N45      1.0000 0.01337  0.54690  0.58457  Biso   1.000  N
  N46      1.0000 0.98663  0.54690  0.91543  Biso   1.000  N
  N47      1.0000 0.51337  0.04690  0.58457  Biso   1.000  N
  N48      1.0000 0.48663  0.04690  0.91543  Biso   1.000  N
  N49      1.0000 0.28636  0.58000  0.22966  Biso   1.000  N
  N50      1.0000 0.71364  0.58000  0.27034  Biso   1.000  N
  N51      1.0000 0.78636  0.08000  0.22966  Biso   1.000  N
  N52      1.0000 0.21364  0.08000  0.27034  Biso   1.000  N
  N53      1.0000 0.71364  0.42000  0.77034  Biso   1.000  N
  N54      1.0000 0.28636  0.42000  0.72966  Biso   1.000  N
  N55      1.0000 0.21364  0.92000  0.77034  Biso   1.000  N
  N56      1.0000 0.78636  0.92000  0.72966  Biso   1.000  N
  N57      1.0000 0.50000  0.45870  0.25000  Biso   1.000  N
  N58      1.0000 0.00000  0.95870  0.25000  Biso   1.000  N
  N59      1.0000 0.50000  0.54130  0.75000  Biso   1.000  N
  N60      1.0000 0.00000  0.04130  0.75000  Biso   1.000  N
