data_image0
_cell_length_a       10.0257
_cell_length_b       11.6347
_cell_length_c       18.6389
_cell_angle_alpha    90
_cell_angle_beta     90
_cell_angle_gamma    90

_symmetry_space_group_name_H-M    "P 1"
_symmetry_int_tables_number       1

loop_
  _symmetry_equiv_pos_as_xyz
  'x, y, z'

loop_
  _atom_site_label
  _atom_site_occupancy
  _atom_site_fract_x
  _atom_site_fract_y
  _atom_site_fract_z
  _atom_site_thermal_displace_type
  _atom_site_B_iso_or_equiv
  _atom_site_type_symbol
  Cu1      1.0000 0.88528  0.17443  0.18161  Biso   1.000  Cu
  Cu2      1.0000 0.61472  0.82557  0.68161  Biso   1.000  Cu
  Cu3      1.0000 0.38528  0.32557  0.81839  Biso   1.000  Cu
  Cu4      1.0000 0.11472  0.67443  0.31839  Biso   1.000  Cu
  N1       1.0000 0.05030  0.18630  0.25480  Biso   1.000  N
  N2       1.0000 0.44970  0.81370  0.75480  Biso   1.000  N
  N3       1.0000 0.55030  0.31370  0.74520  Biso   1.000  N
  N4       1.0000 0.94970  0.68630  0.24520  Biso   1.000  N
  N5       1.0000 0.77100  0.31450  0.22820  Biso   1.000  N
  N6       1.0000 0.72900  0.68550  0.72820  Biso   1.000  N
  N7       1.0000 0.27100  0.18550  0.77180  Biso   1.000  N
  N8       1.0000 0.22900  0.81450  0.27180  Biso   1.000  N
  N9       1.0000 0.70110  0.16140  0.12600  Biso   1.000  N
  N10      1.0000 0.79890  0.83860  0.62600  Biso   1.000  N
  N11      1.0000 0.20110  0.33860  0.87400  Biso   1.000  N
  N12      1.0000 0.29890  0.66140  0.37400  Biso   1.000  N
  O1       1.0000 0.82850  0.06370  0.26140  Biso   1.000  O
  O2       1.0000 0.67150  0.93630  0.76140  Biso   1.000  O
  O3       1.0000 0.32850  0.43630  0.73860  Biso   1.000  O
  O4       1.0000 0.17150  0.56370  0.23860  Biso   1.000  O
  O5       1.0000 0.89270  0.97660  0.36260  Biso   1.000  O
  O6       1.0000 0.60730  0.02340  0.86260  Biso   1.000  O
  O7       1.0000 0.39270  0.52340  0.63740  Biso   1.000  O
  O8       1.0000 0.10730  0.47660  0.13740  Biso   1.000  O
  O9       1.0000 0.38640  0.87150  0.54910  Biso   1.000  O
  O10      1.0000 0.11360  0.12850  0.04910  Biso   1.000  O
  O11      1.0000 0.88640  0.62850  0.45090  Biso   1.000  O
  O12      1.0000 0.61360  0.37150  0.95090  Biso   1.000  O
  O13      1.0000 0.53830  0.95930  0.61780  Biso   1.000  O
  O14      1.0000 0.96170  0.04070  0.11780  Biso   1.000  O
  O15      1.0000 0.03830  0.54070  0.38220  Biso   1.000  O
  O16      1.0000 0.46170  0.45930  0.88220  Biso   1.000  O
  O17      1.0000 0.96390  0.29050  0.10750  Biso   1.000  O
  O18      1.0000 0.53610  0.70950  0.60750  Biso   1.000  O
  O19      1.0000 0.46390  0.20950  0.89250  Biso   1.000  O
  O20      1.0000 0.03610  0.79050  0.39250  Biso   1.000  O
  H1       1.0000 0.00960  0.35010  0.11700  Biso   1.000  H
  H2       1.0000 0.49040  0.64990  0.61700  Biso   1.000  H
  H3       1.0000 0.50960  0.14990  0.88300  Biso   1.000  H
  H4       1.0000 0.99040  0.85010  0.38300  Biso   1.000  H
  H5       1.0000 0.01150  0.23820  0.07850  Biso   1.000  H
  H6       1.0000 0.48850  0.76180  0.57850  Biso   1.000  H
  H7       1.0000 0.51150  0.26180  0.92150  Biso   1.000  H
  H8       1.0000 0.98850  0.73820  0.42150  Biso   1.000  H
  C1       1.0000 0.90900  0.04530  0.31200  Biso   1.000  C
  C2       1.0000 0.59100  0.95470  0.81200  Biso   1.000  C
  C3       1.0000 0.40900  0.45470  0.68800  Biso   1.000  C
  C4       1.0000 0.09100  0.54530  0.18800  Biso   1.000  C
  C5       1.0000 0.03890  0.11280  0.30930  Biso   1.000  C
  C6       1.0000 0.46110  0.88720  0.80930  Biso   1.000  C
  C7       1.0000 0.53890  0.38720  0.69070  Biso   1.000  C
  C8       1.0000 0.96110  0.61280  0.19070  Biso   1.000  C
  C9       1.0000 0.16070  0.25040  0.25140  Biso   1.000  C
  C10      1.0000 0.33930  0.74960  0.75140  Biso   1.000  C
  C11      1.0000 0.66070  0.24960  0.74860  Biso   1.000  C
  C12      1.0000 0.83930  0.75040  0.24860  Biso   1.000  C
  H9       1.0000 0.17090  0.30140  0.21340  Biso   1.000  H
  H10      1.0000 0.32910  0.69860  0.71340  Biso   1.000  H
  H11      1.0000 0.67090  0.19860  0.78660  Biso   1.000  H
  H12      1.0000 0.82910  0.80140  0.28660  Biso   1.000  H
  C13      1.0000 0.26070  0.24340  0.30270  Biso   1.000  C
  C14      1.0000 0.23930  0.75660  0.80270  Biso   1.000  C
  C15      1.0000 0.76070  0.25660  0.69730  Biso   1.000  C
  C16      1.0000 0.73930  0.74340  0.19730  Biso   1.000  C
  H13      1.0000 0.33530  0.29050  0.29900  Biso   1.000  H
  H14      1.0000 0.16470  0.70950  0.79900  Biso   1.000  H
  H15      1.0000 0.83530  0.20950  0.70100  Biso   1.000  H
  H16      1.0000 0.66470  0.79050  0.20100  Biso   1.000  H
  C17      1.0000 0.25070  0.16790  0.35860  Biso   1.000  C
  C18      1.0000 0.24930  0.83210  0.85860  Biso   1.000  C
  C19      1.0000 0.75070  0.33210  0.64140  Biso   1.000  C
  C20      1.0000 0.74930  0.66790  0.14140  Biso   1.000  C
  C21      1.0000 0.13490  0.10180  0.36170  Biso   1.000  C
  C22      1.0000 0.36510  0.89820  0.86170  Biso   1.000  C
  C23      1.0000 0.63490  0.39820  0.63830  Biso   1.000  C
  C24      1.0000 0.86510  0.60180  0.13830  Biso   1.000  C
  H17      1.0000 0.12250  0.05020  0.39920  Biso   1.000  H
  H18      1.0000 0.37750  0.94980  0.89920  Biso   1.000  H
  H19      1.0000 0.62250  0.44980  0.60080  Biso   1.000  H
  H20      1.0000 0.87750  0.55020  0.10080  Biso   1.000  H
  C25      1.0000 0.35430  0.16130  0.41640  Biso   1.000  C
  C26      1.0000 0.14570  0.83870  0.91640  Biso   1.000  C
  C27      1.0000 0.85430  0.33870  0.58360  Biso   1.000  C
  C28      1.0000 0.64570  0.66130  0.08360  Biso   1.000  C
  C29      1.0000 0.44480  0.24580  0.42610  Biso   1.000  C
  C30      1.0000 0.05520  0.75420  0.92610  Biso   1.000  C
  C31      1.0000 0.94480  0.25420  0.57390  Biso   1.000  C
  C32      1.0000 0.55520  0.74580  0.07390  Biso   1.000  C
  H21      1.0000 0.44510  0.30830  0.39490  Biso   1.000  H
  H22      1.0000 0.05490  0.69170  0.89490  Biso   1.000  H
  H23      1.0000 0.94510  0.19170  0.60510  Biso   1.000  H
  H24      1.0000 0.55490  0.80830  0.10510  Biso   1.000  H
  C33      1.0000 0.53850  0.24190  0.48200  Biso   1.000  C
  C34      1.0000 0.96150  0.75810  0.98200  Biso   1.000  C
  C35      1.0000 0.03850  0.25810  0.51800  Biso   1.000  C
  C36      1.0000 0.46150  0.74190  0.01800  Biso   1.000  C
  H25      1.0000 0.59830  0.30210  0.48840  Biso   1.000  H
  H26      1.0000 0.90170  0.69790  0.98840  Biso   1.000  H
  H27      1.0000 0.09830  0.19790  0.51160  Biso   1.000  H
  H28      1.0000 0.40170  0.80210  0.01160  Biso   1.000  H
  C37      1.0000 0.54130  0.15140  0.52580  Biso   1.000  C
  C38      1.0000 0.95870  0.84860  0.02580  Biso   1.000  C
  C39      1.0000 0.04130  0.34860  0.47420  Biso   1.000  C
  C40      1.0000 0.45870  0.65140  0.97420  Biso   1.000  C
  H29      1.0000 0.60390  0.14900  0.56260  Biso   1.000  H
  H30      1.0000 0.89610  0.85100  0.06260  Biso   1.000  H
  H31      1.0000 0.10390  0.35100  0.43740  Biso   1.000  H
  H32      1.0000 0.39610  0.64900  0.93740  Biso   1.000  H
  C41      1.0000 0.45200  0.06010  0.51740  Biso   1.000  C
  C42      1.0000 0.04800  0.93990  0.01740  Biso   1.000  C
  C43      1.0000 0.95200  0.43990  0.48260  Biso   1.000  C
  C44      1.0000 0.54800  0.56010  0.98260  Biso   1.000  C
  C45      1.0000 0.45720  0.95310  0.56510  Biso   1.000  C
  C46      1.0000 0.04280  0.04690  0.06510  Biso   1.000  C
  C47      1.0000 0.95720  0.54690  0.43490  Biso   1.000  C
  C48      1.0000 0.54280  0.45310  0.93490  Biso   1.000  C
  C49      1.0000 0.36030  0.06460  0.46180  Biso   1.000  C
  C50      1.0000 0.13970  0.93540  0.96180  Biso   1.000  C
  C51      1.0000 0.86030  0.43540  0.53820  Biso   1.000  C
  C52      1.0000 0.63970  0.56460  0.03820  Biso   1.000  C
  H33      1.0000 0.30240  0.00330  0.45440  Biso   1.000  H
  H34      1.0000 0.19760  0.99670  0.95440  Biso   1.000  H
  H35      1.0000 0.80240  0.49670  0.54560  Biso   1.000  H
  H36      1.0000 0.69760  0.50330  0.04560  Biso   1.000  H
  C53      1.0000 0.80240  0.38710  0.28060  Biso   1.000  C
  C54      1.0000 0.69760  0.61290  0.78060  Biso   1.000  C
  C55      1.0000 0.30240  0.11290  0.71940  Biso   1.000  C
  C56      1.0000 0.19760  0.88710  0.21940  Biso   1.000  C
  H37      1.0000 0.88450  0.37860  0.30320  Biso   1.000  H
  H38      1.0000 0.61550  0.62140  0.80320  Biso   1.000  H
  H39      1.0000 0.38450  0.12140  0.69680  Biso   1.000  H
  H40      1.0000 0.11550  0.87860  0.19680  Biso   1.000  H
  C57      1.0000 0.71850  0.47510  0.30330  Biso   1.000  C
  C58      1.0000 0.78150  0.52490  0.80330  Biso   1.000  C
  C59      1.0000 0.21850  0.02490  0.69670  Biso   1.000  C
  C60      1.0000 0.28150  0.97510  0.19670  Biso   1.000  C
  H41      1.0000 0.74420  0.52340  0.34060  Biso   1.000  H
  H42      1.0000 0.75580  0.47660  0.84060  Biso   1.000  H
  H43      1.0000 0.24420  0.97660  0.65940  Biso   1.000  H
  H44      1.0000 0.25580  0.02340  0.15940  Biso   1.000  H
  C61      1.0000 0.59810  0.49000  0.27040  Biso   1.000  C
  C62      1.0000 0.90190  0.51000  0.77040  Biso   1.000  C
  C63      1.0000 0.09810  0.01000  0.72960  Biso   1.000  C
  C64      1.0000 0.40190  0.99000  0.22960  Biso   1.000  C
  H45      1.0000 0.54160  0.54900  0.28490  Biso   1.000  H
  H46      1.0000 0.95840  0.45100  0.78490  Biso   1.000  H
  H47      1.0000 0.04160  0.95100  0.71510  Biso   1.000  H
  H48      1.0000 0.45840  0.04900  0.21510  Biso   1.000  H
  C65      1.0000 0.55960  0.41490  0.21420  Biso   1.000  C
  C66      1.0000 0.94040  0.58510  0.71420  Biso   1.000  C
  C67      1.0000 0.05960  0.08510  0.78580  Biso   1.000  C
  C68      1.0000 0.44040  0.91490  0.28580  Biso   1.000  C
  C69      1.0000 0.64920  0.32790  0.19500  Biso   1.000  C
  C70      1.0000 0.85080  0.67210  0.69500  Biso   1.000  C
  C71      1.0000 0.14920  0.17210  0.80500  Biso   1.000  C
  C72      1.0000 0.35080  0.82790  0.30500  Biso   1.000  C
  C73      1.0000 0.43470  0.42530  0.17620  Biso   1.000  C
  C74      1.0000 0.06530  0.57470  0.67620  Biso   1.000  C
  C75      1.0000 0.93470  0.07470  0.82380  Biso   1.000  C
  C76      1.0000 0.56530  0.92530  0.32380  Biso   1.000  C
  H49      1.0000 0.37770  0.48640  0.18590  Biso   1.000  H
  H50      1.0000 0.12230  0.51360  0.68590  Biso   1.000  H
  H51      1.0000 0.87770  0.01360  0.81410  Biso   1.000  H
  H52      1.0000 0.62230  0.98640  0.31410  Biso   1.000  H
  C77      1.0000 0.40100  0.34640  0.12680  Biso   1.000  C
  C78      1.0000 0.09900  0.65360  0.62680  Biso   1.000  C
  C79      1.0000 0.90100  0.15360  0.87320  Biso   1.000  C
  C80      1.0000 0.59900  0.84640  0.37320  Biso   1.000  C
  H53      1.0000 0.31880  0.35230  0.10400  Biso   1.000  H
  H54      1.0000 0.18120  0.64770  0.60400  Biso   1.000  H
  H55      1.0000 0.81880  0.14770  0.89600  Biso   1.000  H
  H56      1.0000 0.68120  0.85230  0.39600  Biso   1.000  H
  C81      1.0000 0.48680  0.25510  0.10850  Biso   1.000  C
  C82      1.0000 0.01320  0.74490  0.60850  Biso   1.000  C
  C83      1.0000 0.98680  0.24490  0.89150  Biso   1.000  C
  C84      1.0000 0.51320  0.75510  0.39150  Biso   1.000  C
  C85      1.0000 0.61380  0.24610  0.14120  Biso   1.000  C
  C86      1.0000 0.88620  0.75390  0.64120  Biso   1.000  C
  C87      1.0000 0.11380  0.25390  0.85880  Biso   1.000  C
  C88      1.0000 0.38620  0.74610  0.35880  Biso   1.000  C
  C89      1.0000 0.45410  0.16710  0.05750  Biso   1.000  C
  C90      1.0000 0.04590  0.83290  0.55750  Biso   1.000  C
  C91      1.0000 0.95410  0.33290  0.94250  Biso   1.000  C
  C92      1.0000 0.54590  0.66710  0.44250  Biso   1.000  C
  H57      1.0000 0.37190  0.16780  0.03440  Biso   1.000  H
  H58      1.0000 0.12810  0.83220  0.53440  Biso   1.000  H
  H59      1.0000 0.87190  0.33220  0.96560  Biso   1.000  H
  H60      1.0000 0.62810  0.66780  0.46560  Biso   1.000  H
  C93      1.0000 0.54350  0.08300  0.04340  Biso   1.000  C
  C94      1.0000 0.95650  0.91700  0.54340  Biso   1.000  C
  C95      1.0000 0.04350  0.41700  0.95660  Biso   1.000  C
  C96      1.0000 0.45650  0.58300  0.45660  Biso   1.000  C
  H61      1.0000 0.52250  0.02560  0.01050  Biso   1.000  H
  H62      1.0000 0.97750  0.97440  0.51050  Biso   1.000  H
  H63      1.0000 0.02250  0.47440  0.98950  Biso   1.000  H
  H64      1.0000 0.47750  0.52560  0.48950  Biso   1.000  H
  C97      1.0000 0.66640  0.08200  0.07770  Biso   1.000  C
  C98      1.0000 0.83360  0.91800  0.57770  Biso   1.000  C
  C99      1.0000 0.16640  0.41800  0.92230  Biso   1.000  C
  C100     1.0000 0.33360  0.58200  0.42230  Biso   1.000  C
  H65      1.0000 0.72680  0.02400  0.06660  Biso   1.000  H
  H66      1.0000 0.77320  0.97600  0.56660  Biso   1.000  H
  H67      1.0000 0.22680  0.47600  0.93340  Biso   1.000  H
  H68      1.0000 0.27320  0.52400  0.43340  Biso   1.000  H
