data_image0
_cell_length_a       12.7964
_cell_length_b       13.3969
_cell_length_c       14.1537
_cell_angle_alpha    65.381
_cell_angle_beta     72.522
_cell_angle_gamma    76.844

_symmetry_space_group_name_H-M    "P 1"
_symmetry_int_tables_number       1

loop_
  _symmetry_equiv_pos_as_xyz
  'x, y, z'

loop_
  _atom_site_label
  _atom_site_occupancy
  _atom_site_fract_x
  _atom_site_fract_y
  _atom_site_fract_z
  _atom_site_thermal_displace_type
  _atom_site_B_iso_or_equiv
  _atom_site_type_symbol
  C1       1.0000 0.95410  0.12200  0.12030  Biso   1.000  C
  C2       1.0000 0.04590  0.87800  0.87970  Biso   1.000  C
  C3       1.0000 0.97660  0.22860  0.10070  Biso   1.000  C
  C4       1.0000 0.02340  0.77140  0.89930  Biso   1.000  C
  H1       1.0000 0.04640  0.25060  0.08140  Biso   1.000  H
  H2       1.0000 0.95360  0.74940  0.91860  Biso   1.000  H
  C5       1.0000 0.87590  0.29550  0.11540  Biso   1.000  C
  C6       1.0000 0.12410  0.70450  0.88460  Biso   1.000  C
  H3       1.0000 0.86740  0.36930  0.10720  Biso   1.000  H
  H4       1.0000 0.13260  0.63070  0.89280  Biso   1.000  H
  C7       1.0000 0.79060  0.23120  0.14460  Biso   1.000  C
  C8       1.0000 0.20940  0.76880  0.85540  Biso   1.000  C
  H5       1.0000 0.71550  0.25520  0.15940  Biso   1.000  H
  H6       1.0000 0.28450  0.74480  0.84060  Biso   1.000  H
  C9       1.0000 0.83760  0.12370  0.14780  Biso   1.000  C
  C10      1.0000 0.16240  0.87630  0.85220  Biso   1.000  C
  H7       1.0000 0.79920  0.06500  0.16480  Biso   1.000  H
  H8       1.0000 0.20080  0.93500  0.83520  Biso   1.000  H
  C11      1.0000 0.95130  0.04420  0.37670  Biso   1.000  C
  C12      1.0000 0.04870  0.95580  0.62330  Biso   1.000  C
  C13      1.0000 0.97670  0.15150  0.35400  Biso   1.000  C
  C14      1.0000 0.02330  0.84850  0.64600  Biso   1.000  C
  H9       1.0000 0.04680  0.17320  0.33340  Biso   1.000  H
  H10      1.0000 0.95320  0.82680  0.66660  Biso   1.000  H
  C15      1.0000 0.87470  0.21880  0.36890  Biso   1.000  C
  C16      1.0000 0.12530  0.78120  0.63110  Biso   1.000  C
  H11      1.0000 0.86630  0.29270  0.36020  Biso   1.000  H
  H12      1.0000 0.13370  0.70730  0.63980  Biso   1.000  H
  C17      1.0000 0.78890  0.15500  0.39880  Biso   1.000  C
  C18      1.0000 0.21110  0.84500  0.60120  Biso   1.000  C
  H13      1.0000 0.71390  0.17950  0.41330  Biso   1.000  H
  H14      1.0000 0.28610  0.82050  0.58670  Biso   1.000  H
  C19      1.0000 0.83560  0.04690  0.40350  Biso   1.000  C
  C20      1.0000 0.16440  0.95310  0.59650  Biso   1.000  C
  H15      1.0000 0.79680  0.98830  0.42100  Biso   1.000  H
  H16      1.0000 0.20320  0.01170  0.57900  Biso   1.000  H
  C21      1.0000 0.03600  0.02650  0.11340  Biso   1.000  C
  C22      1.0000 0.96400  0.97350  0.88660  Biso   1.000  C
  C23      1.0000 0.07710  0.84560  0.13750  Biso   1.000  C
  C24      1.0000 0.92290  0.15440  0.86250  Biso   1.000  C
  H17      1.0000 0.05520  0.77650  0.15860  Biso   1.000  H
  H18      1.0000 0.94480  0.22350  0.84140  Biso   1.000  H
  C25      1.0000 0.18800  0.85730  0.10000  Biso   1.000  C
  C26      1.0000 0.81200  0.14270  0.90000  Biso   1.000  C
  H19      1.0000 0.23840  0.79610  0.09630  Biso   1.000  H
  H20      1.0000 0.76160  0.20390  0.90370  Biso   1.000  H
  C27      1.0000 0.14760  0.03790  0.07540  Biso   1.000  C
  C28      1.0000 0.85240  0.96210  0.92460  Biso   1.000  C
  H21      1.0000 0.16980  0.10720  0.05360  Biso   1.000  H
  H22      1.0000 0.83020  0.89280  0.94640  Biso   1.000  H
  C29      1.0000 0.03570  0.94950  0.37270  Biso   1.000  C
  C30      1.0000 0.96430  0.05050  0.62730  Biso   1.000  C
  C31      1.0000 0.21540  0.88380  0.32970  Biso   1.000  C
  C32      1.0000 0.78460  0.11620  0.67030  Biso   1.000  C
  H23      1.0000 0.28900  0.89580  0.29970  Biso   1.000  H
  H24      1.0000 0.71100  0.10420  0.70030  Biso   1.000  H
  C33      1.0000 0.18900  0.77750  0.37120  Biso   1.000  C
  C34      1.0000 0.81100  0.22250  0.62880  Biso   1.000  C
  H25      1.0000 0.24480  0.71950  0.37010  Biso   1.000  H
  H26      1.0000 0.75520  0.28050  0.62990  Biso   1.000  H
  C35      1.0000 0.00890  0.84250  0.41280  Biso   1.000  C
  C36      1.0000 0.99110  0.15750  0.58720  Biso   1.000  C
  H27      1.0000 0.93510  0.83060  0.44060  Biso   1.000  H
  H28      1.0000 0.06490  0.16940  0.55940  Biso   1.000  H
  C37      1.0000 0.53990  0.92790  0.85200  Biso   1.000  C
  C38      1.0000 0.46010  0.07210  0.14800  Biso   1.000  C
  C39      1.0000 0.57010  0.87910  0.76870  Biso   1.000  C
  C40      1.0000 0.42990  0.12090  0.23130  Biso   1.000  C
  C41      1.0000 0.48990  0.85970  0.73510  Biso   1.000  C
  C42      1.0000 0.51010  0.14030  0.26490  Biso   1.000  C
  H29      1.0000 0.41600  0.87790  0.76380  Biso   1.000  H
  H30      1.0000 0.58400  0.12210  0.23620  Biso   1.000  H
  C43      1.0000 0.51760  0.81350  0.65940  Biso   1.000  C
  C44      1.0000 0.48240  0.18650  0.34060  Biso   1.000  C
  H31      1.0000 0.46200  0.79950  0.63830  Biso   1.000  H
  H32      1.0000 0.53800  0.20050  0.36170  Biso   1.000  H
  C45      1.0000 0.62440  0.78810  0.61490  Biso   1.000  C
  C46      1.0000 0.37560  0.21190  0.38510  Biso   1.000  C
  H33      1.0000 0.64240  0.75870  0.56220  Biso   1.000  H
  H34      1.0000 0.35760  0.24130  0.43780  Biso   1.000  H
  C47      1.0000 0.70400  0.80600  0.64780  Biso   1.000  C
  C48      1.0000 0.29600  0.19400  0.35220  Biso   1.000  C
  H35      1.0000 0.77770  0.78610  0.61990  Biso   1.000  H
  H36      1.0000 0.22230  0.21390  0.38010  Biso   1.000  H
  C49      1.0000 0.67710  0.85400  0.72300  Biso   1.000  C
  C50      1.0000 0.32290  0.14600  0.27700  Biso   1.000  C
  H37      1.0000 0.73310  0.86930  0.74260  Biso   1.000  H
  H38      1.0000 0.26690  0.13070  0.25740  Biso   1.000  H
  C51      1.0000 0.55110  0.80210  0.11620  Biso   1.000  C
  C52      1.0000 0.44890  0.19790  0.88380  Biso   1.000  C
  C53      1.0000 0.58500  0.68170  0.17300  Biso   1.000  C
  C54      1.0000 0.41500  0.31830  0.82700  Biso   1.000  C
  C55      1.0000 0.50890  0.60810  0.21540  Biso   1.000  C
  C56      1.0000 0.49110  0.39190  0.78460  Biso   1.000  C
  H39      1.0000 0.43600  0.63310  0.21070  Biso   1.000  H
  H40      1.0000 0.56400  0.36690  0.78930  Biso   1.000  H
  C57      1.0000 0.54080  0.49610  0.26530  Biso   1.000  C
  C58      1.0000 0.45920  0.50390  0.73470  Biso   1.000  C
  H41      1.0000 0.48940  0.44580  0.29330  Biso   1.000  H
  H42      1.0000 0.51060  0.55420  0.70670  Biso   1.000  H
  C59      1.0000 0.64810  0.45980  0.27330  Biso   1.000  C
  C60      1.0000 0.35190  0.54020  0.72670  Biso   1.000  C
  H43      1.0000 0.66920  0.38480  0.30700  Biso   1.000  H
  H44      1.0000 0.33080  0.61520  0.69300  Biso   1.000  H
  C61      1.0000 0.72370  0.53230  0.23260  Biso   1.000  C
  C62      1.0000 0.27630  0.46770  0.76740  Biso   1.000  C
  H45      1.0000 0.79620  0.50690  0.23880  Biso   1.000  H
  H46      1.0000 0.20380  0.49310  0.76120  Biso   1.000  H
  C63      1.0000 0.69290  0.64450  0.18150  Biso   1.000  C
  C64      1.0000 0.30710  0.35550  0.81850  Biso   1.000  C
  H47      1.0000 0.74470  0.69430  0.15330  Biso   1.000  H
  H48      1.0000 0.25530  0.30570  0.84670  Biso   1.000  H
  C65      1.0000 0.09830  0.48870  0.31940  Biso   1.000  C
  C66      1.0000 0.90170  0.51130  0.68060  Biso   1.000  C
  C67      1.0000 0.16740  0.48040  0.21660  Biso   1.000  C
  C68      1.0000 0.83260  0.51960  0.78340  Biso   1.000  C
  C69      1.0000 0.14370  0.41630  0.17350  Biso   1.000  C
  C70      1.0000 0.85630  0.58370  0.82650  Biso   1.000  C
  H49      1.0000 0.08130  0.37930  0.20680  Biso   1.000  H
  H50      1.0000 0.91870  0.62070  0.79320  Biso   1.000  H
  C71      1.0000 0.21170  0.40590  0.08080  Biso   1.000  C
  C72      1.0000 0.78830  0.59410  0.91920  Biso   1.000  C
  H51      1.0000 0.19420  0.36260  0.05190  Biso   1.000  H
  H52      1.0000 0.80580  0.63740  0.94810  Biso   1.000  H
  C73      1.0000 0.30310  0.45790  0.03180  Biso   1.000  C
  C74      1.0000 0.69690  0.54210  0.96820  Biso   1.000  C
  H53      1.0000 0.34960  0.44890  0.97060  Biso   1.000  H
  H54      1.0000 0.65040  0.55110  0.02940  Biso   1.000  H
  C75      1.0000 0.32700  0.52400  0.07280  Biso   1.000  C
  C76      1.0000 0.67300  0.47600  0.92720  Biso   1.000  C
  H55      1.0000 0.38940  0.56100  0.03890  Biso   1.000  H
  H56      1.0000 0.61060  0.43900  0.96110  Biso   1.000  H
  C77      1.0000 0.25830  0.53570  0.16450  Biso   1.000  C
  C78      1.0000 0.74170  0.46430  0.83550  Biso   1.000  C
  H57      1.0000 0.27410  0.58180  0.19130  Biso   1.000  H
  H58      1.0000 0.72590  0.41820  0.80870  Biso   1.000  H
  C79      1.0000 0.17610  0.40200  0.55950  Biso   1.000  C
  C80      1.0000 0.82390  0.59800  0.44050  Biso   1.000  C
  C81      1.0000 0.27920  0.33440  0.58840  Biso   1.000  C
  C82      1.0000 0.72080  0.66560  0.41160  Biso   1.000  C
  C83      1.0000 0.27780  0.22420  0.65490  Biso   1.000  C
  C84      1.0000 0.72220  0.77580  0.34510  Biso   1.000  C
  H59      1.0000 0.21150  0.19370  0.68410  Biso   1.000  H
  H60      1.0000 0.78850  0.80630  0.31590  Biso   1.000  H
  C85      1.0000 0.37390  0.15920  0.67840  Biso   1.000  C
  C86      1.0000 0.62610  0.84080  0.32160  Biso   1.000  C
  H61      1.0000 0.37210  0.08600  0.72570  Biso   1.000  H
  H62      1.0000 0.62790  0.91400  0.27430  Biso   1.000  H
  C87      1.0000 0.47070  0.20260  0.63230  Biso   1.000  C
  C88      1.0000 0.52930  0.79740  0.36770  Biso   1.000  C
  H63      1.0000 0.53600  0.15770  0.64500  Biso   1.000  H
  H64      1.0000 0.46400  0.84230  0.35500  Biso   1.000  H
  C89      1.0000 0.47400  0.31190  0.56690  Biso   1.000  C
  C90      1.0000 0.52600  0.68810  0.43310  Biso   1.000  C
  H65      1.0000 0.54100  0.34120  0.53710  Biso   1.000  H
  H66      1.0000 0.45900  0.65880  0.46290  Biso   1.000  H
  C91      1.0000 0.37760  0.37840  0.54550  Biso   1.000  C
  C92      1.0000 0.62240  0.62160  0.45450  Biso   1.000  C
  H67      1.0000 0.37940  0.45280  0.50210  Biso   1.000  H
  H68      1.0000 0.62060  0.54720  0.49790  Biso   1.000  H
  Cu1      1.0000 0.39714  0.98062  0.02406  Biso   1.000  Cu
  Cu2      1.0000 0.60286  0.01938  0.97594  Biso   1.000  Cu
  Cu3      1.0000 0.03991  0.59222  0.47346  Biso   1.000  Cu
  Cu4      1.0000 0.96009  0.40778  0.52654  Biso   1.000  Cu
  Fe1      1.0000 0.88681  0.16040  0.25291  Biso   1.000  Fe
  Fe2      1.0000 0.11319  0.83960  0.74709  Biso   1.000  Fe
  N1       1.0000 0.00070  0.92890  0.14490  Biso   1.000  N
  N2       1.0000 0.99930  0.07110  0.85510  Biso   1.000  N
  N3       1.0000 0.22428  0.95394  0.06885  Biso   1.000  N
  N4       1.0000 0.77572  0.04606  0.93115  Biso   1.000  N
  N5       1.0000 0.14020  0.96972  0.33060  Biso   1.000  N
  N6       1.0000 0.85980  0.03028  0.66940  Biso   1.000  N
  N7       1.0000 0.08489  0.75678  0.41298  Biso   1.000  N
  N8       1.0000 0.91511  0.24322  0.58702  Biso   1.000  N
  O1       1.0000 0.44173  0.93074  0.90383  Biso   1.000  O
  O2       1.0000 0.55827  0.06926  0.09617  Biso   1.000  O
  O3       1.0000 0.61643  0.96204  0.86479  Biso   1.000  O
  O4       1.0000 0.38357  0.03796  0.13521  Biso   1.000  O
  O5       1.0000 0.45154  0.83201  0.11449  Biso   1.000  O
  O6       1.0000 0.54846  0.16799  0.88551  Biso   1.000  O
  O7       1.0000 0.62646  0.86462  0.07181  Biso   1.000  O
  O8       1.0000 0.37354  0.13538  0.92819  Biso   1.000  O
  O9       1.0000 0.10877  0.56954  0.33858  Biso   1.000  O
  O10      1.0000 0.89123  0.43046  0.66142  Biso   1.000  O
  O11      1.0000 0.03667  0.41513  0.38053  Biso   1.000  O
  O12      1.0000 0.96333  0.58487  0.61947  Biso   1.000  O
  O13      1.0000 0.17074  0.50505  0.52518  Biso   1.000  O
  O14      1.0000 0.82926  0.49495  0.47482  Biso   1.000  O
  O15      1.0000 0.10055  0.34974  0.57024  Biso   1.000  O
  O16      1.0000 0.89945  0.65026  0.42976  Biso   1.000  O
