data_image0
_cell_length_a       13.3978
_cell_length_b       22.6166
_cell_length_c       14.4661
_cell_angle_alpha    90
_cell_angle_beta     96.918
_cell_angle_gamma    90

_symmetry_space_group_name_H-M    "P 1"
_symmetry_int_tables_number       1

loop_
  _symmetry_equiv_pos_as_xyz
  'x, y, z'

loop_
  _atom_site_label
  _atom_site_occupancy
  _atom_site_fract_x
  _atom_site_fract_y
  _atom_site_fract_z
  _atom_site_thermal_displace_type
  _atom_site_B_iso_or_equiv
  _atom_site_type_symbol
  Cu1      1.0000 0.49484  0.21858  0.68612  Biso   1.000  Cu
  Cu2      1.0000 0.00516  0.71858  0.81388  Biso   1.000  Cu
  Cu3      1.0000 0.50516  0.78142  0.31388  Biso   1.000  Cu
  Cu4      1.0000 0.99484  0.28142  0.18612  Biso   1.000  Cu
  Cu5      1.0000 0.43113  0.27259  0.82778  Biso   1.000  Cu
  Cu6      1.0000 0.06887  0.77259  0.67222  Biso   1.000  Cu
  Cu7      1.0000 0.56887  0.72741  0.17222  Biso   1.000  Cu
  Cu8      1.0000 0.93113  0.22741  0.32778  Biso   1.000  Cu
  Fe1      1.0000 0.25762  0.52769  0.04393  Biso   1.000  Fe
  Fe2      1.0000 0.24238  0.02769  0.45607  Biso   1.000  Fe
  Fe3      1.0000 0.74238  0.47231  0.95607  Biso   1.000  Fe
  Fe4      1.0000 0.75762  0.97231  0.54393  Biso   1.000  Fe
  C1       1.0000 0.62291  0.01551  0.52120  Biso   1.000  C
  C2       1.0000 0.87709  0.51551  0.97880  Biso   1.000  C
  C3       1.0000 0.37709  0.98449  0.47880  Biso   1.000  C
  C4       1.0000 0.12291  0.48449  0.02120  Biso   1.000  C
  C5       1.0000 0.62801  0.98135  0.60430  Biso   1.000  C
  C6       1.0000 0.87199  0.48135  0.89570  Biso   1.000  C
  C7       1.0000 0.37199  0.01865  0.39570  Biso   1.000  C
  C8       1.0000 0.12801  0.51865  0.10430  Biso   1.000  C
  H1       1.0000 0.62290  0.99580  0.66370  Biso   1.000  H
  H2       1.0000 0.87710  0.49580  0.83630  Biso   1.000  H
  H3       1.0000 0.37710  0.00420  0.33630  Biso   1.000  H
  H4       1.0000 0.12290  0.50420  0.16370  Biso   1.000  H
  C9       1.0000 0.64220  0.92153  0.58040  Biso   1.000  C
  C10      1.0000 0.85780  0.42153  0.91960  Biso   1.000  C
  C11      1.0000 0.35780  0.07847  0.41960  Biso   1.000  C
  C12      1.0000 0.14220  0.57847  0.08040  Biso   1.000  C
  H5       1.0000 0.64720  0.88980  0.62150  Biso   1.000  H
  H6       1.0000 0.85280  0.38980  0.87850  Biso   1.000  H
  H7       1.0000 0.35280  0.11020  0.37850  Biso   1.000  H
  H8       1.0000 0.14720  0.61020  0.12150  Biso   1.000  H
  C13      1.0000 0.64739  0.91816  0.48340  Biso   1.000  C
  C14      1.0000 0.85261  0.41816  0.01660  Biso   1.000  C
  C15      1.0000 0.35261  0.08184  0.51660  Biso   1.000  C
  C16      1.0000 0.14739  0.58184  0.98340  Biso   1.000  C
  H9       1.0000 0.65690  0.88400  0.44990  Biso   1.000  H
  H10      1.0000 0.84310  0.38400  0.05010  Biso   1.000  H
  H11      1.0000 0.34310  0.11600  0.55010  Biso   1.000  H
  H12      1.0000 0.15690  0.61600  0.94990  Biso   1.000  H
  C17      1.0000 0.63566  0.97582  0.44680  Biso   1.000  C
  C18      1.0000 0.86434  0.47582  0.05320  Biso   1.000  C
  C19      1.0000 0.36434  0.02418  0.55320  Biso   1.000  C
  C20      1.0000 0.13566  0.52418  0.94680  Biso   1.000  C
  H13      1.0000 0.63610  0.98620  0.38460  Biso   1.000  H
  H14      1.0000 0.86390  0.48620  0.11540  Biso   1.000  H
  H15      1.0000 0.36390  0.01380  0.61540  Biso   1.000  H
  H16      1.0000 0.13610  0.51380  0.88460  Biso   1.000  H
  C21      1.0000 0.37118  0.46719  0.04881  Biso   1.000  C
  C22      1.0000 0.12882  0.96719  0.45119  Biso   1.000  C
  C23      1.0000 0.62882  0.53281  0.95119  Biso   1.000  C
  C24      1.0000 0.87118  0.03281  0.54881  Biso   1.000  C
  C25      1.0000 0.87544  0.00133  0.63510  Biso   1.000  C
  C26      1.0000 0.62456  0.50133  0.86490  Biso   1.000  C
  C27      1.0000 0.12456  0.99867  0.36490  Biso   1.000  C
  C28      1.0000 0.37544  0.49867  0.13510  Biso   1.000  C
  H17      1.0000 0.87110  0.01790  0.69330  Biso   1.000  H
  H18      1.0000 0.62890  0.51790  0.80670  Biso   1.000  H
  H19      1.0000 0.12890  0.98210  0.30670  Biso   1.000  H
  H20      1.0000 0.37110  0.48210  0.19330  Biso   1.000  H
  C29      1.0000 0.88747  0.94029  0.61590  Biso   1.000  C
  C30      1.0000 0.61253  0.44029  0.88410  Biso   1.000  C
  C31      1.0000 0.11253  0.05971  0.38410  Biso   1.000  C
  C32      1.0000 0.38747  0.55971  0.11590  Biso   1.000  C
  H21      1.0000 0.89310  0.91000  0.65960  Biso   1.000  H
  H22      1.0000 0.60690  0.41000  0.84040  Biso   1.000  H
  H23      1.0000 0.10690  0.09000  0.34040  Biso   1.000  H
  H24      1.0000 0.39310  0.59000  0.15960  Biso   1.000  H
  C33      1.0000 0.88941  0.93352  0.51900  Biso   1.000  C
  C34      1.0000 0.61059  0.43352  0.98100  Biso   1.000  C
  C35      1.0000 0.11059  0.06648  0.48100  Biso   1.000  C
  C36      1.0000 0.38941  0.56648  0.01900  Biso   1.000  C
  H25      1.0000 0.89590  0.89790  0.48800  Biso   1.000  H
  H26      1.0000 0.60410  0.39790  0.01200  Biso   1.000  H
  H27      1.0000 0.10410  0.10210  0.51200  Biso   1.000  H
  H28      1.0000 0.39590  0.60210  0.98800  Biso   1.000  H
  C37      1.0000 0.87986  0.99020  0.47686  Biso   1.000  C
  C38      1.0000 0.62014  0.49020  0.02314  Biso   1.000  C
  C39      1.0000 0.12014  0.00980  0.52314  Biso   1.000  C
  C40      1.0000 0.37986  0.50980  0.97686  Biso   1.000  C
  H29      1.0000 0.87930  0.99830  0.41380  Biso   1.000  H
  H30      1.0000 0.62070  0.49830  0.08620  Biso   1.000  H
  H31      1.0000 0.12070  0.00170  0.58620  Biso   1.000  H
  H32      1.0000 0.37930  0.50170  0.91380  Biso   1.000  H
  C41      1.0000 0.60807  0.07966  0.51184  Biso   1.000  C
  C42      1.0000 0.89193  0.57966  0.98816  Biso   1.000  C
  C43      1.0000 0.39193  0.92034  0.48816  Biso   1.000  C
  C44      1.0000 0.10807  0.42034  0.01184  Biso   1.000  C
  C45      1.0000 0.60500  0.16244  0.42300  Biso   1.000  C
  C46      1.0000 0.89500  0.66244  0.07700  Biso   1.000  C
  C47      1.0000 0.39500  0.83756  0.57700  Biso   1.000  C
  C48      1.0000 0.10500  0.33756  0.92300  Biso   1.000  C
  H33      1.0000 0.61600  0.18140  0.36810  Biso   1.000  H
  H34      1.0000 0.88400  0.68140  0.13190  Biso   1.000  H
  H35      1.0000 0.38400  0.81860  0.63190  Biso   1.000  H
  H36      1.0000 0.11600  0.31860  0.86810  Biso   1.000  H
  C49      1.0000 0.57110  0.19554  0.49346  Biso   1.000  C
  C50      1.0000 0.92890  0.69554  0.00654  Biso   1.000  C
  C51      1.0000 0.42890  0.80446  0.50654  Biso   1.000  C
  C52      1.0000 0.07110  0.30446  0.99346  Biso   1.000  C
  H37      1.0000 0.55820  0.23560  0.48420  Biso   1.000  H
  H38      1.0000 0.94180  0.73560  0.01580  Biso   1.000  H
  H39      1.0000 0.44180  0.76440  0.51580  Biso   1.000  H
  H40      1.0000 0.05820  0.26440  0.98420  Biso   1.000  H
  C53      1.0000 0.57643  0.11320  0.58388  Biso   1.000  C
  C54      1.0000 0.92357  0.61320  0.91612  Biso   1.000  C
  C55      1.0000 0.42357  0.88680  0.41612  Biso   1.000  C
  C56      1.0000 0.07643  0.38680  0.08388  Biso   1.000  C
  H41      1.0000 0.56890  0.09480  0.64010  Biso   1.000  H
  H42      1.0000 0.93110  0.59480  0.85990  Biso   1.000  H
  H43      1.0000 0.43110  0.90520  0.35990  Biso   1.000  H
  H44      1.0000 0.06890  0.40520  0.14010  Biso   1.000  H
  C57      1.0000 0.35912  0.40322  0.03712  Biso   1.000  C
  C58      1.0000 0.14088  0.90322  0.46288  Biso   1.000  C
  C59      1.0000 0.64088  0.59678  0.96288  Biso   1.000  C
  C60      1.0000 0.85912  0.09678  0.53712  Biso   1.000  C
  C61      1.0000 0.31580  0.31403  0.09319  Biso   1.000  C
  C62      1.0000 0.18420  0.81403  0.40681  Biso   1.000  C
  C63      1.0000 0.68420  0.68597  0.90681  Biso   1.000  C
  C64      1.0000 0.81580  0.18597  0.59319  Biso   1.000  C
  H45      1.0000 0.29040  0.29140  0.13870  Biso   1.000  H
  H46      1.0000 0.20960  0.79140  0.36130  Biso   1.000  H
  H47      1.0000 0.70960  0.70860  0.86130  Biso   1.000  H
  H48      1.0000 0.79040  0.20860  0.63870  Biso   1.000  H
  C65      1.0000 0.34140  0.28630  0.01428  Biso   1.000  C
  C66      1.0000 0.15860  0.78630  0.48572  Biso   1.000  C
  C67      1.0000 0.65860  0.71370  0.98572  Biso   1.000  C
  C68      1.0000 0.84140  0.21370  0.51428  Biso   1.000  C
  H49      1.0000 0.83480  0.25450  0.50890  Biso   1.000  H
  H50      1.0000 0.66520  0.75450  0.99110  Biso   1.000  H
  H51      1.0000 0.16520  0.74550  0.49110  Biso   1.000  H
  H52      1.0000 0.33480  0.24550  0.00890  Biso   1.000  H
  C69      1.0000 0.88241  0.12497  0.45616  Biso   1.000  C
  C70      1.0000 0.61759  0.62497  0.04384  Biso   1.000  C
  C71      1.0000 0.11759  0.87503  0.54384  Biso   1.000  C
  C72      1.0000 0.38241  0.37503  0.95616  Biso   1.000  C
  H53      1.0000 0.90340  0.10230  0.40840  Biso   1.000  H
  H54      1.0000 0.59660  0.60230  0.09160  Biso   1.000  H
  H55      1.0000 0.09660  0.89770  0.59160  Biso   1.000  H
  H56      1.0000 0.40340  0.39770  0.90840  Biso   1.000  H
  C73      1.0000 0.28370  0.23428  0.68090  Biso   1.000  C
  C74      1.0000 0.21630  0.73428  0.81910  Biso   1.000  C
  C75      1.0000 0.71630  0.76572  0.31910  Biso   1.000  C
  C76      1.0000 0.78370  0.26572  0.18090  Biso   1.000  C
  C77      1.0000 0.17580  0.22797  0.63610  Biso   1.000  C
  C78      1.0000 0.32420  0.72797  0.86390  Biso   1.000  C
  C79      1.0000 0.82420  0.77203  0.36390  Biso   1.000  C
  C80      1.0000 0.67580  0.27203  0.13610  Biso   1.000  C
  H57      1.0000 0.15640  0.26410  0.60260  Biso   1.000  H
  H58      1.0000 0.34360  0.76410  0.89740  Biso   1.000  H
  H59      1.0000 0.84360  0.73590  0.39740  Biso   1.000  H
  H60      1.0000 0.65640  0.23590  0.10260  Biso   1.000  H
  H61      1.0000 0.17280  0.19620  0.59080  Biso   1.000  H
  H62      1.0000 0.32720  0.69620  0.90920  Biso   1.000  H
  H63      1.0000 0.82720  0.80380  0.40920  Biso   1.000  H
  H64      1.0000 0.67280  0.30380  0.09080  Biso   1.000  H
  C81      1.0000 0.10030  0.21560  0.70270  Biso   1.000  C
  C82      1.0000 0.39970  0.71560  0.79730  Biso   1.000  C
  C83      1.0000 0.89970  0.78440  0.29730  Biso   1.000  C
  C84      1.0000 0.60030  0.28440  0.20270  Biso   1.000  C
  C85      1.0000 0.10840  0.17670  0.77450  Biso   1.000  C
  C86      1.0000 0.39160  0.67670  0.72550  Biso   1.000  C
  C87      1.0000 0.89160  0.82330  0.22550  Biso   1.000  C
  C88      1.0000 0.60840  0.32330  0.27450  Biso   1.000  C
  C89      1.0000 0.10380  0.11530  0.73360  Biso   1.000  C
  C90      1.0000 0.39620  0.61530  0.76640  Biso   1.000  C
  C91      1.0000 0.89620  0.88470  0.26640  Biso   1.000  C
  C92      1.0000 0.60380  0.38470  0.23360  Biso   1.000  C
  C93      1.0000 0.08960  0.06130  0.81990  Biso   1.000  C
  C94      1.0000 0.41040  0.56130  0.68010  Biso   1.000  C
  C95      1.0000 0.91040  0.93870  0.18010  Biso   1.000  C
  C96      1.0000 0.58960  0.43870  0.31990  Biso   1.000  C
  C97      1.0000 0.48180  0.34280  0.67654  Biso   1.000  C
  C98      1.0000 0.01820  0.84280  0.82346  Biso   1.000  C
  C99      1.0000 0.51820  0.65720  0.32346  Biso   1.000  C
  C100     1.0000 0.98180  0.15720  0.17654  Biso   1.000  C
  C101     1.0000 0.49950  0.40219  0.63240  Biso   1.000  C
  C102     1.0000 0.00050  0.90219  0.86760  Biso   1.000  C
  C103     1.0000 0.50050  0.59781  0.36760  Biso   1.000  C
  C104     1.0000 0.99950  0.09781  0.13240  Biso   1.000  C
  H65      1.0000 0.44030  0.41290  0.59050  Biso   1.000  H
  H66      1.0000 0.05970  0.91290  0.90950  Biso   1.000  H
  H67      1.0000 0.55970  0.58710  0.40950  Biso   1.000  H
  H68      1.0000 0.94030  0.08710  0.09050  Biso   1.000  H
  H69      1.0000 0.50920  0.43200  0.68080  Biso   1.000  H
  H70      1.0000 0.99080  0.93200  0.81920  Biso   1.000  H
  H71      1.0000 0.49080  0.56800  0.31920  Biso   1.000  H
  H72      1.0000 0.00920  0.06800  0.18080  Biso   1.000  H
  C105     1.0000 0.58890  0.40198  0.57950  Biso   1.000  C
  C106     1.0000 0.91110  0.90198  0.92050  Biso   1.000  C
  C107     1.0000 0.41110  0.59802  0.42050  Biso   1.000  C
  C108     1.0000 0.08890  0.09802  0.07950  Biso   1.000  C
  H73      1.0000 0.59550  0.44070  0.55190  Biso   1.000  H
  H74      1.0000 0.90450  0.94070  0.94810  Biso   1.000  H
  H75      1.0000 0.40450  0.55930  0.44810  Biso   1.000  H
  H76      1.0000 0.09550  0.05930  0.05190  Biso   1.000  H
  H77      1.0000 0.57790  0.37340  0.52930  Biso   1.000  H
  H78      1.0000 0.92210  0.87340  0.97070  Biso   1.000  H
  H79      1.0000 0.42210  0.62660  0.47070  Biso   1.000  H
  H80      1.0000 0.07790  0.12660  0.02930  Biso   1.000  H
  C109     1.0000 0.68790  0.38659  0.64140  Biso   1.000  C
  C110     1.0000 0.81210  0.88659  0.85860  Biso   1.000  C
  C111     1.0000 0.31210  0.61341  0.35860  Biso   1.000  C
  C112     1.0000 0.18790  0.11341  0.14140  Biso   1.000  C
  H81      1.0000 0.70020  0.41630  0.68990  Biso   1.000  H
  H82      1.0000 0.79980  0.91630  0.81010  Biso   1.000  H
  H83      1.0000 0.29980  0.58370  0.31010  Biso   1.000  H
  H84      1.0000 0.20020  0.08370  0.18990  Biso   1.000  H
  H85      1.0000 0.67970  0.34880  0.67150  Biso   1.000  H
  H86      1.0000 0.82030  0.84880  0.82850  Biso   1.000  H
  H87      1.0000 0.32030  0.65120  0.32850  Biso   1.000  H
  H88      1.0000 0.17970  0.15120  0.17150  Biso   1.000  H
  C113     1.0000 0.77760  0.38330  0.58930  Biso   1.000  C
  C114     1.0000 0.72240  0.88330  0.91070  Biso   1.000  C
  C115     1.0000 0.22240  0.61670  0.41070  Biso   1.000  C
  C116     1.0000 0.27760  0.11670  0.08930  Biso   1.000  C
  H89      1.0000 0.76310  0.35610  0.53750  Biso   1.000  H
  H90      1.0000 0.73690  0.85610  0.96250  Biso   1.000  H
  H91      1.0000 0.23690  0.64390  0.46250  Biso   1.000  H
  H92      1.0000 0.26310  0.14390  0.03750  Biso   1.000  H
  H93      1.0000 0.78940  0.42200  0.56380  Biso   1.000  H
  H94      1.0000 0.71060  0.92200  0.93620  Biso   1.000  H
  H95      1.0000 0.21060  0.57800  0.43620  Biso   1.000  H
  H96      1.0000 0.28940  0.07800  0.06380  Biso   1.000  H
  C117     1.0000 0.87040  0.36350  0.64730  Biso   1.000  C
  C118     1.0000 0.62960  0.86350  0.85270  Biso   1.000  C
  C119     1.0000 0.12960  0.63650  0.35270  Biso   1.000  C
  C120     1.0000 0.37040  0.13650  0.14730  Biso   1.000  C
  H97      1.0000 0.89080  0.39300  0.69350  Biso   1.000  H
  H98      1.0000 0.60920  0.89300  0.80650  Biso   1.000  H
  H99      1.0000 0.10920  0.60700  0.30650  Biso   1.000  H
  H100     1.0000 0.39080  0.10700  0.19350  Biso   1.000  H
  H101     1.0000 0.92290  0.35770  0.60860  Biso   1.000  H
  H102     1.0000 0.57710  0.85770  0.89140  Biso   1.000  H
  H103     1.0000 0.07710  0.64230  0.39140  Biso   1.000  H
  H104     1.0000 0.42290  0.14230  0.10860  Biso   1.000  H
  H105     1.0000 0.85750  0.32700  0.67750  Biso   1.000  H
  H106     1.0000 0.64250  0.82700  0.82250  Biso   1.000  H
  H107     1.0000 0.14250  0.67300  0.32250  Biso   1.000  H
  H108     1.0000 0.35750  0.17300  0.17750  Biso   1.000  H
  C121     1.0000 0.64210  0.25685  0.83455  Biso   1.000  C
  C122     1.0000 0.85790  0.75685  0.66545  Biso   1.000  C
  C123     1.0000 0.35790  0.74315  0.16545  Biso   1.000  C
  C124     1.0000 0.14210  0.24315  0.33455  Biso   1.000  C
  C125     1.0000 0.75090  0.26098  0.87920  Biso   1.000  C
  C126     1.0000 0.74910  0.76098  0.62080  Biso   1.000  C
  C127     1.0000 0.24910  0.73902  0.12080  Biso   1.000  C
  C128     1.0000 0.25090  0.23902  0.37920  Biso   1.000  C
  H109     1.0000 0.75220  0.27400  0.94320  Biso   1.000  H
  H110     1.0000 0.74780  0.77400  0.55680  Biso   1.000  H
  H111     1.0000 0.24780  0.72600  0.05680  Biso   1.000  H
  H112     1.0000 0.25220  0.22600  0.44320  Biso   1.000  H
  H113     1.0000 0.78610  0.29020  0.84620  Biso   1.000  H
  H114     1.0000 0.71390  0.79020  0.65380  Biso   1.000  H
  H115     1.0000 0.21390  0.70980  0.15380  Biso   1.000  H
  H116     1.0000 0.28610  0.20980  0.34620  Biso   1.000  H
  C129     1.0000 0.80590  0.20070  0.87730  Biso   1.000  C
  C130     1.0000 0.69410  0.70070  0.62270  Biso   1.000  C
  C131     1.0000 0.19410  0.79930  0.12270  Biso   1.000  C
  C132     1.0000 0.30590  0.29930  0.37730  Biso   1.000  C
  H117     1.0000 0.80170  0.18670  0.81350  Biso   1.000  H
  H118     1.0000 0.69830  0.68670  0.68650  Biso   1.000  H
  H119     1.0000 0.19830  0.81330  0.18650  Biso   1.000  H
  H120     1.0000 0.30170  0.31330  0.31350  Biso   1.000  H
  H121     1.0000 0.87640  0.20600  0.90020  Biso   1.000  H
  H122     1.0000 0.62360  0.70600  0.59980  Biso   1.000  H
  H123     1.0000 0.12360  0.79400  0.09980  Biso   1.000  H
  H124     1.0000 0.37640  0.29400  0.40020  Biso   1.000  H
  C133     1.0000 0.76020  0.15350  0.93740  Biso   1.000  C
  C134     1.0000 0.73980  0.65350  0.56260  Biso   1.000  C
  C135     1.0000 0.23980  0.84650  0.06260  Biso   1.000  C
  C136     1.0000 0.26020  0.34650  0.43740  Biso   1.000  C
  H125     1.0000 0.78070  0.16290  0.00230  Biso   1.000  H
  H126     1.0000 0.71930  0.66290  0.49770  Biso   1.000  H
  H127     1.0000 0.21930  0.83710  0.99770  Biso   1.000  H
  H128     1.0000 0.28070  0.33710  0.50230  Biso   1.000  H
  H129     1.0000 0.68760  0.15730  0.92670  Biso   1.000  H
  H130     1.0000 0.81240  0.65730  0.57330  Biso   1.000  H
  H131     1.0000 0.31240  0.84270  0.07330  Biso   1.000  H
  H132     1.0000 0.18760  0.34270  0.42670  Biso   1.000  H
  C137     1.0000 0.78700  0.08810  0.92190  Biso   1.000  C
  C138     1.0000 0.71300  0.58810  0.57810  Biso   1.000  C
  C139     1.0000 0.21300  0.91190  0.07810  Biso   1.000  C
  C140     1.0000 0.28700  0.41190  0.42190  Biso   1.000  C
  H133     1.0000 0.85910  0.08490  0.92080  Biso   1.000  H
  H134     1.0000 0.64090  0.58490  0.57920  Biso   1.000  H
  H135     1.0000 0.14090  0.91510  0.07920  Biso   1.000  H
  H136     1.0000 0.35910  0.41510  0.42080  Biso   1.000  H
  H137     1.0000 0.76960  0.06490  0.97390  Biso   1.000  H
  H138     1.0000 0.73040  0.56490  0.52610  Biso   1.000  H
  H139     1.0000 0.23040  0.93510  0.02610  Biso   1.000  H
  H140     1.0000 0.26960  0.43510  0.47390  Biso   1.000  H
  C141     1.0000 0.73730  0.06420  0.83820  Biso   1.000  C
  C142     1.0000 0.76270  0.56420  0.66180  Biso   1.000  C
  C143     1.0000 0.26270  0.93580  0.16180  Biso   1.000  C
  C144     1.0000 0.23730  0.43580  0.33820  Biso   1.000  C
  H141     1.0000 0.66610  0.07020  0.83640  Biso   1.000  H
  H142     1.0000 0.83390  0.57020  0.66360  Biso   1.000  H
  H143     1.0000 0.33390  0.92980  0.16360  Biso   1.000  H
  H144     1.0000 0.16610  0.42980  0.33640  Biso   1.000  H
  H145     1.0000 0.75120  0.02270  0.83560  Biso   1.000  H
  H146     1.0000 0.74880  0.52270  0.66440  Biso   1.000  H
  H147     1.0000 0.24880  0.97730  0.16440  Biso   1.000  H
  H148     1.0000 0.25120  0.47730  0.33560  Biso   1.000  H
  H149     1.0000 0.76080  0.08370  0.78590  Biso   1.000  H
  H150     1.0000 0.73920  0.58370  0.71410  Biso   1.000  H
  H151     1.0000 0.23920  0.91630  0.21410  Biso   1.000  H
  H152     1.0000 0.26080  0.41630  0.28590  Biso   1.000  H
  C145     1.0000 0.44930  0.14781  0.83903  Biso   1.000  C
  C146     1.0000 0.05070  0.64781  0.66097  Biso   1.000  C
  C147     1.0000 0.55070  0.85219  0.16097  Biso   1.000  C
  C148     1.0000 0.94930  0.35219  0.33903  Biso   1.000  C
  C149     1.0000 0.44350  0.08922  0.88760  Biso   1.000  C
  C150     1.0000 0.05650  0.58922  0.61240  Biso   1.000  C
  C151     1.0000 0.55650  0.91078  0.11240  Biso   1.000  C
  C152     1.0000 0.94350  0.41078  0.38760  Biso   1.000  C
  H153     1.0000 0.39620  0.09280  0.93300  Biso   1.000  H
  H154     1.0000 0.10380  0.59280  0.56700  Biso   1.000  H
  H155     1.0000 0.60380  0.90720  0.06700  Biso   1.000  H
  H156     1.0000 0.89620  0.40720  0.43300  Biso   1.000  H
  H157     1.0000 0.50890  0.08060  0.92130  Biso   1.000  H
  H158     1.0000 0.99110  0.58060  0.57870  Biso   1.000  H
  H159     1.0000 0.49110  0.91940  0.07870  Biso   1.000  H
  H160     1.0000 0.00890  0.41940  0.42130  Biso   1.000  H
  C153     1.0000 0.41180  0.03731  0.82400  Biso   1.000  C
  C154     1.0000 0.08820  0.53731  0.67600  Biso   1.000  C
  C155     1.0000 0.58820  0.96269  0.17600  Biso   1.000  C
  C156     1.0000 0.91180  0.46269  0.32400  Biso   1.000  C
  H161     1.0000 0.34680  0.04580  0.78950  Biso   1.000  H
  H162     1.0000 0.15320  0.54580  0.71050  Biso   1.000  H
  H163     1.0000 0.65320  0.95420  0.21050  Biso   1.000  H
  H164     1.0000 0.84680  0.45420  0.28950  Biso   1.000  H
  H165     1.0000 0.45990  0.03270  0.77950  Biso   1.000  H
  H166     1.0000 0.04010  0.53270  0.72050  Biso   1.000  H
  H167     1.0000 0.54010  0.96730  0.22050  Biso   1.000  H
  H168     1.0000 0.95990  0.46730  0.27950  Biso   1.000  H
  C157     1.0000 0.40520  0.98043  0.87640  Biso   1.000  C
  C158     1.0000 0.09480  0.48043  0.62360  Biso   1.000  C
  C159     1.0000 0.59480  0.01957  0.12360  Biso   1.000  C
  C160     1.0000 0.90520  0.51957  0.37640  Biso   1.000  C
  H169     1.0000 0.35910  0.98600  0.92240  Biso   1.000  H
  H170     1.0000 0.14090  0.48600  0.57760  Biso   1.000  H
  H171     1.0000 0.64090  0.01400  0.07760  Biso   1.000  H
  H172     1.0000 0.85910  0.51400  0.42240  Biso   1.000  H
  H173     1.0000 0.47090  0.97180  0.90950  Biso   1.000  H
  H174     1.0000 0.02910  0.47180  0.59050  Biso   1.000  H
  H175     1.0000 0.52910  0.02820  0.09050  Biso   1.000  H
  H176     1.0000 0.97090  0.52820  0.40950  Biso   1.000  H
  C161     1.0000 0.37110  0.92750  0.81730  Biso   1.000  C
  C162     1.0000 0.12890  0.42750  0.68270  Biso   1.000  C
  C163     1.0000 0.62890  0.07250  0.18270  Biso   1.000  C
  C164     1.0000 0.87110  0.57250  0.31730  Biso   1.000  C
  H177     1.0000 0.41130  0.92570  0.76590  Biso   1.000  H
  H178     1.0000 0.08870  0.42570  0.73410  Biso   1.000  H
  H179     1.0000 0.58870  0.07430  0.23410  Biso   1.000  H
  H180     1.0000 0.91130  0.57430  0.26590  Biso   1.000  H
  H181     1.0000 0.38590  0.89230  0.85460  Biso   1.000  H
  H182     1.0000 0.11410  0.39230  0.64540  Biso   1.000  H
  H183     1.0000 0.61410  0.10770  0.14540  Biso   1.000  H
  H184     1.0000 0.88590  0.60770  0.35460  Biso   1.000  H
  C165     1.0000 0.26810  0.92540  0.77980  Biso   1.000  C
  C166     1.0000 0.23190  0.42540  0.72020  Biso   1.000  C
  C167     1.0000 0.73190  0.07460  0.22020  Biso   1.000  C
  C168     1.0000 0.76810  0.57460  0.27980  Biso   1.000  C
  H185     1.0000 0.22670  0.93070  0.82890  Biso   1.000  H
  H186     1.0000 0.27330  0.43070  0.67110  Biso   1.000  H
  H187     1.0000 0.77330  0.06930  0.17110  Biso   1.000  H
  H188     1.0000 0.72670  0.56930  0.32890  Biso   1.000  H
  H189     1.0000 0.25360  0.88770  0.75060  Biso   1.000  H
  H190     1.0000 0.24640  0.38770  0.74940  Biso   1.000  H
  H191     1.0000 0.74640  0.11230  0.24940  Biso   1.000  H
  H192     1.0000 0.75360  0.61230  0.25060  Biso   1.000  H
  H193     1.0000 0.25440  0.95630  0.73450  Biso   1.000  H
  H194     1.0000 0.24560  0.45630  0.76550  Biso   1.000  H
  H195     1.0000 0.74560  0.04370  0.26550  Biso   1.000  H
  H196     1.0000 0.75440  0.54370  0.23450  Biso   1.000  H
  N1       1.0000 0.62247  0.10450  0.43066  Biso   1.000  N
  N2       1.0000 0.87753  0.60450  0.06934  Biso   1.000  N
  N3       1.0000 0.37753  0.89550  0.56934  Biso   1.000  N
  N4       1.0000 0.12247  0.39550  0.93066  Biso   1.000  N
  N5       1.0000 0.55665  0.17075  0.57451  Biso   1.000  N
  N6       1.0000 0.94335  0.67075  0.92549  Biso   1.000  N
  N7       1.0000 0.44335  0.82925  0.42549  Biso   1.000  N
  N8       1.0000 0.05665  0.32925  0.07451  Biso   1.000  N
  N9       1.0000 0.32603  0.37233  0.10643  Biso   1.000  N
  N10      1.0000 0.17397  0.87233  0.39357  Biso   1.000  N
  N11      1.0000 0.67397  0.62767  0.89357  Biso   1.000  N
  N12      1.0000 0.82603  0.12767  0.60643  Biso   1.000  N
  N13      1.0000 0.37530  0.31667  0.94585  Biso   1.000  N
  N14      1.0000 0.12470  0.81667  0.55415  Biso   1.000  N
  N15      1.0000 0.62470  0.68333  0.05415  Biso   1.000  N
  N16      1.0000 0.87530  0.18333  0.44585  Biso   1.000  N
  O1       1.0000 0.35100  0.21109  0.64014  Biso   1.000  O
  O2       1.0000 0.14900  0.71109  0.85986  Biso   1.000  O
  O3       1.0000 0.64900  0.78891  0.35986  Biso   1.000  O
  O4       1.0000 0.85100  0.28891  0.14014  Biso   1.000  O
  O5       1.0000 0.29780  0.26267  0.75585  Biso   1.000  O
  O6       1.0000 0.20220  0.76267  0.74415  Biso   1.000  O
  O7       1.0000 0.70220  0.73733  0.24415  Biso   1.000  O
  O8       1.0000 0.79780  0.23733  0.25585  Biso   1.000  O
  O9       1.0000 0.49518  0.29714  0.62975  Biso   1.000  O
  O10      1.0000 0.00482  0.79714  0.87025  Biso   1.000  O
  O11      1.0000 0.50482  0.70286  0.37025  Biso   1.000  O
  O12      1.0000 0.99518  0.20286  0.12975  Biso   1.000  O
  O13      1.0000 0.45512  0.34401  0.75652  Biso   1.000  O
  O14      1.0000 0.04488  0.84401  0.74348  Biso   1.000  O
  O15      1.0000 0.54488  0.65599  0.24348  Biso   1.000  O
  O16      1.0000 0.95512  0.15599  0.25652  Biso   1.000  O
  O17      1.0000 0.62860  0.23529  0.75428  Biso   1.000  O
  O18      1.0000 0.87140  0.73529  0.74572  Biso   1.000  O
  O19      1.0000 0.37140  0.76471  0.24572  Biso   1.000  O
  O20      1.0000 0.12860  0.26471  0.25428  Biso   1.000  O
  O21      1.0000 0.57425  0.27469  0.88014  Biso   1.000  O
  O22      1.0000 0.92575  0.77469  0.61986  Biso   1.000  O
  O23      1.0000 0.42575  0.72531  0.11986  Biso   1.000  O
  O24      1.0000 0.07425  0.22531  0.38014  Biso   1.000  O
  O25      1.0000 0.48422  0.14731  0.76228  Biso   1.000  O
  O26      1.0000 0.01578  0.64731  0.73772  Biso   1.000  O
  O27      1.0000 0.51578  0.85269  0.23772  Biso   1.000  O
  O28      1.0000 0.98422  0.35269  0.26228  Biso   1.000  O
  O29      1.0000 0.41995  0.19234  0.87884  Biso   1.000  O
  O30      1.0000 0.08005  0.69234  0.62116  Biso   1.000  O
  O31      1.0000 0.58005  0.80766  0.12116  Biso   1.000  O
  O32      1.0000 0.91995  0.30766  0.37884  Biso   1.000  O
  C169     1.0000 0.13490  0.14600  0.73830  Biso   1.000  C
  C170     1.0000 0.36510  0.64600  0.76170  Biso   1.000  C
  C171     1.0000 0.86510  0.85400  0.26170  Biso   1.000  C
  C172     1.0000 0.63490  0.35400  0.23830  Biso   1.000  C
  C173     1.0000 0.05690  0.12030  0.79970  Biso   1.000  C
  C174     1.0000 0.44310  0.62030  0.70030  Biso   1.000  C
  C175     1.0000 0.94310  0.87970  0.20030  Biso   1.000  C
  C176     1.0000 0.55690  0.37970  0.29970  Biso   1.000  C
