data_image0
_cell_length_a       9.516
_cell_length_b       14.917
_cell_length_c       12.247
_cell_angle_alpha    90
_cell_angle_beta     92
_cell_angle_gamma    90

_symmetry_space_group_name_H-M    "P 1"
_symmetry_int_tables_number       1

loop_
  _symmetry_equiv_pos_as_xyz
  'x, y, z'

loop_
  _atom_site_label
  _atom_site_occupancy
  _atom_site_fract_x
  _atom_site_fract_y
  _atom_site_fract_z
  _atom_site_thermal_displace_type
  _atom_site_B_iso_or_equiv
  _atom_site_type_symbol
  Cu1      1.0000 0.06028  0.25374  0.22760  Biso   1.000  Cu
  Cu2      1.0000 0.56028  0.24626  0.72760  Biso   1.000  Cu
  Cu3      1.0000 0.93972  0.74626  0.77240  Biso   1.000  Cu
  Cu4      1.0000 0.43972  0.75374  0.27240  Biso   1.000  Cu
  N1       1.0000 0.06150  0.28270  0.07000  Biso   1.000  N
  N2       1.0000 0.56150  0.21730  0.57000  Biso   1.000  N
  N3       1.0000 0.93850  0.71730  0.93000  Biso   1.000  N
  N4       1.0000 0.43850  0.78270  0.43000  Biso   1.000  N
  N5       1.0000 0.04410  0.21870  0.37750  Biso   1.000  N
  N6       1.0000 0.54410  0.28130  0.87750  Biso   1.000  N
  N7       1.0000 0.95590  0.78130  0.62250  Biso   1.000  N
  N8       1.0000 0.45590  0.71870  0.12250  Biso   1.000  N
  O1       1.0000 0.88920  0.37620  0.19940  Biso   1.000  O
  O2       1.0000 0.38920  0.12380  0.69940  Biso   1.000  O
  O3       1.0000 0.11080  0.62380  0.80060  Biso   1.000  O
  O4       1.0000 0.61080  0.87620  0.30060  Biso   1.000  O
  O5       1.0000 0.82140  0.46220  0.05780  Biso   1.000  O
  O6       1.0000 0.32140  0.03780  0.55780  Biso   1.000  O
  O7       1.0000 0.17860  0.53780  0.94220  Biso   1.000  O
  O8       1.0000 0.67860  0.96220  0.44220  Biso   1.000  O
  H1       1.0000 0.76810  0.49290  0.09630  Biso   1.000  H
  H2       1.0000 0.26810  0.00710  0.59630  Biso   1.000  H
  H3       1.0000 0.23190  0.50710  0.90370  Biso   1.000  H
  H4       1.0000 0.73190  0.99290  0.40370  Biso   1.000  H
  O9       1.0000 0.22810  0.16460  0.16840  Biso   1.000  O
  O10      1.0000 0.72810  0.33540  0.66840  Biso   1.000  O
  O11      1.0000 0.77190  0.83540  0.83160  Biso   1.000  O
  O12      1.0000 0.27190  0.66460  0.33160  Biso   1.000  O
  O13      1.0000 0.31000  0.11630  0.00960  Biso   1.000  O
  O14      1.0000 0.81000  0.38370  0.50960  Biso   1.000  O
  O15      1.0000 0.69000  0.88370  0.99040  Biso   1.000  O
  O16      1.0000 0.19000  0.61630  0.49040  Biso   1.000  O
  O17      1.0000 0.90770  0.15710  0.21160  Biso   1.000  O
  O18      1.0000 0.40770  0.34290  0.71160  Biso   1.000  O
  O19      1.0000 0.09230  0.84290  0.78840  Biso   1.000  O
  O20      1.0000 0.59230  0.65710  0.28840  Biso   1.000  O
  O21      1.0000 0.81080  0.04600  0.30210  Biso   1.000  O
  O22      1.0000 0.31080  0.45400  0.80210  Biso   1.000  O
  O23      1.0000 0.18920  0.95400  0.69790  Biso   1.000  O
  O24      1.0000 0.68920  0.54600  0.19790  Biso   1.000  O
  O25      1.0000 0.18650  0.34870  0.30250  Biso   1.000  O
  O26      1.0000 0.68650  0.15130  0.80250  Biso   1.000  O
  O27      1.0000 0.81350  0.65130  0.69750  Biso   1.000  O
  O28      1.0000 0.31350  0.84870  0.19750  Biso   1.000  O
  O29      1.0000 0.27280  0.38780  0.46780  Biso   1.000  O
  O30      1.0000 0.77280  0.11220  0.96780  Biso   1.000  O
  O31      1.0000 0.72720  0.61220  0.53220  Biso   1.000  O
  O32      1.0000 0.22720  0.88780  0.03220  Biso   1.000  O
  C1       1.0000 0.89150  0.39720  0.10360  Biso   1.000  C
  C2       1.0000 0.39150  0.10280  0.60360  Biso   1.000  C
  C3       1.0000 0.10850  0.60280  0.89640  Biso   1.000  C
  C4       1.0000 0.60850  0.89720  0.39640  Biso   1.000  C
  C5       1.0000 0.97590  0.34570  0.02410  Biso   1.000  C
  C6       1.0000 0.47590  0.15430  0.52410  Biso   1.000  C
  C7       1.0000 0.02410  0.65430  0.97590  Biso   1.000  C
  C8       1.0000 0.52410  0.84570  0.47590  Biso   1.000  C
  C9       1.0000 0.96570  0.35880  0.91400  Biso   1.000  C
  C10      1.0000 0.46570  0.14120  0.41400  Biso   1.000  C
  C11      1.0000 0.03430  0.64120  0.08600  Biso   1.000  C
  C12      1.0000 0.53430  0.85880  0.58600  Biso   1.000  C
  H5       1.0000 0.90540  0.40190  0.88400  Biso   1.000  H
  H6       1.0000 0.40540  0.09810  0.38400  Biso   1.000  H
  H7       1.0000 0.09460  0.59810  0.11600  Biso   1.000  H
  H8       1.0000 0.59460  0.90190  0.61600  Biso   1.000  H
  C13      1.0000 0.04730  0.30630  0.84810  Biso   1.000  C
  C14      1.0000 0.54730  0.19370  0.34810  Biso   1.000  C
  C15      1.0000 0.95270  0.69370  0.15190  Biso   1.000  C
  C16      1.0000 0.45270  0.80630  0.65190  Biso   1.000  C
  H9       1.0000 0.04110  0.31320  0.77260  Biso   1.000  H
  H10      1.0000 0.54110  0.18680  0.27260  Biso   1.000  H
  H11      1.0000 0.95890  0.68680  0.22740  Biso   1.000  H
  H12      1.0000 0.45890  0.81320  0.72740  Biso   1.000  H
  C17      1.0000 0.13690  0.24430  0.89400  Biso   1.000  C
  C18      1.0000 0.63690  0.25570  0.39400  Biso   1.000  C
  C19      1.0000 0.86310  0.75570  0.10600  Biso   1.000  C
  C20      1.0000 0.36310  0.74430  0.60600  Biso   1.000  C
  H13      1.0000 0.19390  0.20980  0.85030  Biso   1.000  H
  H14      1.0000 0.69390  0.29020  0.35030  Biso   1.000  H
  H15      1.0000 0.80610  0.79020  0.14970  Biso   1.000  H
  H16      1.0000 0.30610  0.70980  0.64970  Biso   1.000  H
  C21      1.0000 0.14200  0.23330  0.00740  Biso   1.000  C
  C22      1.0000 0.64200  0.26670  0.50740  Biso   1.000  C
  C23      1.0000 0.85800  0.76670  0.99260  Biso   1.000  C
  C24      1.0000 0.35800  0.73330  0.49260  Biso   1.000  C
  C25      1.0000 0.23440  0.16490  0.06660  Biso   1.000  C
  C26      1.0000 0.73440  0.33510  0.56660  Biso   1.000  C
  C27      1.0000 0.76560  0.83510  0.93340  Biso   1.000  C
  C28      1.0000 0.26560  0.66490  0.43340  Biso   1.000  C
  C29      1.0000 0.88760  0.11460  0.29900  Biso   1.000  C
  C30      1.0000 0.38760  0.38540  0.79900  Biso   1.000  C
  C31      1.0000 0.11240  0.88540  0.70100  Biso   1.000  C
  C32      1.0000 0.61240  0.61460  0.20100  Biso   1.000  C
  C33      1.0000 0.96100  0.14990  0.40020  Biso   1.000  C
  C34      1.0000 0.46100  0.35010  0.90020  Biso   1.000  C
  C35      1.0000 0.03900  0.85010  0.59980  Biso   1.000  C
  C36      1.0000 0.53900  0.64990  0.09980  Biso   1.000  C
  C37      1.0000 0.94990  0.12180  0.50650  Biso   1.000  C
  C38      1.0000 0.44990  0.37820  0.00650  Biso   1.000  C
  C39      1.0000 0.05010  0.87820  0.49350  Biso   1.000  C
  C40      1.0000 0.55010  0.62180  0.99350  Biso   1.000  C
  H17      1.0000 0.89090  0.07450  0.52360  Biso   1.000  H
  H18      1.0000 0.39090  0.42550  0.02360  Biso   1.000  H
  H19      1.0000 0.10910  0.92550  0.47640  Biso   1.000  H
  H20      1.0000 0.60910  0.57450  0.97640  Biso   1.000  H
  C41      1.0000 0.02940  0.16590  0.58820  Biso   1.000  C
  C42      1.0000 0.52940  0.33410  0.08820  Biso   1.000  C
  C43      1.0000 0.97060  0.83410  0.41180  Biso   1.000  C
  C44      1.0000 0.47060  0.66590  0.91180  Biso   1.000  C
  H21      1.0000 0.02530  0.14720  0.66050  Biso   1.000  H
  H22      1.0000 0.52530  0.35280  0.16050  Biso   1.000  H
  H23      1.0000 0.97470  0.85280  0.33950  Biso   1.000  H
  H24      1.0000 0.47470  0.64720  0.83950  Biso   1.000  H
  C45      1.0000 0.11520  0.23810  0.56110  Biso   1.000  C
  C46      1.0000 0.61520  0.26190  0.06110  Biso   1.000  C
  C47      1.0000 0.88480  0.76190  0.43890  Biso   1.000  C
  C48      1.0000 0.38480  0.73810  0.93890  Biso   1.000  C
  H25      1.0000 0.16830  0.26840  0.61460  Biso   1.000  H
  H26      1.0000 0.66830  0.23160  0.11460  Biso   1.000  H
  H27      1.0000 0.83170  0.73160  0.38540  Biso   1.000  H
  H28      1.0000 0.33170  0.76840  0.88540  Biso   1.000  H
  C49      1.0000 0.11880  0.26320  0.45320  Biso   1.000  C
  C50      1.0000 0.61880  0.23680  0.95320  Biso   1.000  C
  C51      1.0000 0.88120  0.73680  0.54680  Biso   1.000  C
  C52      1.0000 0.38120  0.76320  0.04680  Biso   1.000  C
  C53      1.0000 0.20050  0.34010  0.40590  Biso   1.000  C
  C54      1.0000 0.70050  0.15990  0.90590  Biso   1.000  C
  C55      1.0000 0.79950  0.65990  0.59410  Biso   1.000  C
  C56      1.0000 0.29950  0.84010  0.09410  Biso   1.000  C
  Na1      1.0000 0.24790  0.99260  0.88950  Biso   1.000  Na
  Na2      1.0000 0.74790  0.50740  0.38950  Biso   1.000  Na
  Na3      1.0000 0.75210  0.00740  0.11050  Biso   1.000  Na
  Na4      1.0000 0.25210  0.49260  0.61050  Biso   1.000  Na
  O33      1.0000 0.48430  0.96700  0.85560  Biso   1.000  O
  O34      1.0000 0.98430  0.53300  0.35560  Biso   1.000  O
  O35      1.0000 0.51570  0.03300  0.14440  Biso   1.000  O
  O36      1.0000 0.01570  0.46700  0.64440  Biso   1.000  O
  H29      1.0000 0.51880  0.93110  0.90330  Biso   1.000  H
  H30      1.0000 0.01880  0.56890  0.40330  Biso   1.000  H
  H31      1.0000 0.48120  0.06890  0.09670  Biso   1.000  H
  H32      1.0000 0.98120  0.43110  0.59670  Biso   1.000  H
  H33      1.0000 0.56940  0.99430  0.11660  Biso   1.000  H
  H34      1.0000 0.06940  0.50570  0.61660  Biso   1.000  H
  H35      1.0000 0.43060  0.00570  0.88340  Biso   1.000  H
  H36      1.0000 0.93060  0.49430  0.38340  Biso   1.000  H
  O37      1.0000 0.02390  0.04490  0.87520  Biso   1.000  O
  O38      1.0000 0.52390  0.45510  0.37520  Biso   1.000  O
  O39      1.0000 0.97610  0.95510  0.12480  Biso   1.000  O
  O40      1.0000 0.47610  0.54490  0.62480  Biso   1.000  O
  H37      1.0000 0.98690  0.02980  0.81370  Biso   1.000  H
  H38      1.0000 0.48690  0.47020  0.31370  Biso   1.000  H
  H39      1.0000 0.01310  0.97020  0.18630  Biso   1.000  H
  H40      1.0000 0.51310  0.52980  0.68630  Biso   1.000  H
  H41      1.0000 0.96020  0.08010  0.89680  Biso   1.000  H
  H42      1.0000 0.46020  0.41990  0.39680  Biso   1.000  H
  H43      1.0000 0.03980  0.91990  0.10320  Biso   1.000  H
  H44      1.0000 0.53980  0.58010  0.60320  Biso   1.000  H
  O41      1.0000 0.19020  0.00580  0.28980  Biso   1.000  O
  O42      1.0000 0.69020  0.49420  0.78980  Biso   1.000  O
  O43      1.0000 0.80980  0.99420  0.71020  Biso   1.000  O
  O44      1.0000 0.30980  0.50580  0.21020  Biso   1.000  O
  H45      1.0000 0.24370  0.96740  0.26100  Biso   1.000  H
  H46      1.0000 0.74370  0.53260  0.76100  Biso   1.000  H
  H47      1.0000 0.75630  0.03260  0.73900  Biso   1.000  H
  H48      1.0000 0.25630  0.46740  0.23900  Biso   1.000  H
  H49      1.0000 0.23310  0.04960  0.26170  Biso   1.000  H
  H50      1.0000 0.73310  0.45040  0.76170  Biso   1.000  H
  H51      1.0000 0.76690  0.95040  0.73830  Biso   1.000  H
  H52      1.0000 0.26690  0.54960  0.23830  Biso   1.000  H
