data_image0
_cell_length_a       10.0913
_cell_length_b       11.5512
_cell_length_c       15.0457
_cell_angle_alpha    105.423
_cell_angle_beta     100.85
_cell_angle_gamma    100.155

_symmetry_space_group_name_H-M    "P 1"
_symmetry_int_tables_number       1

loop_
  _symmetry_equiv_pos_as_xyz
  'x, y, z'

loop_
  _atom_site_label
  _atom_site_occupancy
  _atom_site_fract_x
  _atom_site_fract_y
  _atom_site_fract_z
  _atom_site_thermal_displace_type
  _atom_site_B_iso_or_equiv
  _atom_site_type_symbol
  Cu1      1.0000 0.50000  0.00000  0.50000  Biso   1.000  Cu
  Cu2      1.0000 0.00000  0.00000  0.00000  Biso   1.000  Cu
  Fe1      1.0000 0.07001  0.16271  0.35904  Biso   1.000  Fe
  Fe2      1.0000 0.92999  0.83729  0.64096  Biso   1.000  Fe
  O1       1.0000 0.47220  0.48120  0.27540  Biso   1.000  O
  O2       1.0000 0.52780  0.51880  0.72460  Biso   1.000  O
  H1       1.0000 0.48540  0.48190  0.22340  Biso   1.000  H
  H2       1.0000 0.51460  0.51810  0.77660  Biso   1.000  H
  N1       1.0000 0.25170  0.00760  0.43970  Biso   1.000  N
  N2       1.0000 0.74830  0.99240  0.56030  Biso   1.000  N
  N3       1.0000 0.12790  0.03700  0.16800  Biso   1.000  N
  N4       1.0000 0.87210  0.96300  0.83200  Biso   1.000  N
  N5       1.0000 0.80850  0.95160  0.31680  Biso   1.000  N
  N6       1.0000 0.19150  0.04840  0.68320  Biso   1.000  N
  N7       1.0000 0.88560  0.29300  0.25120  Biso   1.000  N
  N8       1.0000 0.11440  0.70700  0.74880  Biso   1.000  N
  N9       1.0000 0.31440  0.37760  0.37820  Biso   1.000  N
  N10      1.0000 0.68560  0.62240  0.62180  Biso   1.000  N
  N11      1.0000 0.04450  0.24930  0.48540  Biso   1.000  N
  N12      1.0000 0.95550  0.75070  0.51460  Biso   1.000  N
  N13      1.0000 0.02920  0.29600  0.63260  Biso   1.000  N
  N14      1.0000 0.97080  0.70400  0.36740  Biso   1.000  N
  N15      1.0000 0.10020  0.87060  0.95700  Biso   1.000  N
  N16      1.0000 0.89980  0.12940  0.04300  Biso   1.000  N
  H3       1.0000 0.06190  0.83370  0.89350  Biso   1.000  H
  H4       1.0000 0.93810  0.16630  0.10650  Biso   1.000  H
  N17      1.0000 0.55200  0.18110  0.50490  Biso   1.000  N
  N18      1.0000 0.44800  0.81890  0.49510  Biso   1.000  N
  H5       1.0000 0.47120  0.20450  0.49030  Biso   1.000  H
  H6       1.0000 0.52880  0.79550  0.50970  Biso   1.000  H
  N19      1.0000 0.53340  0.96120  0.36950  Biso   1.000  N
  N20      1.0000 0.46660  0.03880  0.63050  Biso   1.000  N
  H7       1.0000 0.61990  0.94690  0.37540  Biso   1.000  H
  H8       1.0000 0.38010  0.05310  0.62460  Biso   1.000  H
  N21      1.0000 0.16320  0.12110  0.99090  Biso   1.000  N
  N22      1.0000 0.83680  0.87890  0.00910  Biso   1.000  N
  H9       1.0000 0.21710  0.15840  0.05120  Biso   1.000  H
  H10      1.0000 0.78290  0.84160  0.94880  Biso   1.000  H
  C1       1.0000 0.18360  0.06710  0.41250  Biso   1.000  C
  C2       1.0000 0.81640  0.93290  0.58750  Biso   1.000  C
  C3       1.0000 0.10680  0.08340  0.23950  Biso   1.000  C
  C4       1.0000 0.89320  0.91660  0.76050  Biso   1.000  C
  C5       1.0000 0.90700  0.02960  0.33380  Biso   1.000  C
  C6       1.0000 0.09300  0.97040  0.66620  Biso   1.000  C
  C7       1.0000 0.95320  0.24750  0.29350  Biso   1.000  C
  C8       1.0000 0.04680  0.75250  0.70650  Biso   1.000  C
  C9       1.0000 0.22830  0.29660  0.37310  Biso   1.000  C
  C10      1.0000 0.77170  0.70340  0.62690  Biso   1.000  C
  C11      1.0000 0.03940  0.21000  0.55820  Biso   1.000  C
  C12      1.0000 0.96060  0.79000  0.44180  Biso   1.000  C
  H11      1.0000 0.04260  0.13000  0.55790  Biso   1.000  H
  H12      1.0000 0.95740  0.87000  0.44210  Biso   1.000  H
  C13      1.0000 0.03090  0.39820  0.60860  Biso   1.000  C
  C14      1.0000 0.96910  0.60180  0.39140  Biso   1.000  C
  H13      1.0000 0.02610  0.47440  0.64700  Biso   1.000  H
  H14      1.0000 0.97390  0.52560  0.35300  Biso   1.000  H
  C15      1.0000 0.04070  0.37050  0.51800  Biso   1.000  C
  C16      1.0000 0.95930  0.62950  0.48200  Biso   1.000  C
  H15      1.0000 0.04440  0.42550  0.48280  Biso   1.000  H
  H16      1.0000 0.95560  0.57450  0.51720  Biso   1.000  H
  C17      1.0000 0.02610  0.28420  0.72760  Biso   1.000  C
  C18      1.0000 0.97390  0.71580  0.27240  Biso   1.000  C
  C19      1.0000 0.62260  0.18500  0.42640  Biso   1.000  C
  C20      1.0000 0.37740  0.81500  0.57360  Biso   1.000  C
  H17      1.0000 0.71540  0.17140  0.44560  Biso   1.000  H
  H18      1.0000 0.28460  0.82860  0.55440  Biso   1.000  H
  C21      1.0000 0.53930  0.07540  0.34060  Biso   1.000  C
  C22      1.0000 0.46070  0.92460  0.65940  Biso   1.000  C
  H19      1.0000 0.44620  0.08540  0.31990  Biso   1.000  H
  H20      1.0000 0.55380  0.91460  0.68010  Biso   1.000  H
  H21      1.0000 0.58380  0.06990  0.28820  Biso   1.000  H
  H22      1.0000 0.41620  0.93010  0.71180  Biso   1.000  H
  C23      1.0000 0.43730  0.84940  0.29770  Biso   1.000  C
  C24      1.0000 0.56270  0.15060  0.70230  Biso   1.000  C
  H23      1.0000 0.34430  0.86310  0.28700  Biso   1.000  H
  H24      1.0000 0.65570  0.13690  0.71300  Biso   1.000  H
  H25      1.0000 0.46460  0.83740  0.23810  Biso   1.000  H
  H26      1.0000 0.53540  0.16260  0.76190  Biso   1.000  H
  N23      1.0000 0.43400  0.73820  0.32470  Biso   1.000  N
  N24      1.0000 0.56600  0.26180  0.67530  Biso   1.000  N
  C25      1.0000 0.36800  0.73390  0.40080  Biso   1.000  C
  C26      1.0000 0.63200  0.26610  0.59920  Biso   1.000  C
  H27      1.0000 0.35130  0.65010  0.40430  Biso   1.000  H
  H28      1.0000 0.64870  0.34990  0.59570  Biso   1.000  H
  H29      1.0000 0.27840  0.75320  0.38560  Biso   1.000  H
  H30      1.0000 0.72160  0.24680  0.61440  Biso   1.000  H
  C27      1.0000 0.63990  0.30850  0.40590  Biso   1.000  C
  C28      1.0000 0.36010  0.69150  0.59410  Biso   1.000  C
  H31      1.0000 0.69180  0.37370  0.46270  Biso   1.000  H
  H32      1.0000 0.30820  0.62630  0.53730  Biso   1.000  H
  H33      1.0000 0.55010  0.32310  0.38540  Biso   1.000  H
  H34      1.0000 0.44990  0.67690  0.61460  Biso   1.000  H
  H35      1.0000 0.68880  0.30640  0.35680  Biso   1.000  H
  H36      1.0000 0.31120  0.69360  0.64320  Biso   1.000  H
  C29      1.0000 0.56720  0.69750  0.33170  Biso   1.000  C
  C30      1.0000 0.43280  0.30250  0.66830  Biso   1.000  C
  H37      1.0000 0.59610  0.69540  0.27350  Biso   1.000  H
  H38      1.0000 0.40390  0.30460  0.72650  Biso   1.000  H
  H39      1.0000 0.63730  0.76010  0.38340  Biso   1.000  H
  H40      1.0000 0.36270  0.23990  0.61660  Biso   1.000  H
  C31      1.0000 0.56660  0.58110  0.34690  Biso   1.000  C
  C32      1.0000 0.43340  0.41890  0.65310  Biso   1.000  C
  H41      1.0000 0.65930  0.56700  0.35140  Biso   1.000  H
  H42      1.0000 0.34070  0.43300  0.64860  Biso   1.000  H
  H43      1.0000 0.54430  0.58400  0.40730  Biso   1.000  H
  H44      1.0000 0.45570  0.41600  0.59270  Biso   1.000  H
  C33      1.0000 0.24700  0.93230  0.96730  Biso   1.000  C
  C34      1.0000 0.75300  0.06770  0.03270  Biso   1.000  C
  H45      1.0000 0.28970  0.87690  0.92770  Biso   1.000  H
  H46      1.0000 0.71030  0.12310  0.07230  Biso   1.000  H
  H47      1.0000 0.29930  0.95450  0.03300  Biso   1.000  H
  H48      1.0000 0.70070  0.04550  0.96700  Biso   1.000  H
  C35      1.0000 0.24710  0.04850  0.93650  Biso   1.000  C
  C36      1.0000 0.75290  0.95150  0.06350  Biso   1.000  C
  H49      1.0000 0.19880  0.02190  0.86890  Biso   1.000  H
  H50      1.0000 0.80120  0.97810  0.13110  Biso   1.000  H
  C37      1.0000 0.12650  0.22050  0.95400  Biso   1.000  C
  C38      1.0000 0.87350  0.77950  0.04600  Biso   1.000  C
  H51      1.0000 0.21130  0.27610  0.95510  Biso   1.000  H
  H52      1.0000 0.78870  0.72390  0.04490  Biso   1.000  H
  H53      1.0000 0.07400  0.18410  0.88820  Biso   1.000  H
  H54      1.0000 0.92600  0.81590  0.11180  Biso   1.000  H
  N25      1.0000 0.04730  0.29060  0.00570  Biso   1.000  N
  N26      1.0000 0.95270  0.70940  0.99430  Biso   1.000  N
  C39      1.0000 0.09070  0.76970  0.00250  Biso   1.000  C
  C40      1.0000 0.90930  0.23030  0.99750  Biso   1.000  C
  H55      1.0000 0.13850  0.80470  0.06940  Biso   1.000  H
  H56      1.0000 0.86150  0.19530  0.93060  Biso   1.000  H
  H57      1.0000 0.13790  0.70920  0.97320  Biso   1.000  H
  H58      1.0000 0.86210  0.29080  0.02680  Biso   1.000  H
  C41      1.0000 0.39460  0.12270  0.94740  Biso   1.000  C
  C42      1.0000 0.60540  0.87730  0.05260  Biso   1.000  C
  H59      1.0000 0.38940  0.19430  0.92720  Biso   1.000  H
  H60      1.0000 0.61060  0.80570  0.07280  Biso   1.000  H
  H61      1.0000 0.44140  0.07190  0.90890  Biso   1.000  H
  H62      1.0000 0.55860  0.92810  0.09110  Biso   1.000  H
  H63      1.0000 0.44520  0.14840  0.01290  Biso   1.000  H
  H64      1.0000 0.55480  0.85160  0.98710  Biso   1.000  H
  O3       1.0000 0.64760  0.36490  0.15770  Biso   1.000  O
  O4       1.0000 0.35240  0.63510  0.84230  Biso   1.000  O
  C43      1.0000 0.12110  0.36970  0.10730  Biso   1.000  C
  C44      1.0000 0.87890  0.63030  0.89270  Biso   1.000  C
  H65      1.0000 0.05360  0.35640  0.14390  Biso   1.000  H
  H66      1.0000 0.94640  0.64360  0.85610  Biso   1.000  H
  H67      1.0000 0.19280  0.32900  0.12660  Biso   1.000  H
  H68      1.0000 0.80720  0.67100  0.87340  Biso   1.000  H
  C45      1.0000 0.19030  0.50660  0.14830  Biso   1.000  C
  C46      1.0000 0.80970  0.49340  0.85170  Biso   1.000  C
  O5       1.0000 0.11830  0.55000  0.07810  Biso   1.000  O
  O6       1.0000 0.88170  0.45000  0.92190  Biso   1.000  O
  O7       1.0000 0.35800  0.58300  0.01880  Biso   1.000  O
  O8       1.0000 0.64200  0.41700  0.98120  Biso   1.000  O
  O9       1.0000 0.29110  0.47580  0.09250  Biso   1.000  O
  O10      1.0000 0.70890  0.52420  0.90750  Biso   1.000  O
  O11      1.0000 0.40100  0.49200  0.95240  Biso   1.000  O
  O12      1.0000 0.59900  0.50800  0.04760  Biso   1.000  O
