data_image0
_cell_length_a       10.067
_cell_length_b       11.536
_cell_length_c       15.393
_cell_angle_alpha    105.81
_cell_angle_beta     98.43
_cell_angle_gamma    99.6

_symmetry_space_group_name_H-M    "P 1"
_symmetry_int_tables_number       1

loop_
  _symmetry_equiv_pos_as_xyz
  'x, y, z'

loop_
  _atom_site_label
  _atom_site_occupancy
  _atom_site_fract_x
  _atom_site_fract_y
  _atom_site_fract_z
  _atom_site_thermal_displace_type
  _atom_site_B_iso_or_equiv
  _atom_site_type_symbol
  Cu1      1.0000 0.50000  0.00000  0.50000  Biso   1.000  Cu
  Fe1      1.0000 0.07747  0.15863  0.35247  Biso   1.000  Fe
  Fe2      1.0000 0.92253  0.84137  0.64753  Biso   1.000  Fe
  Cu2      1.0000 0.00000  0.00000  0.00000  Biso   1.000  Cu
  O1       1.0000 0.34610  0.64150  0.83240  Biso   1.000  O
  O2       1.0000 0.65390  0.35850  0.16760  Biso   1.000  O
  N1       1.0000 0.05030  0.24680  0.47650  Biso   1.000  N
  N2       1.0000 0.94970  0.75320  0.52350  Biso   1.000  N
  N3       1.0000 0.55410  0.18210  0.51080  Biso   1.000  N
  N4       1.0000 0.44590  0.81790  0.48920  Biso   1.000  N
  N5       1.0000 0.82780  0.88660  0.00750  Biso   1.000  N
  N6       1.0000 0.17220  0.11340  0.99250  Biso   1.000  N
  N7       1.0000 0.55890  0.96870  0.37810  Biso   1.000  N
  N8       1.0000 0.44110  0.03130  0.62190  Biso   1.000  N
  C1       1.0000 0.92130  0.02450  0.33400  Biso   1.000  C
  C2       1.0000 0.07870  0.97550  0.66600  Biso   1.000  C
  N9       1.0000 0.45830  0.74730  0.32650  Biso   1.000  N
  N10      1.0000 0.54170  0.25270  0.67350  Biso   1.000  N
  N11      1.0000 0.89030  0.29380  0.25660  Biso   1.000  N
  N12      1.0000 0.10970  0.70620  0.74340  Biso   1.000  N
  C3       1.0000 0.19480  0.06550  0.40420  Biso   1.000  C
  C4       1.0000 0.80520  0.93450  0.59580  Biso   1.000  C
  N13      1.0000 0.01540  0.28480  0.61610  Biso   1.000  N
  N14      1.0000 0.98460  0.71520  0.38390  Biso   1.000  N
  H1       1.0000 0.99870  0.27270  0.66650  Biso   1.000  H
  H2       1.0000 0.00130  0.72730  0.33350  Biso   1.000  H
  C5       1.0000 0.95880  0.24490  0.29350  Biso   1.000  C
  C6       1.0000 0.04120  0.75510  0.70650  Biso   1.000  C
  C7       1.0000 0.23100  0.28840  0.35900  Biso   1.000  C
  C8       1.0000 0.76900  0.71160  0.64100  Biso   1.000  C
  C9       1.0000 0.63940  0.19160  0.43990  Biso   1.000  C
  C10      1.0000 0.36060  0.80840  0.56010  Biso   1.000  C
  H3       1.0000 0.73070  0.17860  0.46130  Biso   1.000  H
  H4       1.0000 0.26930  0.82140  0.53870  Biso   1.000  H
  N15      1.0000 0.31880  0.36620  0.36050  Biso   1.000  N
  N16      1.0000 0.68120  0.63380  0.63950  Biso   1.000  N
  N17      1.0000 0.26270  0.00950  0.43300  Biso   1.000  N
  N18      1.0000 0.73730  0.99050  0.56700  Biso   1.000  N
  N19      1.0000 0.12020  0.02050  0.16250  Biso   1.000  N
  N20      1.0000 0.87980  0.97950  0.83750  Biso   1.000  N
  N21      1.0000 0.08930  0.86150  0.94750  Biso   1.000  N
  N22      1.0000 0.91070  0.13850  0.05250  Biso   1.000  N
  N23      1.0000 0.82940  0.94510  0.32240  Biso   1.000  N
  N24      1.0000 0.17060  0.05490  0.67760  Biso   1.000  N
  C11      1.0000 0.47130  0.86040  0.30310  Biso   1.000  C
  C12      1.0000 0.52870  0.13960  0.69690  Biso   1.000  C
  H5       1.0000 0.51050  0.85070  0.24820  Biso   1.000  H
  H6       1.0000 0.48950  0.14930  0.75180  Biso   1.000  H
  H7       1.0000 0.38050  0.87650  0.28850  Biso   1.000  H
  H8       1.0000 0.61950  0.12350  0.71150  Biso   1.000  H
  C13      1.0000 0.10720  0.07280  0.23370  Biso   1.000  C
  C14      1.0000 0.89280  0.92720  0.76630  Biso   1.000  C
  C15      1.0000 0.56860  0.08620  0.35380  Biso   1.000  C
  C16      1.0000 0.43140  0.91380  0.64620  Biso   1.000  C
  H9       1.0000 0.62100  0.08470  0.30560  Biso   1.000  H
  H10      1.0000 0.37900  0.91530  0.69440  Biso   1.000  H
  H11      1.0000 0.47740  0.09650  0.33160  Biso   1.000  H
  H12      1.0000 0.52260  0.90350  0.66840  Biso   1.000  H
  C17      1.0000 0.85420  0.77860  0.03690  Biso   1.000  C
  C18      1.0000 0.14580  0.22140  0.96310  Biso   1.000  C
  H13      1.0000 0.90630  0.80780  0.09980  Biso   1.000  H
  H14      1.0000 0.09370  0.19220  0.90020  Biso   1.000  H
  H15      1.0000 0.76680  0.72760  0.03630  Biso   1.000  H
  H16      1.0000 0.23320  0.27240  0.96370  Biso   1.000  H
  C19      1.0000 0.62330  0.26150  0.60610  Biso   1.000  C
  C20      1.0000 0.37670  0.73850  0.39390  Biso   1.000  C
  H17      1.0000 0.70930  0.23800  0.62310  Biso   1.000  H
  H18      1.0000 0.29070  0.76200  0.37690  Biso   1.000  H
  H19      1.0000 0.64520  0.34670  0.60630  Biso   1.000  H
  H20      1.0000 0.35480  0.65330  0.39370  Biso   1.000  H
  C21      1.0000 0.02620  0.19910  0.54180  Biso   1.000  C
  C22      1.0000 0.97380  0.80090  0.45820  Biso   1.000  C
  H21      1.0000 0.01780  0.11590  0.53680  Biso   1.000  H
  H22      1.0000 0.98220  0.88410  0.46320  Biso   1.000  H
  O3       1.0000 0.49050  0.49240  0.27600  Biso   1.000  O
  O4       1.0000 0.50950  0.50760  0.72400  Biso   1.000  O
  H23      1.0000 0.53660  0.45280  0.24460  Biso   1.000  H
  H24      1.0000 0.46340  0.54720  0.75540  Biso   1.000  H
  N25      1.0000 0.92800  0.70440  0.97960  Biso   1.000  N
  N26      1.0000 0.07200  0.29560  0.02040  Biso   1.000  N
  C23      1.0000 0.03490  0.39380  0.59920  Biso   1.000  C
  C24      1.0000 0.96510  0.60620  0.40080  Biso   1.000  C
  H25      1.0000 0.03350  0.47020  0.63910  Biso   1.000  H
  H26      1.0000 0.96650  0.52980  0.36090  Biso   1.000  H
  C25      1.0000 0.58830  0.70600  0.33850  Biso   1.000  C
  C26      1.0000 0.41170  0.29400  0.66150  Biso   1.000  C
  H27      1.0000 0.62730  0.70410  0.28420  Biso   1.000  H
  H28      1.0000 0.37270  0.29590  0.71580  Biso   1.000  H
  H29      1.0000 0.65200  0.76690  0.39060  Biso   1.000  H
  H30      1.0000 0.34800  0.23310  0.60940  Biso   1.000  H
  C27      1.0000 0.65630  0.31570  0.42160  Biso   1.000  C
  C28      1.0000 0.34370  0.68430  0.57840  Biso   1.000  C
  H31      1.0000 0.70180  0.37990  0.47750  Biso   1.000  H
  H32      1.0000 0.29820  0.62010  0.52250  Biso   1.000  H
  H33      1.0000 0.71040  0.31590  0.37520  Biso   1.000  H
  H34      1.0000 0.28960  0.68410  0.62480  Biso   1.000  H
  H35      1.0000 0.56750  0.32960  0.40070  Biso   1.000  H
  H36      1.0000 0.43250  0.67040  0.59930  Biso   1.000  H
  O5       1.0000 0.07690  0.75800  0.22880  Biso   1.000  O
  O6       1.0000 0.92310  0.24200  0.77120  Biso   1.000  O
  C29      1.0000 0.23700  0.91840  0.95780  Biso   1.000  C
  C30      1.0000 0.76300  0.08160  0.04220  Biso   1.000  C
  H37      1.0000 0.28440  0.93780  0.02130  Biso   1.000  H
  H38      1.0000 0.71560  0.06220  0.97870  Biso   1.000  H
  H39      1.0000 0.28040  0.86150  0.91890  Biso   1.000  H
  H40      1.0000 0.71960  0.13850  0.08110  Biso   1.000  H
  C31      1.0000 0.07030  0.75880  0.98780  Biso   1.000  C
  C32      1.0000 0.92970  0.24120  0.01220  Biso   1.000  C
  H41      1.0000 0.11460  0.78920  0.05250  Biso   1.000  H
  H42      1.0000 0.88540  0.21080  0.94750  Biso   1.000  H
  H43      1.0000 0.11520  0.69580  0.95720  Biso   1.000  H
  H44      1.0000 0.88480  0.30420  0.04280  Biso   1.000  H
  C33      1.0000 0.05680  0.36990  0.51270  Biso   1.000  C
  C34      1.0000 0.94320  0.63010  0.48730  Biso   1.000  C
  H45      1.0000 0.07390  0.42840  0.48220  Biso   1.000  H
  H46      1.0000 0.92610  0.57160  0.51780  Biso   1.000  H
  C35      1.0000 0.75490  0.96560  0.06980  Biso   1.000  C
  C36      1.0000 0.24510  0.03440  0.93020  Biso   1.000  C
  H47      1.0000 0.80570  0.98700  0.13340  Biso   1.000  H
  H48      1.0000 0.19430  0.01300  0.86660  Biso   1.000  H
  C37      1.0000 0.60460  0.90400  0.06490  Biso   1.000  C
  C38      1.0000 0.39540  0.09600  0.93510  Biso   1.000  C
  H49      1.0000 0.60260  0.83100  0.08370  Biso   1.000  H
  H50      1.0000 0.39740  0.16900  0.91630  Biso   1.000  H
  H51      1.0000 0.55370  0.88210  0.00280  Biso   1.000  H
  H52      1.0000 0.44630  0.11790  0.99720  Biso   1.000  H
  H53      1.0000 0.56380  0.96040  0.10520  Biso   1.000  H
  H54      1.0000 0.43620  0.03960  0.89480  Biso   1.000  H
  C39      1.0000 0.57880  0.58340  0.35350  Biso   1.000  C
  C40      1.0000 0.42120  0.41660  0.64650  Biso   1.000  C
  H55      1.0000 0.54280  0.58380  0.40870  Biso   1.000  H
  H56      1.0000 0.45720  0.41620  0.59130  Biso   1.000  H
  H57      1.0000 0.66950  0.56480  0.36180  Biso   1.000  H
  H58      1.0000 0.33050  0.43520  0.63820  Biso   1.000  H
  C41      1.0000 0.85070  0.63370  0.88690  Biso   1.000  C
  C42      1.0000 0.14930  0.36630  0.11310  Biso   1.000  C
  H59      1.0000 0.78440  0.66410  0.85630  Biso   1.000  H
  H60      1.0000 0.21560  0.33590  0.14370  Biso   1.000  H
  O7       1.0000 0.87130  0.44150  0.89930  Biso   1.000  O
  O8       1.0000 0.12870  0.55850  0.10070  Biso   1.000  O
  H61      1.0000 0.88580  0.37580  0.86950  Biso   1.000  H
  H62      1.0000 0.11420  0.62420  0.13050  Biso   1.000  H
  C43      1.0000 0.87800  0.52430  0.84720  Biso   1.000  C
  C44      1.0000 0.12200  0.47570  0.15280  Biso   1.000  C
  H63      1.0000 0.96920  0.53810  0.83370  Biso   1.000  H
  H64      1.0000 0.03080  0.46190  0.16630  Biso   1.000  H
  H65      1.0000 0.81310  0.48580  0.78890  Biso   1.000  H
  H66      1.0000 0.18690  0.51420  0.21110  Biso   1.000  H
  O9       1.0000 0.59390  0.81650  0.83800  Biso   1.000  O
  O10      1.0000 0.40610  0.18350  0.16200  Biso   1.000  O
