data_image0
_cell_length_a       10.208
_cell_length_b       10.797
_cell_length_c       12.744
_cell_angle_alpha    88.79
_cell_angle_beta     82.65
_cell_angle_gamma    87.05

_symmetry_space_group_name_H-M    "P 1"
_symmetry_int_tables_number       1

loop_
  _symmetry_equiv_pos_as_xyz
  'x, y, z'

loop_
  _atom_site_label
  _atom_site_occupancy
  _atom_site_fract_x
  _atom_site_fract_y
  _atom_site_fract_z
  _atom_site_thermal_displace_type
  _atom_site_B_iso_or_equiv
  _atom_site_type_symbol
  Cu1      1.0000 0.00000  0.00000  0.50000  Biso   1.000  Cu
  Cu2      1.0000 0.50000  0.50000  0.00000  Biso   1.000  Cu
  Fe1      1.0000 0.41946  0.19592  0.31331  Biso   1.000  Fe
  Fe2      1.0000 0.58054  0.80408  0.68669  Biso   1.000  Fe
  O1       1.0000 0.82800  0.95040  0.05790  Biso   1.000  O
  O2       1.0000 0.17200  0.04960  0.94210  Biso   1.000  O
  N1       1.0000 0.24060  0.00730  0.43560  Biso   1.000  N
  N2       1.0000 0.75940  0.99270  0.56440  Biso   1.000  N
  N3       1.0000 0.56420  0.38510  0.16380  Biso   1.000  N
  N4       1.0000 0.43580  0.61490  0.83620  Biso   1.000  N
  N5       1.0000 0.64120  0.99160  0.25970  Biso   1.000  N
  N6       1.0000 0.35880  0.00840  0.74030  Biso   1.000  N
  N7       1.0000 0.28980  0.13830  0.11670  Biso   1.000  N
  N8       1.0000 0.71020  0.86170  0.88330  Biso   1.000  N
  N9       1.0000 0.20720  0.40490  0.37690  Biso   1.000  N
  N10      1.0000 0.79280  0.59510  0.62310  Biso   1.000  N
  N11      1.0000 0.49900  0.24190  0.44060  Biso   1.000  N
  N12      1.0000 0.50100  0.75810  0.55940  Biso   1.000  N
  N13      1.0000 0.54190  0.25050  0.60320  Biso   1.000  N
  N14      1.0000 0.45810  0.74950  0.39680  Biso   1.000  N
  H1       1.0000 0.54560  0.23050  0.66840  Biso   1.000  H
  H2       1.0000 0.45440  0.76950  0.33160  Biso   1.000  H
  N15      1.0000 0.94330  0.99260  0.35400  Biso   1.000  N
  N16      1.0000 0.05670  0.00740  0.64600  Biso   1.000  N
  N17      1.0000 0.98180  0.18760  0.48080  Biso   1.000  N
  N18      1.0000 0.01820  0.81240  0.51920  Biso   1.000  N
  N19      1.0000 0.99250  0.22640  0.66980  Biso   1.000  N
  N20      1.0000 0.00750  0.77360  0.33020  Biso   1.000  N
  N21      1.0000 0.33050  0.58070  0.07510  Biso   1.000  N
  N22      1.0000 0.66950  0.41930  0.92490  Biso   1.000  N
  N23      1.0000 0.61410  0.63740  0.03290  Biso   1.000  N
  N24      1.0000 0.38590  0.36260  0.96710  Biso   1.000  N
  N25      1.0000 0.44570  0.73400  0.16660  Biso   1.000  N
  N26      1.0000 0.55430  0.26600  0.83340  Biso   1.000  N
  C1       1.0000 0.31040  0.07530  0.39220  Biso   1.000  C
  C2       1.0000 0.68960  0.92470  0.60780  Biso   1.000  C
  C3       1.0000 0.51680  0.31500  0.22250  Biso   1.000  C
  C4       1.0000 0.48320  0.68500  0.77750  Biso   1.000  C
  C5       1.0000 0.55830  0.06610  0.27760  Biso   1.000  C
  C6       1.0000 0.44170  0.93390  0.72240  Biso   1.000  C
  C7       1.0000 0.33680  0.15700  0.19000  Biso   1.000  C
  C8       1.0000 0.66320  0.84300  0.81000  Biso   1.000  C
  C9       1.0000 0.28240  0.32680  0.35010  Biso   1.000  C
  C10      1.0000 0.71760  0.67320  0.64990  Biso   1.000  C
  C11      1.0000 0.48790  0.18580  0.53370  Biso   1.000  C
  C12      1.0000 0.51210  0.81420  0.46630  Biso   1.000  C
  H3       1.0000 0.44770  0.11100  0.54890  Biso   1.000  H
  H4       1.0000 0.55230  0.88900  0.45110  Biso   1.000  H
  C13      1.0000 0.56360  0.34780  0.45280  Biso   1.000  C
  C14      1.0000 0.43640  0.65220  0.54720  Biso   1.000  C
  H5       1.0000 0.58560  0.40650  0.39990  Biso   1.000  H
  H6       1.0000 0.41440  0.59350  0.60010  Biso   1.000  H
  C15      1.0000 0.59020  0.35370  0.55310  Biso   1.000  C
  C16      1.0000 0.40980  0.64630  0.44690  Biso   1.000  C
  H7       1.0000 0.63300  0.41600  0.58220  Biso   1.000  H
  H8       1.0000 0.36700  0.58400  0.41780  Biso   1.000  H
  C17      1.0000 0.92410  0.25240  0.58140  Biso   1.000  C
  C18      1.0000 0.07590  0.74760  0.41860  Biso   1.000  C
  H9       1.0000 0.92230  0.34120  0.56790  Biso   1.000  H
  H10      1.0000 0.07770  0.65880  0.43210  Biso   1.000  H
  H11      1.0000 0.83340  0.22910  0.59940  Biso   1.000  H
  H12      1.0000 0.16660  0.77090  0.40060  Biso   1.000  H
  C19      1.0000 0.90290  0.21180  0.39220  Biso   1.000  C
  C20      1.0000 0.09710  0.78820  0.60780  Biso   1.000  C
  H13      1.0000 0.81230  0.18950  0.41730  Biso   1.000  H
  H14      1.0000 0.18770  0.81050  0.58270  Biso   1.000  H
  C21      1.0000 0.95710  0.12120  0.30750  Biso   1.000  C
  C22      1.0000 0.04290  0.87880  0.69250  Biso   1.000  C
  H15      1.0000 0.90830  0.13130  0.24720  Biso   1.000  H
  H16      1.0000 0.09170  0.86870  0.75280  Biso   1.000  H
  H17      1.0000 0.04940  0.13530  0.28410  Biso   1.000  H
  H18      1.0000 0.95060  0.86470  0.71590  Biso   1.000  H
  C23      1.0000 0.01620  0.89460  0.28530  Biso   1.000  C
  C24      1.0000 0.98380  0.10540  0.71470  Biso   1.000  C
  H19      1.0000 0.98110  0.89580  0.21800  Biso   1.000  H
  H20      1.0000 0.01890  0.10420  0.78200  Biso   1.000  H
  H21      1.0000 0.10860  0.91400  0.27150  Biso   1.000  H
  H22      1.0000 0.89140  0.08600  0.72850  Biso   1.000  H
  C25      1.0000 0.75240  0.58850  0.01160  Biso   1.000  C
  C26      1.0000 0.24760  0.41150  0.98840  Biso   1.000  C
  H23      1.0000 0.77400  0.53460  0.06940  Biso   1.000  H
  H24      1.0000 0.22600  0.46540  0.93060  Biso   1.000  H
  H25      1.0000 0.81180  0.65630  0.00510  Biso   1.000  H
  H26      1.0000 0.18820  0.34370  0.99490  Biso   1.000  H
  C27      1.0000 0.58030  0.68760  0.14150  Biso   1.000  C
  C28      1.0000 0.41970  0.31240  0.85850  Biso   1.000  C
  H27      1.0000 0.59800  0.62260  0.19220  Biso   1.000  H
  H28      1.0000 0.40200  0.37740  0.80780  Biso   1.000  H
  H29      1.0000 0.63820  0.75420  0.14990  Biso   1.000  H
  H30      1.0000 0.36180  0.24580  0.85010  Biso   1.000  H
  C29      1.0000 0.41210  0.84400  0.10490  Biso   1.000  C
  C30      1.0000 0.58790  0.15600  0.89510  Biso   1.000  C
  H31      1.0000 0.48210  0.90060  0.10140  Biso   1.000  H
  H32      1.0000 0.51790  0.09940  0.89860  Biso   1.000  H
  H33      1.0000 0.33150  0.88360  0.13810  Biso   1.000  H
  H34      1.0000 0.66850  0.11640  0.86190  Biso   1.000  H
  H35      1.0000 0.40060  0.82000  0.03470  Biso   1.000  H
  H36      1.0000 0.59940  0.18000  0.96530  Biso   1.000  H
  C31      1.0000 0.34800  0.64170  0.17630  Biso   1.000  C
  C32      1.0000 0.65200  0.35830  0.82370  Biso   1.000  C
  H37      1.0000 0.26370  0.68030  0.20570  Biso   1.000  H
  H38      1.0000 0.73630  0.31970  0.79430  Biso   1.000  H
  H39      1.0000 0.37230  0.57820  0.22630  Biso   1.000  H
  H40      1.0000 0.62770  0.42180  0.77370  Biso   1.000  H
  C33      1.0000 0.23190  0.48330  0.09030  Biso   1.000  C
  C34      1.0000 0.76810  0.51670  0.90970  Biso   1.000  C
  H41      1.0000 0.25580  0.42670  0.14670  Biso   1.000  H
  H42      1.0000 0.74420  0.57330  0.85330  Biso   1.000  H
  C35      1.0000 0.12380  0.27770  0.66270  Biso   1.000  C
  C36      1.0000 0.87620  0.72230  0.33730  Biso   1.000  C
  H43      1.0000 0.12110  0.35900  0.63090  Biso   1.000  H
  H44      1.0000 0.87890  0.64100  0.36910  Biso   1.000  H
  H45      1.0000 0.14920  0.28290  0.73240  Biso   1.000  H
  H46      1.0000 0.85080  0.71710  0.26760  Biso   1.000  H
  H47      1.0000 0.18700  0.22470  0.62030  Biso   1.000  H
  H48      1.0000 0.81300  0.77530  0.37970  Biso   1.000  H
  C37      1.0000 0.09160  0.53120  0.12070  Biso   1.000  C
  C38      1.0000 0.90840  0.46880  0.87930  Biso   1.000  C
  H49      1.0000 0.08530  0.57550  0.18580  Biso   1.000  H
  H50      1.0000 0.91470  0.42450  0.81420  Biso   1.000  H
  H51      1.0000 0.03450  0.46290  0.12960  Biso   1.000  H
  H52      1.0000 0.96550  0.53710  0.87040  Biso   1.000  H
  H53      1.0000 0.06540  0.58600  0.06590  Biso   1.000  H
  H54      1.0000 0.93460  0.41400  0.93410  Biso   1.000  H
  C39      1.0000 0.89490  0.34090  0.34650  Biso   1.000  C
  C40      1.0000 0.10510  0.65910  0.65350  Biso   1.000  C
  H55      1.0000 0.85910  0.39750  0.40120  Biso   1.000  H
  H56      1.0000 0.14090  0.60250  0.59880  Biso   1.000  H
  H57      1.0000 0.83870  0.34350  0.29150  Biso   1.000  H
  H58      1.0000 0.16130  0.65650  0.70850  Biso   1.000  H
  H59      1.0000 0.98180  0.36430  0.31770  Biso   1.000  H
  H60      1.0000 0.01820  0.63570  0.68230  Biso   1.000  H
  O3       1.0000 0.80890  0.24560  0.06480  Biso   1.000  O
  O4       1.0000 0.19110  0.75440  0.93520  Biso   1.000  O
  O5       1.0000 0.89610  0.18300  0.98720  Biso   1.000  O
  O6       1.0000 0.10390  0.81700  0.01280  Biso   1.000  O
