data_image0
_cell_length_a       18.2119
_cell_length_b       11.6847
_cell_length_c       12.0688
_cell_angle_alpha    90
_cell_angle_beta     90
_cell_angle_gamma    90

_symmetry_space_group_name_H-M    "P 1"
_symmetry_int_tables_number       1

loop_
  _symmetry_equiv_pos_as_xyz
  'x, y, z'

loop_
  _atom_site_label
  _atom_site_occupancy
  _atom_site_fract_x
  _atom_site_fract_y
  _atom_site_fract_z
  _atom_site_thermal_displace_type
  _atom_site_B_iso_or_equiv
  _atom_site_type_symbol
  Cu1      1.0000 0.02335  0.10284  0.55939  Biso   1.000  Cu
  Cu2      1.0000 0.47665  0.39716  0.05939  Biso   1.000  Cu
  Cu3      1.0000 0.52335  0.39716  0.44061  Biso   1.000  Cu
  Cu4      1.0000 0.97665  0.10284  0.94061  Biso   1.000  Cu
  Cu5      1.0000 0.97665  0.89716  0.44061  Biso   1.000  Cu
  Cu6      1.0000 0.52335  0.60284  0.94061  Biso   1.000  Cu
  Cu7      1.0000 0.47665  0.60284  0.55939  Biso   1.000  Cu
  Cu8      1.0000 0.02335  0.89716  0.05939  Biso   1.000  Cu
  Cu9      1.0000 0.00000  0.08197  0.25000  Biso   1.000  Cu
  Cu10     1.0000 0.50000  0.41803  0.75000  Biso   1.000  Cu
  Cu11     1.0000 0.00000  0.91803  0.75000  Biso   1.000  Cu
  Cu12     1.0000 0.50000  0.58197  0.25000  Biso   1.000  Cu
  O1       1.0000 0.96440  0.06050  0.43470  Biso   1.000  O
  O2       1.0000 0.53560  0.43950  0.93470  Biso   1.000  O
  O3       1.0000 0.46440  0.43950  0.56530  Biso   1.000  O
  O4       1.0000 0.03560  0.06050  0.06530  Biso   1.000  O
  O5       1.0000 0.03560  0.93950  0.56530  Biso   1.000  O
  O6       1.0000 0.46440  0.56050  0.06530  Biso   1.000  O
  O7       1.0000 0.53560  0.56050  0.43470  Biso   1.000  O
  O8       1.0000 0.96440  0.93950  0.93470  Biso   1.000  O
  O9       1.0000 0.21270  0.42100  0.56550  Biso   1.000  O
  O10      1.0000 0.28730  0.07900  0.06550  Biso   1.000  O
  O11      1.0000 0.71270  0.07900  0.43450  Biso   1.000  O
  O12      1.0000 0.78730  0.42100  0.93450  Biso   1.000  O
  O13      1.0000 0.78730  0.57900  0.43450  Biso   1.000  O
  O14      1.0000 0.71270  0.92100  0.93450  Biso   1.000  O
  O15      1.0000 0.28730  0.92100  0.56550  Biso   1.000  O
  O16      1.0000 0.21270  0.57900  0.06550  Biso   1.000  O
  O17      1.0000 0.07400  0.20020  0.28400  Biso   1.000  O
  O18      1.0000 0.42600  0.29980  0.78400  Biso   1.000  O
  O19      1.0000 0.57400  0.29980  0.71600  Biso   1.000  O
  O20      1.0000 0.92600  0.20020  0.21600  Biso   1.000  O
  O21      1.0000 0.92600  0.79980  0.71600  Biso   1.000  O
  O22      1.0000 0.57400  0.70020  0.21600  Biso   1.000  O
  O23      1.0000 0.42600  0.70020  0.28400  Biso   1.000  O
  O24      1.0000 0.07400  0.79980  0.78400  Biso   1.000  O
  O25      1.0000 0.42590  0.46320  0.29900  Biso   1.000  O
  O26      1.0000 0.07410  0.03680  0.79900  Biso   1.000  O
  O27      1.0000 0.92590  0.03680  0.70100  Biso   1.000  O
  O28      1.0000 0.57410  0.46320  0.20100  Biso   1.000  O
  O29      1.0000 0.57410  0.53680  0.70100  Biso   1.000  O
  O30      1.0000 0.92590  0.96320  0.20100  Biso   1.000  O
  O31      1.0000 0.07410  0.96320  0.29900  Biso   1.000  O
  O32      1.0000 0.42590  0.53680  0.79900  Biso   1.000  O
  N1       1.0000 0.99370  0.26480  0.57270  Biso   1.000  N
  N2       1.0000 0.50630  0.23520  0.07270  Biso   1.000  N
  N3       1.0000 0.49370  0.23520  0.42730  Biso   1.000  N
  N4       1.0000 0.00630  0.26480  0.92730  Biso   1.000  N
  N5       1.0000 0.00630  0.73520  0.42730  Biso   1.000  N
  N6       1.0000 0.49370  0.76480  0.92730  Biso   1.000  N
  N7       1.0000 0.50630  0.76480  0.57270  Biso   1.000  N
  N8       1.0000 0.99370  0.73520  0.07270  Biso   1.000  N
  O33      1.0000 0.38880  0.36940  0.14640  Biso   1.000  O
  O34      1.0000 0.11120  0.13060  0.64640  Biso   1.000  O
  O35      1.0000 0.88880  0.13060  0.85360  Biso   1.000  O
  O36      1.0000 0.61120  0.36940  0.35360  Biso   1.000  O
  O37      1.0000 0.61120  0.63060  0.85360  Biso   1.000  O
  O38      1.0000 0.88880  0.86940  0.35360  Biso   1.000  O
  O39      1.0000 0.11120  0.86940  0.14640  Biso   1.000  O
  O40      1.0000 0.38880  0.63060  0.64640  Biso   1.000  O
  C1       1.0000 0.29420  0.41550  0.40840  Biso   1.000  C
  C2       1.0000 0.20580  0.08450  0.90840  Biso   1.000  C
  C3       1.0000 0.79420  0.08450  0.59160  Biso   1.000  C
  C4       1.0000 0.70580  0.41550  0.09160  Biso   1.000  C
  C5       1.0000 0.70580  0.58450  0.59160  Biso   1.000  C
  C6       1.0000 0.79420  0.91550  0.09160  Biso   1.000  C
  C7       1.0000 0.20580  0.91550  0.40840  Biso   1.000  C
  C8       1.0000 0.29420  0.58450  0.90840  Biso   1.000  C
  N9       1.0000 0.99230  0.44280  0.63200  Biso   1.000  N
  N10      1.0000 0.50770  0.05720  0.13200  Biso   1.000  N
  N11      1.0000 0.49230  0.05720  0.36800  Biso   1.000  N
  N12      1.0000 0.00770  0.44280  0.86800  Biso   1.000  N
  N13      1.0000 0.00770  0.55720  0.36800  Biso   1.000  N
  N14      1.0000 0.49230  0.94280  0.86800  Biso   1.000  N
  N15      1.0000 0.50770  0.94280  0.63200  Biso   1.000  N
  N16      1.0000 0.99230  0.55720  0.13200  Biso   1.000  N
  C9       1.0000 0.37990  0.40620  0.24440  Biso   1.000  C
  C10      1.0000 0.12010  0.09380  0.74440  Biso   1.000  C
  C11      1.0000 0.87990  0.09380  0.75560  Biso   1.000  C
  C12      1.0000 0.62010  0.40620  0.25560  Biso   1.000  C
  C13      1.0000 0.62010  0.59380  0.75560  Biso   1.000  C
  C14      1.0000 0.87990  0.90620  0.25560  Biso   1.000  C
  C15      1.0000 0.12010  0.90620  0.24440  Biso   1.000  C
  C16      1.0000 0.37990  0.59380  0.74440  Biso   1.000  C
  O41      1.0000 0.15830  0.14400  0.16090  Biso   1.000  O
  O42      1.0000 0.34170  0.35600  0.66090  Biso   1.000  O
  O43      1.0000 0.65830  0.35600  0.83910  Biso   1.000  O
  O44      1.0000 0.84170  0.14400  0.33910  Biso   1.000  O
  O45      1.0000 0.84170  0.85600  0.83910  Biso   1.000  O
  O46      1.0000 0.65830  0.64400  0.33910  Biso   1.000  O
  O47      1.0000 0.34170  0.64400  0.16090  Biso   1.000  O
  O48      1.0000 0.15830  0.85600  0.66090  Biso   1.000  O
  C17      1.0000 0.92420  0.42030  0.58740  Biso   1.000  C
  C18      1.0000 0.57580  0.07970  0.08740  Biso   1.000  C
  C19      1.0000 0.42420  0.07970  0.41260  Biso   1.000  C
  C20      1.0000 0.07580  0.42030  0.91260  Biso   1.000  C
  C21      1.0000 0.07580  0.57970  0.41260  Biso   1.000  C
  C22      1.0000 0.42420  0.92030  0.91260  Biso   1.000  C
  C23      1.0000 0.57580  0.92030  0.58740  Biso   1.000  C
  C24      1.0000 0.92420  0.57970  0.08740  Biso   1.000  C
  C25      1.0000 0.30870  0.37600  0.30050  Biso   1.000  C
  C26      1.0000 0.19130  0.12400  0.80050  Biso   1.000  C
  C27      1.0000 0.80870  0.12400  0.69950  Biso   1.000  C
  C28      1.0000 0.69130  0.37600  0.19950  Biso   1.000  C
  C29      1.0000 0.69130  0.62400  0.69950  Biso   1.000  C
  C30      1.0000 0.80870  0.87600  0.19950  Biso   1.000  C
  C31      1.0000 0.19130  0.87600  0.30050  Biso   1.000  C
  C32      1.0000 0.30870  0.62400  0.80050  Biso   1.000  C
  C33      1.0000 0.22950  0.38390  0.46050  Biso   1.000  C
  C34      1.0000 0.27050  0.11610  0.96050  Biso   1.000  C
  C35      1.0000 0.72950  0.11610  0.53950  Biso   1.000  C
  C36      1.0000 0.77050  0.38390  0.03950  Biso   1.000  C
  C37      1.0000 0.77050  0.61610  0.53950  Biso   1.000  C
  C38      1.0000 0.72950  0.88390  0.03950  Biso   1.000  C
  C39      1.0000 0.27050  0.88390  0.46050  Biso   1.000  C
  C40      1.0000 0.22950  0.61610  0.96050  Biso   1.000  C
  C41      1.0000 0.92610  0.31180  0.55030  Biso   1.000  C
  C42      1.0000 0.57390  0.18820  0.05030  Biso   1.000  C
  C43      1.0000 0.42610  0.18820  0.44970  Biso   1.000  C
  C44      1.0000 0.07390  0.31180  0.94970  Biso   1.000  C
  C45      1.0000 0.07390  0.68820  0.44970  Biso   1.000  C
  C46      1.0000 0.42610  0.81180  0.94970  Biso   1.000  C
  C47      1.0000 0.57390  0.81180  0.55030  Biso   1.000  C
  C48      1.0000 0.92610  0.68820  0.05030  Biso   1.000  C
  C49      1.0000 0.13830  0.19980  0.24260  Biso   1.000  C
  C50      1.0000 0.36170  0.30020  0.74260  Biso   1.000  C
  C51      1.0000 0.63830  0.30020  0.75740  Biso   1.000  C
  C52      1.0000 0.86170  0.19980  0.25740  Biso   1.000  C
  C53      1.0000 0.86170  0.80020  0.75740  Biso   1.000  C
  C54      1.0000 0.63830  0.69980  0.25740  Biso   1.000  C
  C55      1.0000 0.36170  0.69980  0.24260  Biso   1.000  C
  C56      1.0000 0.13830  0.80020  0.74260  Biso   1.000  C
  C57      1.0000 0.19300  0.27670  0.29950  Biso   1.000  C
  C58      1.0000 0.30700  0.22330  0.79950  Biso   1.000  C
  C59      1.0000 0.69300  0.22330  0.70050  Biso   1.000  C
  C60      1.0000 0.80700  0.27670  0.20050  Biso   1.000  C
  C61      1.0000 0.80700  0.72330  0.70050  Biso   1.000  C
  C62      1.0000 0.69300  0.77670  0.20050  Biso   1.000  C
  C63      1.0000 0.30700  0.77670  0.29950  Biso   1.000  C
  C64      1.0000 0.19300  0.72330  0.79950  Biso   1.000  C
  C65      1.0000 0.03270  0.34670  0.62270  Biso   1.000  C
  C66      1.0000 0.46730  0.15330  0.12270  Biso   1.000  C
  C67      1.0000 0.53270  0.15330  0.37730  Biso   1.000  C
  C68      1.0000 0.96730  0.34670  0.87730  Biso   1.000  C
  C69      1.0000 0.96730  0.65330  0.37730  Biso   1.000  C
  C70      1.0000 0.53270  0.84670  0.87730  Biso   1.000  C
  C71      1.0000 0.46730  0.84670  0.62270  Biso   1.000  C
  C72      1.0000 0.03270  0.65330  0.12270  Biso   1.000  C
  C73      1.0000 0.01410  0.54690  0.69130  Biso   1.000  C
  C74      1.0000 0.48590  0.95310  0.19130  Biso   1.000  C
  C75      1.0000 0.51410  0.95310  0.30870  Biso   1.000  C
  C76      1.0000 0.98590  0.54690  0.80870  Biso   1.000  C
  C77      1.0000 0.98590  0.45310  0.30870  Biso   1.000  C
  C78      1.0000 0.51410  0.04690  0.80870  Biso   1.000  C
  C79      1.0000 0.48590  0.04690  0.69130  Biso   1.000  C
  C80      1.0000 0.01410  0.45310  0.19130  Biso   1.000  C
  C81      1.0000 0.25780  0.30700  0.24710  Biso   1.000  C
  C82      1.0000 0.24220  0.19300  0.74710  Biso   1.000  C
  C83      1.0000 0.75780  0.19300  0.75290  Biso   1.000  C
  C84      1.0000 0.74220  0.30700  0.25290  Biso   1.000  C
  C85      1.0000 0.74220  0.69300  0.75290  Biso   1.000  C
  C86      1.0000 0.75780  0.80700  0.25290  Biso   1.000  C
  C87      1.0000 0.24220  0.80700  0.24710  Biso   1.000  C
  C88      1.0000 0.25780  0.69300  0.74710  Biso   1.000  C
  C89      1.0000 0.17970  0.31470  0.40770  Biso   1.000  C
  C90      1.0000 0.32030  0.18530  0.90770  Biso   1.000  C
  C91      1.0000 0.67970  0.18530  0.59230  Biso   1.000  C
  C92      1.0000 0.82030  0.31470  0.09230  Biso   1.000  C
  C93      1.0000 0.82030  0.68530  0.59230  Biso   1.000  C
  C94      1.0000 0.67970  0.81470  0.09230  Biso   1.000  C
  C95      1.0000 0.32030  0.81470  0.40770  Biso   1.000  C
  C96      1.0000 0.17970  0.68530  0.90770  Biso   1.000  C
  H1       1.0000 0.27300  0.28200  0.17100  Biso   1.000  H
  H2       1.0000 0.22700  0.21800  0.67100  Biso   1.000  H
  H3       1.0000 0.77300  0.21800  0.82900  Biso   1.000  H
  H4       1.0000 0.72700  0.28200  0.32900  Biso   1.000  H
  H5       1.0000 0.72700  0.71800  0.82900  Biso   1.000  H
  H6       1.0000 0.77300  0.78200  0.32900  Biso   1.000  H
  H7       1.0000 0.22700  0.78200  0.17100  Biso   1.000  H
  H8       1.0000 0.27300  0.71800  0.67100  Biso   1.000  H
  H9       1.0000 0.32700  0.46300  0.44400  Biso   1.000  H
  H10      1.0000 0.17300  0.03700  0.94400  Biso   1.000  H
  H11      1.0000 0.82700  0.03700  0.55600  Biso   1.000  H
  H12      1.0000 0.67300  0.46300  0.05600  Biso   1.000  H
  H13      1.0000 0.67300  0.53700  0.55600  Biso   1.000  H
  H14      1.0000 0.82700  0.96300  0.05600  Biso   1.000  H
  H15      1.0000 0.17300  0.96300  0.44400  Biso   1.000  H
  H16      1.0000 0.32700  0.53700  0.94400  Biso   1.000  H
  H17      1.0000 0.08400  0.35200  0.64300  Biso   1.000  H
  H18      1.0000 0.41600  0.14800  0.14300  Biso   1.000  H
  H19      1.0000 0.58400  0.14800  0.35700  Biso   1.000  H
  H20      1.0000 0.91600  0.35200  0.85700  Biso   1.000  H
  H21      1.0000 0.91600  0.64800  0.35700  Biso   1.000  H
  H22      1.0000 0.58400  0.85200  0.85700  Biso   1.000  H
  H23      1.0000 0.41600  0.85200  0.64300  Biso   1.000  H
  H24      1.0000 0.08400  0.64800  0.14300  Biso   1.000  H
  H25      1.0000 0.99600  0.61500  0.65400  Biso   1.000  H
  H26      1.0000 0.50400  0.88500  0.15400  Biso   1.000  H
  H27      1.0000 0.49600  0.88500  0.34600  Biso   1.000  H
  H28      1.0000 0.00400  0.61500  0.84600  Biso   1.000  H
  H29      1.0000 0.00400  0.38500  0.34600  Biso   1.000  H
  H30      1.0000 0.49600  0.11500  0.84600  Biso   1.000  H
  H31      1.0000 0.50400  0.11500  0.65400  Biso   1.000  H
  H32      1.0000 0.99600  0.38500  0.15400  Biso   1.000  H
  H33      1.0000 0.14300  0.29700  0.43700  Biso   1.000  H
  H34      1.0000 0.35700  0.20300  0.93700  Biso   1.000  H
  H35      1.0000 0.64300  0.20300  0.56300  Biso   1.000  H
  H36      1.0000 0.85700  0.29700  0.06300  Biso   1.000  H
  H37      1.0000 0.85700  0.70300  0.56300  Biso   1.000  H
  H38      1.0000 0.64300  0.79700  0.06300  Biso   1.000  H
  H39      1.0000 0.35700  0.79700  0.43700  Biso   1.000  H
  H40      1.0000 0.14300  0.70300  0.93700  Biso   1.000  H
  H41      1.0000 0.88800  0.48300  0.57900  Biso   1.000  H
  H42      1.0000 0.61200  0.01700  0.07900  Biso   1.000  H
  H43      1.0000 0.38800  0.01700  0.42100  Biso   1.000  H
  H44      1.0000 0.11200  0.48300  0.92100  Biso   1.000  H
  H45      1.0000 0.11200  0.51700  0.42100  Biso   1.000  H
  H46      1.0000 0.38800  0.98300  0.92100  Biso   1.000  H
  H47      1.0000 0.61200  0.98300  0.57900  Biso   1.000  H
  H48      1.0000 0.88800  0.51700  0.07900  Biso   1.000  H
  H49      1.0000 0.07100  0.54600  0.69200  Biso   1.000  H
  H50      1.0000 0.42900  0.95400  0.19200  Biso   1.000  H
  H51      1.0000 0.57100  0.95400  0.30800  Biso   1.000  H
  H52      1.0000 0.92900  0.54600  0.80800  Biso   1.000  H
  H53      1.0000 0.92900  0.45400  0.30800  Biso   1.000  H
  H54      1.0000 0.57100  0.04600  0.80800  Biso   1.000  H
  H55      1.0000 0.42900  0.04600  0.69200  Biso   1.000  H
  H56      1.0000 0.07100  0.45400  0.19200  Biso   1.000  H
  H57      1.0000 0.93300  0.08000  0.42200  Biso   1.000  H
  H58      1.0000 0.56700  0.42000  0.92200  Biso   1.000  H
  H59      1.0000 0.43300  0.42000  0.57800  Biso   1.000  H
  H60      1.0000 0.06700  0.08000  0.07800  Biso   1.000  H
  H61      1.0000 0.06700  0.92000  0.57800  Biso   1.000  H
  H62      1.0000 0.43300  0.58000  0.07800  Biso   1.000  H
  H63      1.0000 0.56700  0.58000  0.42200  Biso   1.000  H
  H64      1.0000 0.93300  0.92000  0.92200  Biso   1.000  H
  H65      1.0000 0.88800  0.26100  0.52200  Biso   1.000  H
  H66      1.0000 0.61200  0.23900  0.02200  Biso   1.000  H
  H67      1.0000 0.38800  0.23900  0.47800  Biso   1.000  H
  H68      1.0000 0.11200  0.26100  0.97800  Biso   1.000  H
  H69      1.0000 0.11200  0.73900  0.47800  Biso   1.000  H
  H70      1.0000 0.38800  0.76100  0.97800  Biso   1.000  H
  H71      1.0000 0.61200  0.76100  0.52200  Biso   1.000  H
  H72      1.0000 0.88800  0.73900  0.02200  Biso   1.000  H
  H73      1.0000 0.24100  0.41700  0.60300  Biso   1.000  H
  H74      1.0000 0.25900  0.08300  0.10300  Biso   1.000  H
  H75      1.0000 0.74100  0.08300  0.39700  Biso   1.000  H
  H76      1.0000 0.75900  0.41700  0.89700  Biso   1.000  H
  H77      1.0000 0.75900  0.58300  0.39700  Biso   1.000  H
  H78      1.0000 0.74100  0.91700  0.89700  Biso   1.000  H
  H79      1.0000 0.25900  0.91700  0.60300  Biso   1.000  H
  H80      1.0000 0.24100  0.58300  0.10300  Biso   1.000  H
