data_image0
_cell_length_a       18.3682
_cell_length_b       7.7706
_cell_length_c       19.4086
_cell_angle_alpha    90
_cell_angle_beta     117.296
_cell_angle_gamma    90

_symmetry_space_group_name_H-M    "P 1"
_symmetry_int_tables_number       1

loop_
  _symmetry_equiv_pos_as_xyz
  'x, y, z'

loop_
  _atom_site_label
  _atom_site_occupancy
  _atom_site_fract_x
  _atom_site_fract_y
  _atom_site_fract_z
  _atom_site_thermal_displace_type
  _atom_site_B_iso_or_equiv
  _atom_site_type_symbol
  Cu1      1.0000 0.00000  0.00000  0.00000  Biso   1.000  Cu
  Cu2      1.0000 0.50000  0.50000  0.50000  Biso   1.000  Cu
  Cu3      1.0000 0.50000  0.00000  0.00000  Biso   1.000  Cu
  Cu4      1.0000 0.00000  0.50000  0.50000  Biso   1.000  Cu
  O1       1.0000 0.11929  0.01140  0.07317  Biso   1.000  O
  O2       1.0000 0.38071  0.51140  0.42683  Biso   1.000  O
  O3       1.0000 0.88071  0.98860  0.92683  Biso   1.000  O
  O4       1.0000 0.61929  0.48860  0.57317  Biso   1.000  O
  O5       1.0000 0.97500  0.89520  0.08145  Biso   1.000  O
  O6       1.0000 0.52500  0.39520  0.41855  Biso   1.000  O
  O7       1.0000 0.02500  0.10480  0.91855  Biso   1.000  O
  O8       1.0000 0.47500  0.60480  0.58145  Biso   1.000  O
  O9       1.0000 0.98197  0.26030  0.03130  Biso   1.000  O
  O10      1.0000 0.51803  0.76030  0.46870  Biso   1.000  O
  O11      1.0000 0.01803  0.73970  0.96870  Biso   1.000  O
  O12      1.0000 0.48197  0.23970  0.53130  Biso   1.000  O
  O13      1.0000 0.58910  0.14180  0.09152  Biso   1.000  O
  O14      1.0000 0.91090  0.64180  0.40848  Biso   1.000  O
  O15      1.0000 0.41090  0.85820  0.90848  Biso   1.000  O
  O16      1.0000 0.08910  0.35820  0.59152  Biso   1.000  O
  O17      1.0000 0.48654  0.84170  0.08252  Biso   1.000  O
  O18      1.0000 0.01346  0.34170  0.41748  Biso   1.000  O
  O19      1.0000 0.51346  0.15830  0.91748  Biso   1.000  O
  O20      1.0000 0.98654  0.65830  0.58252  Biso   1.000  O
  C1       1.0000 0.15060  0.94050  0.13820  Biso   1.000  C
  C2       1.0000 0.34940  0.44050  0.36180  Biso   1.000  C
  C3       1.0000 0.84940  0.05950  0.86180  Biso   1.000  C
  C4       1.0000 0.65060  0.55950  0.63820  Biso   1.000  C
  C5       1.0000 0.11260  0.86010  0.17610  Biso   1.000  C
  C6       1.0000 0.38740  0.36010  0.32390  Biso   1.000  C
  C7       1.0000 0.88740  0.13990  0.82390  Biso   1.000  C
  C8       1.0000 0.61260  0.63990  0.67610  Biso   1.000  C
  H1       1.0000 0.14510  0.81470  0.22510  Biso   1.000  H
  H2       1.0000 0.35490  0.31470  0.27490  Biso   1.000  H
  H3       1.0000 0.85490  0.18530  0.77490  Biso   1.000  H
  H4       1.0000 0.64510  0.68530  0.72510  Biso   1.000  H
  C9       1.0000 0.02880  0.84340  0.14490  Biso   1.000  C
  C10      1.0000 0.47120  0.34340  0.35510  Biso   1.000  C
  C11      1.0000 0.97120  0.15660  0.85510  Biso   1.000  C
  C12      1.0000 0.52880  0.65660  0.64490  Biso   1.000  C
  C13      1.0000 0.99610  0.73400  0.19020  Biso   1.000  C
  C14      1.0000 0.50390  0.23400  0.30980  Biso   1.000  C
  C15      1.0000 0.00390  0.26600  0.80980  Biso   1.000  C
  C16      1.0000 0.49610  0.76600  0.69020  Biso   1.000  C
  F1       1.0000 0.00880  0.57030  0.18340  Biso   1.000  F
  F2       1.0000 0.49120  0.07030  0.31660  Biso   1.000  F
  F3       1.0000 0.99120  0.42970  0.81660  Biso   1.000  F
  F4       1.0000 0.50880  0.92970  0.68340  Biso   1.000  F
  F5       1.0000 0.03820  0.77400  0.26510  Biso   1.000  F
  F6       1.0000 0.46180  0.27400  0.23490  Biso   1.000  F
  F7       1.0000 0.96180  0.22600  0.73490  Biso   1.000  F
  F8       1.0000 0.53820  0.72600  0.76510  Biso   1.000  F
  F9       1.0000 0.91860  0.75700  0.16900  Biso   1.000  F
  F10      1.0000 0.58140  0.25700  0.33100  Biso   1.000  F
  F11      1.0000 0.08140  0.24300  0.83100  Biso   1.000  F
  F12      1.0000 0.41860  0.74300  0.66900  Biso   1.000  F
  C17      1.0000 0.24460  0.94000  0.18260  Biso   1.000  C
  C18      1.0000 0.25540  0.44000  0.31740  Biso   1.000  C
  C19      1.0000 0.75540  0.06000  0.81740  Biso   1.000  C
  C20      1.0000 0.74460  0.56000  0.68260  Biso   1.000  C
  F13      1.0000 0.27700  0.95300  0.25750  Biso   1.000  F
  F14      1.0000 0.22300  0.45300  0.24250  Biso   1.000  F
  F15      1.0000 0.72300  0.04700  0.74250  Biso   1.000  F
  F16      1.0000 0.77700  0.54700  0.75750  Biso   1.000  F
  F17      1.0000 0.26920  0.79500  0.16800  Biso   1.000  F
  F18      1.0000 0.23080  0.29500  0.33200  Biso   1.000  F
  F19      1.0000 0.73080  0.20500  0.83200  Biso   1.000  F
  F20      1.0000 0.76920  0.70500  0.66800  Biso   1.000  F
  F21      1.0000 0.27500  0.06800  0.15970  Biso   1.000  F
  F22      1.0000 0.22500  0.56800  0.34030  Biso   1.000  F
  F23      1.0000 0.72500  0.93200  0.84030  Biso   1.000  F
  F24      1.0000 0.77500  0.43200  0.65970  Biso   1.000  F
  N1       1.0000 0.91320  0.33680  0.01920  Biso   1.000  N
  N2       1.0000 0.58680  0.83680  0.48080  Biso   1.000  N
  N3       1.0000 0.08680  0.66320  0.98080  Biso   1.000  N
  N4       1.0000 0.41320  0.16320  0.51920  Biso   1.000  N
  C21      1.0000 0.89030  0.47990  0.97670  Biso   1.000  C
  C22      1.0000 0.60970  0.97990  0.52330  Biso   1.000  C
  C23      1.0000 0.10970  0.52010  0.02330  Biso   1.000  C
  C24      1.0000 0.39030  0.02010  0.47670  Biso   1.000  C
  H5       1.0000 0.91950  0.51650  0.95090  Biso   1.000  H
  H6       1.0000 0.58050  0.01650  0.54910  Biso   1.000  H
  H7       1.0000 0.08050  0.48350  0.04910  Biso   1.000  H
  H8       1.0000 0.41950  0.98350  0.45090  Biso   1.000  H
  C25      1.0000 0.82470  0.57390  0.97040  Biso   1.000  C
  C26      1.0000 0.67530  0.07390  0.52960  Biso   1.000  C
  C27      1.0000 0.17530  0.42610  0.02960  Biso   1.000  C
  C28      1.0000 0.32470  0.92610  0.47040  Biso   1.000  C
  H9       1.0000 0.81080  0.67480  0.94140  Biso   1.000  H
  H10      1.0000 0.68920  0.17480  0.55860  Biso   1.000  H
  H11      1.0000 0.18920  0.32520  0.05860  Biso   1.000  H
  H12      1.0000 0.31080  0.82520  0.44140  Biso   1.000  H
  C29      1.0000 0.77870  0.52180  0.00630  Biso   1.000  C
  C30      1.0000 0.72130  0.02180  0.49370  Biso   1.000  C
  C31      1.0000 0.22130  0.47820  0.99370  Biso   1.000  C
  C32      1.0000 0.27870  0.97820  0.50630  Biso   1.000  C
  C33      1.0000 0.80110  0.36680  0.04590  Biso   1.000  C
  C34      1.0000 0.69890  0.86680  0.45410  Biso   1.000  C
  C35      1.0000 0.19890  0.63320  0.95410  Biso   1.000  C
  C36      1.0000 0.30110  0.13320  0.54590  Biso   1.000  C
  H13      1.0000 0.77010  0.32290  0.06860  Biso   1.000  H
  H14      1.0000 0.72990  0.82290  0.43140  Biso   1.000  H
  H15      1.0000 0.22990  0.67710  0.93140  Biso   1.000  H
  H16      1.0000 0.27010  0.17710  0.56860  Biso   1.000  H
  C37      1.0000 0.86820  0.27710  0.05210  Biso   1.000  C
  C38      1.0000 0.63180  0.77710  0.44790  Biso   1.000  C
  C39      1.0000 0.13180  0.72290  0.94790  Biso   1.000  C
  C40      1.0000 0.36820  0.22290  0.55210  Biso   1.000  C
  H17      1.0000 0.88250  0.17400  0.07950  Biso   1.000  H
  H18      1.0000 0.61750  0.67400  0.42050  Biso   1.000  H
  H19      1.0000 0.11750  0.82600  0.92050  Biso   1.000  H
  H20      1.0000 0.38250  0.32600  0.57950  Biso   1.000  H
  C41      1.0000 0.58320  0.67270  0.00240  Biso   1.000  C
  C42      1.0000 0.91680  0.17270  0.49760  Biso   1.000  C
  C43      1.0000 0.41680  0.32730  0.99760  Biso   1.000  C
  C44      1.0000 0.08320  0.82730  0.50240  Biso   1.000  C
  H21      1.0000 0.53630  0.62500  0.00150  Biso   1.000  H
  H22      1.0000 0.96370  0.12500  0.49850  Biso   1.000  H
  H23      1.0000 0.46370  0.37500  0.99850  Biso   1.000  H
  H24      1.0000 0.03630  0.87500  0.50150  Biso   1.000  H
  C45      1.0000 0.64240  0.56390  0.00420  Biso   1.000  C
  C46      1.0000 0.85760  0.06390  0.49580  Biso   1.000  C
  C47      1.0000 0.35760  0.43610  0.99580  Biso   1.000  C
  C48      1.0000 0.14240  0.93610  0.50420  Biso   1.000  C
  H25      1.0000 0.63550  0.44540  0.00480  Biso   1.000  H
  H26      1.0000 0.86450  0.94540  0.49520  Biso   1.000  H
  H27      1.0000 0.36450  0.55460  0.99520  Biso   1.000  H
  H28      1.0000 0.13550  0.05460  0.50480  Biso   1.000  H
  C49      1.0000 0.71240  0.62980  0.00490  Biso   1.000  C
  C50      1.0000 0.78760  0.12980  0.49510  Biso   1.000  C
  C51      1.0000 0.28760  0.37020  0.99510  Biso   1.000  C
  C52      1.0000 0.21240  0.87020  0.50490  Biso   1.000  C
  C53      1.0000 0.71850  0.80670  0.00450  Biso   1.000  C
  C54      1.0000 0.78150  0.30670  0.49550  Biso   1.000  C
  C55      1.0000 0.28150  0.19330  0.99550  Biso   1.000  C
  C56      1.0000 0.21850  0.69330  0.50450  Biso   1.000  C
  H29      1.0000 0.76470  0.85730  0.00530  Biso   1.000  H
  H30      1.0000 0.73530  0.35730  0.49470  Biso   1.000  H
  H31      1.0000 0.23530  0.14270  0.99470  Biso   1.000  H
  H32      1.0000 0.26470  0.64270  0.50530  Biso   1.000  H
  C57      1.0000 0.65680  0.90810  0.00300  Biso   1.000  C
  C58      1.0000 0.84320  0.40810  0.49700  Biso   1.000  C
  C59      1.0000 0.34320  0.09190  0.99700  Biso   1.000  C
  C60      1.0000 0.15680  0.59190  0.50300  Biso   1.000  C
  H33      1.0000 0.66220  0.02710  0.00250  Biso   1.000  H
  H34      1.0000 0.83780  0.52710  0.49750  Biso   1.000  H
  H35      1.0000 0.33780  0.97290  0.99750  Biso   1.000  H
  H36      1.0000 0.16220  0.47290  0.50250  Biso   1.000  H
  N5       1.0000 0.58900  0.84280  0.00210  Biso   1.000  N
  N6       1.0000 0.91100  0.34280  0.49790  Biso   1.000  N
  N7       1.0000 0.41100  0.15720  0.99790  Biso   1.000  N
  N8       1.0000 0.08900  0.65720  0.50210  Biso   1.000  N
  C61      1.0000 0.61670  0.10080  0.16120  Biso   1.000  C
  C62      1.0000 0.88330  0.60080  0.33880  Biso   1.000  C
  C63      1.0000 0.38330  0.89920  0.83880  Biso   1.000  C
  C64      1.0000 0.11670  0.39920  0.66120  Biso   1.000  C
  C65      1.0000 0.59240  0.96920  0.19360  Biso   1.000  C
  C66      1.0000 0.90760  0.46920  0.30640  Biso   1.000  C
  C67      1.0000 0.40760  0.03080  0.80640  Biso   1.000  C
  C68      1.0000 0.09240  0.53080  0.69360  Biso   1.000  C
  H37      1.0000 0.61980  0.95770  0.24720  Biso   1.000  H
  H38      1.0000 0.88020  0.45770  0.25280  Biso   1.000  H
  H39      1.0000 0.38020  0.04230  0.75280  Biso   1.000  H
  H40      1.0000 0.11980  0.54230  0.74720  Biso   1.000  H
  C69      1.0000 0.53080  0.85360  0.15290  Biso   1.000  C
  C70      1.0000 0.96920  0.35360  0.34710  Biso   1.000  C
  C71      1.0000 0.46920  0.14640  0.84710  Biso   1.000  C
  C72      1.0000 0.03080  0.64640  0.65290  Biso   1.000  C
  C73      1.0000 0.51100  0.71400  0.19660  Biso   1.000  C
  C74      1.0000 0.98900  0.21400  0.30340  Biso   1.000  C
  C75      1.0000 0.48900  0.28600  0.80340  Biso   1.000  C
  C76      1.0000 0.01100  0.78600  0.69660  Biso   1.000  C
  F25      1.0000 0.52730  0.56670  0.17430  Biso   1.000  F
  F26      1.0000 0.97270  0.06670  0.32570  Biso   1.000  F
  F27      1.0000 0.47270  0.43330  0.82570  Biso   1.000  F
  F28      1.0000 0.02730  0.93330  0.67430  Biso   1.000  F
  F29      1.0000 0.55460  0.73500  0.27120  Biso   1.000  F
  F30      1.0000 0.94540  0.23500  0.22880  Biso   1.000  F
  F31      1.0000 0.44540  0.26500  0.72880  Biso   1.000  F
  F32      1.0000 0.05460  0.76500  0.77120  Biso   1.000  F
  F33      1.0000 0.43380  0.71300  0.17720  Biso   1.000  F
  F34      1.0000 0.06620  0.21300  0.32280  Biso   1.000  F
  F35      1.0000 0.56620  0.28700  0.82280  Biso   1.000  F
  F36      1.0000 0.93380  0.78700  0.67720  Biso   1.000  F
  C77      1.0000 0.68660  0.21310  0.21830  Biso   1.000  C
  C78      1.0000 0.81340  0.71310  0.28170  Biso   1.000  C
  C79      1.0000 0.31340  0.78690  0.78170  Biso   1.000  C
  C80      1.0000 0.18660  0.28690  0.71830  Biso   1.000  C
  F37      1.0000 0.74290  0.21900  0.19250  Biso   1.000  F
  F38      1.0000 0.75710  0.71900  0.30750  Biso   1.000  F
  F39      1.0000 0.25710  0.78100  0.80750  Biso   1.000  F
  F40      1.0000 0.24290  0.28100  0.69250  Biso   1.000  F
  F41      1.0000 0.66190  0.36850  0.21480  Biso   1.000  F
  F42      1.0000 0.83810  0.86850  0.28520  Biso   1.000  F
  F43      1.0000 0.33810  0.63150  0.78520  Biso   1.000  F
  F44      1.0000 0.16190  0.13150  0.71480  Biso   1.000  F
  F45      1.0000 0.72410  0.16000  0.29130  Biso   1.000  F
  F46      1.0000 0.77590  0.66000  0.20870  Biso   1.000  F
  F47      1.0000 0.27590  0.84000  0.70870  Biso   1.000  F
  F48      1.0000 0.22410  0.34000  0.79130  Biso   1.000  F
  C81      1.0000 0.99350  0.74600  0.19140  Biso   1.000  C
  C82      1.0000 0.50650  0.24600  0.30860  Biso   1.000  C
  C83      1.0000 0.00650  0.25400  0.80860  Biso   1.000  C
  C84      1.0000 0.49350  0.75400  0.69140  Biso   1.000  C
  F49      1.0000 0.96700  0.59300  0.16030  Biso   1.000  F
  F50      1.0000 0.53300  0.09300  0.33970  Biso   1.000  F
  F51      1.0000 0.03300  0.40700  0.83970  Biso   1.000  F
  F52      1.0000 0.46700  0.90700  0.66030  Biso   1.000  F
  F53      1.0000 0.04470  0.71800  0.26610  Biso   1.000  F
  F54      1.0000 0.45530  0.21800  0.23390  Biso   1.000  F
  F55      1.0000 0.95530  0.28200  0.73390  Biso   1.000  F
  F56      1.0000 0.54470  0.78200  0.76610  Biso   1.000  F
  F57      1.0000 0.93090  0.83000  0.18870  Biso   1.000  F
  F58      1.0000 0.56910  0.33000  0.31130  Biso   1.000  F
  F59      1.0000 0.06910  0.17000  0.81130  Biso   1.000  F
  F60      1.0000 0.43090  0.67000  0.68870  Biso   1.000  F
  C85      1.0000 0.24410  0.93700  0.16890  Biso   1.000  C
  C86      1.0000 0.25590  0.43700  0.33110  Biso   1.000  C
  C87      1.0000 0.75590  0.06300  0.83110  Biso   1.000  C
  C88      1.0000 0.74410  0.56300  0.66890  Biso   1.000  C
  F61      1.0000 0.28040  0.87200  0.23830  Biso   1.000  F
  F62      1.0000 0.21960  0.37200  0.26170  Biso   1.000  F
  F63      1.0000 0.71960  0.12800  0.76170  Biso   1.000  F
  F64      1.0000 0.78040  0.62800  0.73830  Biso   1.000  F
  F65      1.0000 0.27180  0.86000  0.12680  Biso   1.000  F
  F66      1.0000 0.22820  0.36000  0.37320  Biso   1.000  F
  F67      1.0000 0.72820  0.14000  0.87320  Biso   1.000  F
  F68      1.0000 0.77180  0.64000  0.62680  Biso   1.000  F
  F69      1.0000 0.27130  0.09700  0.17700  Biso   1.000  F
  F70      1.0000 0.22870  0.59700  0.32300  Biso   1.000  F
  F71      1.0000 0.72870  0.90300  0.82300  Biso   1.000  F
  F72      1.0000 0.77130  0.40300  0.67700  Biso   1.000  F
  C89      1.0000 0.51180  0.72500  0.20290  Biso   1.000  C
  C90      1.0000 0.98820  0.22500  0.29710  Biso   1.000  C
  C91      1.0000 0.48820  0.27500  0.79710  Biso   1.000  C
  C92      1.0000 0.01180  0.77500  0.70290  Biso   1.000  C
  F73      1.0000 0.47770  0.58100  0.16610  Biso   1.000  F
  F74      1.0000 0.02230  0.08100  0.33390  Biso   1.000  F
  F75      1.0000 0.52230  0.41900  0.83390  Biso   1.000  F
  F76      1.0000 0.97770  0.91900  0.66610  Biso   1.000  F
  F77      1.0000 0.57440  0.66400  0.26700  Biso   1.000  F
  F78      1.0000 0.92560  0.16400  0.23300  Biso   1.000  F
  F79      1.0000 0.42560  0.33600  0.73300  Biso   1.000  F
  F80      1.0000 0.07440  0.83600  0.76700  Biso   1.000  F
  F81      1.0000 0.45930  0.78300  0.22560  Biso   1.000  F
  F82      1.0000 0.04070  0.28300  0.27440  Biso   1.000  F
  F83      1.0000 0.54070  0.21700  0.77440  Biso   1.000  F
  F84      1.0000 0.95930  0.71700  0.72560  Biso   1.000  F
  C93      1.0000 0.68990  0.22200  0.20550  Biso   1.000  C
  C94      1.0000 0.81010  0.72200  0.29450  Biso   1.000  C
  C95      1.0000 0.31010  0.77800  0.79450  Biso   1.000  C
  C96      1.0000 0.18990  0.27800  0.70550  Biso   1.000  C
  F85      1.0000 0.75770  0.16300  0.20270  Biso   1.000  F
  F86      1.0000 0.74230  0.66300  0.29730  Biso   1.000  F
  F87      1.0000 0.24230  0.83700  0.79730  Biso   1.000  F
  F88      1.0000 0.25770  0.33700  0.70270  Biso   1.000  F
  F89      1.0000 0.68200  0.38100  0.18490  Biso   1.000  F
  F90      1.0000 0.81800  0.88100  0.31510  Biso   1.000  F
  F91      1.0000 0.31800  0.61900  0.81510  Biso   1.000  F
  F92      1.0000 0.18200  0.11900  0.68490  Biso   1.000  F
  F93      1.0000 0.70660  0.22300  0.28000  Biso   1.000  F
  F94      1.0000 0.79340  0.72300  0.22000  Biso   1.000  F
  F95      1.0000 0.29340  0.77700  0.72000  Biso   1.000  F
  F96      1.0000 0.20660  0.27700  0.78000  Biso   1.000  F
