data_image0
_cell_length_a       18.3844
_cell_length_b       7.767
_cell_length_c       19.1518
_cell_angle_alpha    90
_cell_angle_beta     116.201
_cell_angle_gamma    90

_symmetry_space_group_name_H-M    "P 1"
_symmetry_int_tables_number       1

loop_
  _symmetry_equiv_pos_as_xyz
  'x, y, z'

loop_
  _atom_site_label
  _atom_site_occupancy
  _atom_site_fract_x
  _atom_site_fract_y
  _atom_site_fract_z
  _atom_site_thermal_displace_type
  _atom_site_B_iso_or_equiv
  _atom_site_type_symbol
  Cu1      1.0000 0.00000  0.50000  0.50000  Biso   1.000  Cu
  Cu2      1.0000 0.50000  0.00000  0.00000  Biso   1.000  Cu
  Mn1      1.0000 0.50000  0.50000  0.50000  Biso   1.000  Mn
  Mn2      1.0000 0.00000  0.00000  0.00000  Biso   1.000  Mn
  C1       1.0000 0.81070  0.70540  0.28740  Biso   1.000  C
  C2       1.0000 0.68930  0.20540  0.21260  Biso   1.000  C
  C3       1.0000 0.18930  0.29460  0.71260  Biso   1.000  C
  C4       1.0000 0.31070  0.79460  0.78740  Biso   1.000  C
  F1       1.0000 0.75210  0.70500  0.30830  Biso   1.000  F
  F2       1.0000 0.74790  0.20500  0.19170  Biso   1.000  F
  F3       1.0000 0.24790  0.29500  0.69170  Biso   1.000  F
  F4       1.0000 0.25210  0.79500  0.80830  Biso   1.000  F
  F5       1.0000 0.77690  0.65190  0.21130  Biso   1.000  F
  F6       1.0000 0.72310  0.15190  0.28870  Biso   1.000  F
  F7       1.0000 0.22310  0.34810  0.78870  Biso   1.000  F
  F8       1.0000 0.27690  0.84810  0.71130  Biso   1.000  F
  F9       1.0000 0.83400  0.86270  0.28680  Biso   1.000  F
  F10      1.0000 0.66600  0.36270  0.21320  Biso   1.000  F
  F11      1.0000 0.16600  0.13730  0.71320  Biso   1.000  F
  F12      1.0000 0.33400  0.63730  0.78680  Biso   1.000  F
  C5       1.0000 0.88250  0.59600  0.33920  Biso   1.000  C
  C6       1.0000 0.61750  0.09600  0.16080  Biso   1.000  C
  C7       1.0000 0.11750  0.40400  0.66080  Biso   1.000  C
  C8       1.0000 0.38250  0.90400  0.83920  Biso   1.000  C
  O1       1.0000 0.91216  0.64370  0.40829  Biso   1.000  O
  O2       1.0000 0.58784  0.14370  0.09171  Biso   1.000  O
  O3       1.0000 0.08784  0.35630  0.59171  Biso   1.000  O
  O4       1.0000 0.41216  0.85630  0.90829  Biso   1.000  O
  C9       1.0000 0.90510  0.45890  0.30590  Biso   1.000  C
  C10      1.0000 0.59490  0.95890  0.19410  Biso   1.000  C
  C11      1.0000 0.09490  0.54110  0.69410  Biso   1.000  C
  C12      1.0000 0.40510  0.04110  0.80590  Biso   1.000  C
  H1       1.0000 0.87600  0.44200  0.25250  Biso   1.000  H
  H2       1.0000 0.62400  0.94200  0.24750  Biso   1.000  H
  H3       1.0000 0.12400  0.55800  0.74750  Biso   1.000  H
  H4       1.0000 0.37600  0.05800  0.75250  Biso   1.000  H
  C13      1.0000 0.96800  0.34680  0.34690  Biso   1.000  C
  C14      1.0000 0.53200  0.84680  0.15310  Biso   1.000  C
  C15      1.0000 0.03200  0.65320  0.65310  Biso   1.000  C
  C16      1.0000 0.46800  0.15320  0.84690  Biso   1.000  C
  O5       1.0000 0.01356  0.34130  0.41731  Biso   1.000  O
  O6       1.0000 0.48644  0.84130  0.08269  Biso   1.000  O
  O7       1.0000 0.98644  0.65870  0.58269  Biso   1.000  O
  O8       1.0000 0.51356  0.15870  0.91731  Biso   1.000  O
  C17      1.0000 0.98560  0.20790  0.30170  Biso   1.000  C
  C18      1.0000 0.51440  0.70790  0.19830  Biso   1.000  C
  C19      1.0000 0.01440  0.79210  0.69830  Biso   1.000  C
  C20      1.0000 0.48560  0.29210  0.80170  Biso   1.000  C
  F13      1.0000 0.97040  0.05630  0.32910  Biso   1.000  F
  F14      1.0000 0.52960  0.55630  0.17090  Biso   1.000  F
  F15      1.0000 0.02960  0.94370  0.67090  Biso   1.000  F
  F16      1.0000 0.47040  0.44370  0.82910  Biso   1.000  F
  F17      1.0000 0.06230  0.20400  0.31960  Biso   1.000  F
  F18      1.0000 0.43770  0.70400  0.18040  Biso   1.000  F
  F19      1.0000 0.93770  0.79600  0.68040  Biso   1.000  F
  F20      1.0000 0.56230  0.29600  0.81960  Biso   1.000  F
  F21      1.0000 0.94180  0.21430  0.22940  Biso   1.000  F
  F22      1.0000 0.55820  0.71430  0.27060  Biso   1.000  F
  F23      1.0000 0.05820  0.78570  0.77060  Biso   1.000  F
  F24      1.0000 0.44180  0.28570  0.72940  Biso   1.000  F
  N1       1.0000 0.08877  0.65500  0.50087  Biso   1.000  N
  N2       1.0000 0.41123  0.15500  0.99913  Biso   1.000  N
  N3       1.0000 0.91123  0.34500  0.49913  Biso   1.000  N
  N4       1.0000 0.58877  0.84500  0.00087  Biso   1.000  N
  C21      1.0000 0.08420  0.82480  0.50260  Biso   1.000  C
  C22      1.0000 0.41580  0.32480  0.99740  Biso   1.000  C
  C23      1.0000 0.91580  0.17520  0.49740  Biso   1.000  C
  C24      1.0000 0.58420  0.67520  0.00260  Biso   1.000  C
  H5       1.0000 0.03810  0.87340  0.50300  Biso   1.000  H
  H6       1.0000 0.46190  0.37340  0.99700  Biso   1.000  H
  H7       1.0000 0.96190  0.12660  0.49700  Biso   1.000  H
  H8       1.0000 0.53810  0.62660  0.00300  Biso   1.000  H
  C25      1.0000 0.14360  0.93310  0.50390  Biso   1.000  C
  C26      1.0000 0.35640  0.43310  0.99610  Biso   1.000  C
  C27      1.0000 0.85640  0.06690  0.49610  Biso   1.000  C
  C28      1.0000 0.64360  0.56690  0.00390  Biso   1.000  C
  H9       1.0000 0.13720  0.05170  0.50490  Biso   1.000  H
  H10      1.0000 0.36280  0.55170  0.99510  Biso   1.000  H
  H11      1.0000 0.86280  0.94830  0.49510  Biso   1.000  H
  H12      1.0000 0.63720  0.44830  0.00490  Biso   1.000  H
  C29      1.0000 0.21268  0.86690  0.50360  Biso   1.000  C
  C30      1.0000 0.28732  0.36690  0.99640  Biso   1.000  C
  C31      1.0000 0.78732  0.13310  0.49640  Biso   1.000  C
  C32      1.0000 0.71268  0.63310  0.00360  Biso   1.000  C
  C33      1.0000 0.21790  0.68910  0.50190  Biso   1.000  C
  C34      1.0000 0.28210  0.18910  0.99810  Biso   1.000  C
  C35      1.0000 0.78210  0.31090  0.49810  Biso   1.000  C
  C36      1.0000 0.71790  0.81090  0.00190  Biso   1.000  C
  H13      1.0000 0.26340  0.63750  0.50160  Biso   1.000  H
  H14      1.0000 0.23660  0.13750  0.99840  Biso   1.000  H
  H15      1.0000 0.73660  0.36250  0.49840  Biso   1.000  H
  H16      1.0000 0.76340  0.86250  0.00160  Biso   1.000  H
  C37      1.0000 0.15590  0.58950  0.50080  Biso   1.000  C
  C38      1.0000 0.34410  0.08950  0.99920  Biso   1.000  C
  C39      1.0000 0.84410  0.41050  0.49920  Biso   1.000  C
  C40      1.0000 0.65590  0.91050  0.00080  Biso   1.000  C
  H17      1.0000 0.16070  0.47040  0.49980  Biso   1.000  H
  H18      1.0000 0.33930  0.97040  0.00020  Biso   1.000  H
  H19      1.0000 0.83930  0.52960  0.50020  Biso   1.000  H
  H20      1.0000 0.66070  0.02960  0.99980  Biso   1.000  H
  C41      1.0000 0.27910  0.97520  0.50491  Biso   1.000  C
  C42      1.0000 0.22090  0.47520  0.99509  Biso   1.000  C
  C43      1.0000 0.72090  0.02480  0.49509  Biso   1.000  C
  C44      1.0000 0.77910  0.52480  0.00491  Biso   1.000  C
  C45      1.0000 0.30150  0.12870  0.54560  Biso   1.000  C
  C46      1.0000 0.19850  0.62870  0.95440  Biso   1.000  C
  C47      1.0000 0.69850  0.87130  0.45440  Biso   1.000  C
  C48      1.0000 0.80150  0.37130  0.04560  Biso   1.000  C
  H21      1.0000 0.27120  0.17110  0.57000  Biso   1.000  H
  H22      1.0000 0.22880  0.67110  0.93000  Biso   1.000  H
  H23      1.0000 0.72880  0.82890  0.43000  Biso   1.000  H
  H24      1.0000 0.77120  0.32890  0.07000  Biso   1.000  H
  C49      1.0000 0.36750  0.21910  0.55040  Biso   1.000  C
  C50      1.0000 0.13250  0.71910  0.94960  Biso   1.000  C
  C51      1.0000 0.63250  0.78090  0.44960  Biso   1.000  C
  C52      1.0000 0.86750  0.28090  0.05040  Biso   1.000  C
  H25      1.0000 0.38200  0.32140  0.57850  Biso   1.000  H
  H26      1.0000 0.11800  0.82140  0.92150  Biso   1.000  H
  H27      1.0000 0.61800  0.67860  0.42150  Biso   1.000  H
  H28      1.0000 0.88200  0.17860  0.07850  Biso   1.000  H
  N5       1.0000 0.41144  0.16090  0.51486  Biso   1.000  N
  N6       1.0000 0.08856  0.66090  0.98514  Biso   1.000  N
  N7       1.0000 0.58856  0.83910  0.48514  Biso   1.000  N
  N8       1.0000 0.91144  0.33910  0.01486  Biso   1.000  N
  O9       1.0000 0.47875  0.24050  0.52424  Biso   1.000  O
  O10      1.0000 0.02125  0.74050  0.97576  Biso   1.000  O
  O11      1.0000 0.52125  0.75950  0.47576  Biso   1.000  O
  O12      1.0000 0.97875  0.25950  0.02424  Biso   1.000  O
  C53      1.0000 0.38920  0.01850  0.47170  Biso   1.000  C
  C54      1.0000 0.11080  0.51850  0.02830  Biso   1.000  C
  C55      1.0000 0.61080  0.98150  0.52830  Biso   1.000  C
  C56      1.0000 0.88920  0.48150  0.97170  Biso   1.000  C
  H29      1.0000 0.41790  0.98330  0.44470  Biso   1.000  H
  H30      1.0000 0.08210  0.48330  0.05530  Biso   1.000  H
  H31      1.0000 0.58210  0.01670  0.55530  Biso   1.000  H
  H32      1.0000 0.91790  0.51670  0.94470  Biso   1.000  H
  C57      1.0000 0.32460  0.92370  0.46690  Biso   1.000  C
  C58      1.0000 0.17540  0.42370  0.03310  Biso   1.000  C
  C59      1.0000 0.67540  0.07630  0.53310  Biso   1.000  C
  C60      1.0000 0.82460  0.57630  0.96690  Biso   1.000  C
  H33      1.0000 0.31080  0.82300  0.43770  Biso   1.000  H
  H34      1.0000 0.18920  0.32300  0.06230  Biso   1.000  H
  H35      1.0000 0.68920  0.17700  0.56230  Biso   1.000  H
  H36      1.0000 0.81080  0.67700  0.93770  Biso   1.000  H
  C61      1.0000 0.25310  0.41860  0.31890  Biso   1.000  C
  C62      1.0000 0.24690  0.91860  0.18110  Biso   1.000  C
  C63      1.0000 0.74690  0.58140  0.68110  Biso   1.000  C
  C64      1.0000 0.75310  0.08140  0.81890  Biso   1.000  C
  F25      1.0000 0.23070  0.32550  0.36790  Biso   1.000  F
  F26      1.0000 0.26930  0.82550  0.13210  Biso   1.000  F
  F27      1.0000 0.76930  0.67450  0.63210  Biso   1.000  F
  F28      1.0000 0.73070  0.17450  0.86790  Biso   1.000  F
  F29      1.0000 0.21650  0.35850  0.25220  Biso   1.000  F
  F30      1.0000 0.28350  0.85850  0.24780  Biso   1.000  F
  F31      1.0000 0.78350  0.64150  0.74780  Biso   1.000  F
  F32      1.0000 0.71650  0.14150  0.75220  Biso   1.000  F
  F33      1.0000 0.22180  0.57620  0.32100  Biso   1.000  F
  F34      1.0000 0.27820  0.07620  0.17900  Biso   1.000  F
  F35      1.0000 0.77820  0.42380  0.67900  Biso   1.000  F
  F36      1.0000 0.72180  0.92380  0.82100  Biso   1.000  F
  C65      1.0000 0.34510  0.43210  0.35520  Biso   1.000  C
  C66      1.0000 0.15490  0.93210  0.14480  Biso   1.000  C
  C67      1.0000 0.65490  0.56790  0.64480  Biso   1.000  C
  C68      1.0000 0.84510  0.06790  0.85520  Biso   1.000  C
  O13      1.0000 0.37505  0.51290  0.41823  Biso   1.000  O
  O14      1.0000 0.12495  0.01290  0.08177  Biso   1.000  O
  O15      1.0000 0.62495  0.48710  0.58177  Biso   1.000  O
  O16      1.0000 0.87505  0.98710  0.91823  Biso   1.000  O
  C69      1.0000 0.38390  0.35030  0.31760  Biso   1.000  C
  C70      1.0000 0.11610  0.85030  0.18240  Biso   1.000  C
  C71      1.0000 0.61610  0.64970  0.68240  Biso   1.000  C
  C72      1.0000 0.88390  0.14970  0.81760  Biso   1.000  C
  H37      1.0000 0.35200  0.30020  0.26960  Biso   1.000  H
  H38      1.0000 0.14800  0.80020  0.23040  Biso   1.000  H
  H39      1.0000 0.64800  0.69980  0.73040  Biso   1.000  H
  H40      1.0000 0.85200  0.19980  0.76960  Biso   1.000  H
  C73      1.0000 0.46810  0.33720  0.34670  Biso   1.000  C
  C74      1.0000 0.03190  0.83720  0.15330  Biso   1.000  C
  C75      1.0000 0.53190  0.66280  0.65330  Biso   1.000  C
  C76      1.0000 0.96810  0.16280  0.84670  Biso   1.000  C
  O17      1.0000 0.52164  0.39970  0.40728  Biso   1.000  O
  O18      1.0000 0.97836  0.89970  0.09272  Biso   1.000  O
  O19      1.0000 0.47836  0.60030  0.59272  Biso   1.000  O
  O20      1.0000 0.02164  0.10030  0.90728  Biso   1.000  O
  C77      1.0000 0.50060  0.22570  0.30160  Biso   1.000  C
  C78      1.0000 0.99940  0.72570  0.19840  Biso   1.000  C
  C79      1.0000 0.49940  0.77430  0.69840  Biso   1.000  C
  C80      1.0000 0.00060  0.27430  0.80160  Biso   1.000  C
  F37      1.0000 0.52490  0.07700  0.33440  Biso   1.000  F
  F38      1.0000 0.97510  0.57700  0.16560  Biso   1.000  F
  F39      1.0000 0.47510  0.92300  0.66560  Biso   1.000  F
  F40      1.0000 0.02490  0.42300  0.83440  Biso   1.000  F
  F41      1.0000 0.56640  0.30440  0.30100  Biso   1.000  F
  F42      1.0000 0.93360  0.80440  0.19900  Biso   1.000  F
  F43      1.0000 0.43360  0.69560  0.69900  Biso   1.000  F
  F44      1.0000 0.06640  0.19560  0.80100  Biso   1.000  F
  F45      1.0000 0.45060  0.20150  0.22740  Biso   1.000  F
  F46      1.0000 0.04940  0.70150  0.27260  Biso   1.000  F
  F47      1.0000 0.54940  0.79850  0.77260  Biso   1.000  F
  F48      1.0000 0.95060  0.29850  0.72740  Biso   1.000  F
  F49      1.0000 0.74830  0.64000  0.30090  Biso   1.000  F
  F50      1.0000 0.75170  0.14000  0.19910  Biso   1.000  F
  F51      1.0000 0.25170  0.36000  0.69910  Biso   1.000  F
  F52      1.0000 0.24830  0.86000  0.80090  Biso   1.000  F
  F53      1.0000 0.78860  0.71900  0.21680  Biso   1.000  F
  F54      1.0000 0.71140  0.21900  0.28320  Biso   1.000  F
  F55      1.0000 0.21140  0.28100  0.78320  Biso   1.000  F
  F56      1.0000 0.28860  0.78100  0.71680  Biso   1.000  F
  F57      1.0000 0.81060  0.87570  0.31470  Biso   1.000  F
  F58      1.0000 0.68940  0.37570  0.18530  Biso   1.000  F
  F59      1.0000 0.18940  0.12430  0.68530  Biso   1.000  F
  F60      1.0000 0.31060  0.62430  0.81470  Biso   1.000  F
  F61      1.0000 0.01620  0.06310  0.33550  Biso   1.000  F
  F62      1.0000 0.48380  0.56310  0.16450  Biso   1.000  F
  F63      1.0000 0.98380  0.93690  0.66450  Biso   1.000  F
  F64      1.0000 0.51620  0.43690  0.83550  Biso   1.000  F
  F65      1.0000 0.03950  0.26410  0.27300  Biso   1.000  F
  F66      1.0000 0.46050  0.76410  0.22700  Biso   1.000  F
  F67      1.0000 0.96050  0.73590  0.72700  Biso   1.000  F
  F68      1.0000 0.53950  0.23590  0.77300  Biso   1.000  F
  F69      1.0000 0.92140  0.15700  0.23100  Biso   1.000  F
  F70      1.0000 0.57860  0.65700  0.26900  Biso   1.000  F
  F71      1.0000 0.07860  0.84300  0.76900  Biso   1.000  F
  F72      1.0000 0.42140  0.34300  0.73100  Biso   1.000  F
  F73      1.0000 0.23080  0.26640  0.32380  Biso   1.000  F
  F74      1.0000 0.26920  0.76640  0.17620  Biso   1.000  F
  F75      1.0000 0.76920  0.73360  0.67620  Biso   1.000  F
  F76      1.0000 0.73080  0.23360  0.82380  Biso   1.000  F
  F77      1.0000 0.22200  0.44680  0.23740  Biso   1.000  F
  F78      1.0000 0.27800  0.94680  0.26260  Biso   1.000  F
  F79      1.0000 0.77800  0.55320  0.76260  Biso   1.000  F
  F80      1.0000 0.72200  0.05320  0.73740  Biso   1.000  F
  F81      1.0000 0.21900  0.53310  0.34100  Biso   1.000  F
  F82      1.0000 0.28100  0.03310  0.15900  Biso   1.000  F
  F83      1.0000 0.78100  0.46690  0.65900  Biso   1.000  F
  F84      1.0000 0.71900  0.96690  0.84100  Biso   1.000  F
  F85      1.0000 0.48410  0.05780  0.30930  Biso   1.000  F
  F86      1.0000 0.01590  0.55780  0.19070  Biso   1.000  F
  F87      1.0000 0.51590  0.94220  0.69070  Biso   1.000  F
  F88      1.0000 0.98410  0.44220  0.80930  Biso   1.000  F
  F89      1.0000 0.57830  0.23440  0.32540  Biso   1.000  F
  F90      1.0000 0.92170  0.73440  0.17460  Biso   1.000  F
  F91      1.0000 0.42170  0.76560  0.67460  Biso   1.000  F
  F92      1.0000 0.07830  0.26560  0.82540  Biso   1.000  F
  F93      1.0000 0.46400  0.25600  0.22630  Biso   1.000  F
  F94      1.0000 0.03600  0.75600  0.27370  Biso   1.000  F
  F95      1.0000 0.53600  0.74400  0.77370  Biso   1.000  F
  F96      1.0000 0.96400  0.24400  0.72630  Biso   1.000  F
