data_image0
_cell_length_a       12.389
_cell_length_b       14.146
_cell_length_c       13.259
_cell_angle_alpha    90
_cell_angle_beta     112.676
_cell_angle_gamma    90

_symmetry_space_group_name_H-M    "P 1"
_symmetry_int_tables_number       1

loop_
  _symmetry_equiv_pos_as_xyz
  'x, y, z'

loop_
  _atom_site_label
  _atom_site_occupancy
  _atom_site_fract_x
  _atom_site_fract_y
  _atom_site_fract_z
  _atom_site_thermal_displace_type
  _atom_site_B_iso_or_equiv
  _atom_site_type_symbol
  Cu1      1.0000 0.83534  0.40738  0.57841  Biso   1.000  Cu
  Cu2      1.0000 0.66466  0.90738  0.92159  Biso   1.000  Cu
  Cu3      1.0000 0.16466  0.59262  0.42159  Biso   1.000  Cu
  Cu4      1.0000 0.33534  0.09262  0.07841  Biso   1.000  Cu
  Cu5      1.0000 0.47371  0.06816  0.90709  Biso   1.000  Cu
  Cu6      1.0000 0.02629  0.56816  0.59291  Biso   1.000  Cu
  Cu7      1.0000 0.52629  0.93184  0.09291  Biso   1.000  Cu
  Cu8      1.0000 0.97371  0.43184  0.40709  Biso   1.000  Cu
  N1       1.0000 0.34470  0.16046  0.83864  Biso   1.000  N
  N2       1.0000 0.15530  0.66046  0.66136  Biso   1.000  N
  N3       1.0000 0.65530  0.83954  0.16136  Biso   1.000  N
  N4       1.0000 0.84470  0.33954  0.33864  Biso   1.000  N
  C1       1.0000 0.36180  0.25260  0.87010  Biso   1.000  C
  C2       1.0000 0.13820  0.75260  0.62990  Biso   1.000  C
  C3       1.0000 0.63820  0.74740  0.12990  Biso   1.000  C
  C4       1.0000 0.86180  0.24740  0.37010  Biso   1.000  C
  H1       1.0000 0.43330  0.26990  0.92370  Biso   1.000  H
  H2       1.0000 0.06670  0.76990  0.57630  Biso   1.000  H
  H3       1.0000 0.56670  0.73010  0.07630  Biso   1.000  H
  H4       1.0000 0.93330  0.23010  0.42370  Biso   1.000  H
  C5       1.0000 0.27920  0.32040  0.82660  Biso   1.000  C
  C6       1.0000 0.22080  0.82040  0.67340  Biso   1.000  C
  C7       1.0000 0.72080  0.67960  0.17340  Biso   1.000  C
  C8       1.0000 0.77920  0.17960  0.32660  Biso   1.000  C
  H5       1.0000 0.29390  0.38250  0.85110  Biso   1.000  H
  H6       1.0000 0.20610  0.88250  0.64890  Biso   1.000  H
  H7       1.0000 0.70610  0.61750  0.14890  Biso   1.000  H
  H8       1.0000 0.79390  0.11750  0.35110  Biso   1.000  H
  C9       1.0000 0.17440  0.29640  0.74660  Biso   1.000  C
  C10      1.0000 0.32560  0.79640  0.75340  Biso   1.000  C
  C11      1.0000 0.82560  0.70360  0.25340  Biso   1.000  C
  C12      1.0000 0.67440  0.20360  0.24660  Biso   1.000  C
  C13      1.0000 0.15540  0.20250  0.71450  Biso   1.000  C
  C14      1.0000 0.34460  0.70250  0.78550  Biso   1.000  C
  C15      1.0000 0.84460  0.79750  0.28550  Biso   1.000  C
  C16      1.0000 0.65540  0.29750  0.21450  Biso   1.000  C
  H9       1.0000 0.08450  0.18360  0.66110  Biso   1.000  H
  H10      1.0000 0.41550  0.68360  0.83890  Biso   1.000  H
  H11      1.0000 0.91550  0.81640  0.33890  Biso   1.000  H
  H12      1.0000 0.58450  0.31640  0.16110  Biso   1.000  H
  C17      1.0000 0.24340  0.13750  0.76300  Biso   1.000  C
  C18      1.0000 0.25660  0.63750  0.73700  Biso   1.000  C
  C19      1.0000 0.75660  0.86250  0.23700  Biso   1.000  C
  C20      1.0000 0.74340  0.36250  0.26300  Biso   1.000  C
  H13      1.0000 0.23010  0.07470  0.74110  Biso   1.000  H
  H14      1.0000 0.26990  0.57470  0.75890  Biso   1.000  H
  H15      1.0000 0.76990  0.92530  0.25890  Biso   1.000  H
  H16      1.0000 0.73010  0.42530  0.24110  Biso   1.000  H
  C21      1.0000 0.08010  0.37056  0.69480  Biso   1.000  C
  C22      1.0000 0.41990  0.87056  0.80520  Biso   1.000  C
  C23      1.0000 0.91990  0.62944  0.30520  Biso   1.000  C
  C24      1.0000 0.58010  0.12944  0.19480  Biso   1.000  C
  O1       1.0000 0.98336  0.33841  0.62316  Biso   1.000  O
  O2       1.0000 0.51664  0.83841  0.87684  Biso   1.000  O
  O3       1.0000 0.01664  0.66159  0.37684  Biso   1.000  O
  O4       1.0000 0.48336  0.16159  0.12316  Biso   1.000  O
  O5       1.0000 0.10141  0.45367  0.71921  Biso   1.000  O
  O6       1.0000 0.39859  0.95367  0.78079  Biso   1.000  O
  O7       1.0000 0.89859  0.54633  0.28079  Biso   1.000  O
  O8       1.0000 0.60141  0.04633  0.21921  Biso   1.000  O
  N5       1.0000 0.77900  0.31184  0.65670  Biso   1.000  N
  N6       1.0000 0.72100  0.81184  0.84330  Biso   1.000  N
  N7       1.0000 0.22100  0.68816  0.34330  Biso   1.000  N
  N8       1.0000 0.27900  0.18816  0.15670  Biso   1.000  N
  C25      1.0000 0.70740  0.33630  0.70460  Biso   1.000  C
  C26      1.0000 0.79260  0.83630  0.79540  Biso   1.000  C
  C27      1.0000 0.29260  0.66370  0.29540  Biso   1.000  C
  C28      1.0000 0.20740  0.16370  0.20460  Biso   1.000  C
  H17      1.0000 0.68680  0.39970  0.70300  Biso   1.000  H
  H18      1.0000 0.81320  0.89970  0.79700  Biso   1.000  H
  H19      1.0000 0.31320  0.60030  0.29700  Biso   1.000  H
  H20      1.0000 0.18680  0.10030  0.20300  Biso   1.000  H
  C29      1.0000 0.66130  0.27340  0.75690  Biso   1.000  C
  C30      1.0000 0.83870  0.77340  0.74310  Biso   1.000  C
  C31      1.0000 0.33870  0.72660  0.24310  Biso   1.000  C
  C32      1.0000 0.16130  0.22660  0.25690  Biso   1.000  C
  H21      1.0000 0.61290  0.29450  0.79110  Biso   1.000  H
  H22      1.0000 0.88710  0.79450  0.70890  Biso   1.000  H
  H23      1.0000 0.38710  0.70550  0.20890  Biso   1.000  H
  H24      1.0000 0.11290  0.20550  0.29110  Biso   1.000  H
  C33      1.0000 0.68820  0.17920  0.75770  Biso   1.000  C
  C34      1.0000 0.81180  0.67920  0.74230  Biso   1.000  C
  C35      1.0000 0.31180  0.82080  0.24230  Biso   1.000  C
  C36      1.0000 0.18820  0.32080  0.25770  Biso   1.000  C
  C37      1.0000 0.76190  0.15240  0.70620  Biso   1.000  C
  C38      1.0000 0.73810  0.65240  0.79380  Biso   1.000  C
  C39      1.0000 0.23810  0.84760  0.29380  Biso   1.000  C
  C40      1.0000 0.26190  0.34760  0.20620  Biso   1.000  C
  H25      1.0000 0.78230  0.08930  0.70480  Biso   1.000  H
  H26      1.0000 0.71770  0.58930  0.79520  Biso   1.000  H
  H27      1.0000 0.21770  0.91070  0.29520  Biso   1.000  H
  H28      1.0000 0.28230  0.41070  0.20480  Biso   1.000  H
  C41      1.0000 0.80420  0.22020  0.65740  Biso   1.000  C
  C42      1.0000 0.69580  0.72020  0.84260  Biso   1.000  C
  C43      1.0000 0.19580  0.77980  0.34260  Biso   1.000  C
  C44      1.0000 0.30420  0.27980  0.15740  Biso   1.000  C
  H29      1.0000 0.85320  0.20130  0.62290  Biso   1.000  H
  H30      1.0000 0.64680  0.70130  0.87710  Biso   1.000  H
  H31      1.0000 0.14680  0.79870  0.37710  Biso   1.000  H
  H32      1.0000 0.35320  0.29870  0.12290  Biso   1.000  H
  C45      1.0000 0.63830  0.10610  0.81030  Biso   1.000  C
  C46      1.0000 0.86170  0.60610  0.68970  Biso   1.000  C
  C47      1.0000 0.36170  0.89390  0.18970  Biso   1.000  C
  C48      1.0000 0.13830  0.39390  0.31030  Biso   1.000  C
  O9       1.0000 0.66580  0.02242  0.80975  Biso   1.000  O
  O10      1.0000 0.83420  0.52242  0.69025  Biso   1.000  O
  O11      1.0000 0.33420  0.97758  0.19025  Biso   1.000  O
  O12      1.0000 0.16580  0.47758  0.30975  Biso   1.000  O
  O13      1.0000 0.56923  0.14028  0.85174  Biso   1.000  O
  O14      1.0000 0.93077  0.64028  0.64826  Biso   1.000  O
  O15      1.0000 0.43077  0.85972  0.14826  Biso   1.000  O
  O16      1.0000 0.06923  0.35972  0.35174  Biso   1.000  O
  O17      1.0000 0.89141  0.49347  0.49302  Biso   1.000  O
  O18      1.0000 0.60859  0.99347  0.00698  Biso   1.000  O
  O19      1.0000 0.10859  0.50653  0.50698  Biso   1.000  O
  O20      1.0000 0.39141  0.00653  0.99302  Biso   1.000  O
  C49      1.0000 0.67720  0.57050  0.38850  Biso   1.000  C
  C50      1.0000 0.82280  0.07050  0.11150  Biso   1.000  C
  C51      1.0000 0.32280  0.42950  0.61150  Biso   1.000  C
  C52      1.0000 0.17720  0.92950  0.88850  Biso   1.000  C
  H33      1.0000 0.62420  0.60990  0.33210  Biso   1.000  H
  H34      1.0000 0.87580  0.10990  0.16790  Biso   1.000  H
  H35      1.0000 0.37580  0.39010  0.66790  Biso   1.000  H
  H36      1.0000 0.12420  0.89010  0.83210  Biso   1.000  H
  H37      1.0000 0.73390  0.54380  0.36380  Biso   1.000  H
  H38      1.0000 0.76610  0.04380  0.13620  Biso   1.000  H
  H39      1.0000 0.26610  0.45620  0.63620  Biso   1.000  H
  H40      1.0000 0.23390  0.95620  0.86380  Biso   1.000  H
  H41      1.0000 0.71630  0.60770  0.45280  Biso   1.000  H
  H42      1.0000 0.78370  0.10770  0.04720  Biso   1.000  H
  H43      1.0000 0.28370  0.39230  0.54720  Biso   1.000  H
  H44      1.0000 0.21630  0.89230  0.95280  Biso   1.000  H
  C53      1.0000 0.61460  0.49770  0.41290  Biso   1.000  C
  C54      1.0000 0.88540  0.99770  0.08710  Biso   1.000  C
  C55      1.0000 0.38540  0.50230  0.58710  Biso   1.000  C
  C56      1.0000 0.11460  0.00230  0.91290  Biso   1.000  C
  H45      1.0000 0.56310  0.52720  0.44310  Biso   1.000  H
  H46      1.0000 0.93690  0.02720  0.05690  Biso   1.000  H
  H47      1.0000 0.43690  0.47280  0.55690  Biso   1.000  H
  H48      1.0000 0.06310  0.97280  0.94310  Biso   1.000  H
  H49      1.0000 0.56490  0.46960  0.34390  Biso   1.000  H
  H50      1.0000 0.93510  0.96960  0.15610  Biso   1.000  H
  H51      1.0000 0.43510  0.53040  0.65610  Biso   1.000  H
  H52      1.0000 0.06490  0.03040  0.84390  Biso   1.000  H
  O21      1.0000 0.66880  0.42616  0.48010  Biso   1.000  O
  O22      1.0000 0.83120  0.92616  0.01990  Biso   1.000  O
  O23      1.0000 0.33120  0.57384  0.51990  Biso   1.000  O
  O24      1.0000 0.16880  0.07384  0.98010  Biso   1.000  O
  C57      1.0000 0.86580  0.31260  0.03330  Biso   1.000  C
  C58      1.0000 0.63420  0.81260  0.46670  Biso   1.000  C
  C59      1.0000 0.13420  0.68740  0.96670  Biso   1.000  C
  C60      1.0000 0.36580  0.18740  0.53330  Biso   1.000  C
  H53      1.0000 0.83590  0.37180  0.04670  Biso   1.000  H
  H54      1.0000 0.66410  0.87180  0.45330  Biso   1.000  H
  H55      1.0000 0.16410  0.62820  0.95330  Biso   1.000  H
  H56      1.0000 0.33590  0.12820  0.54670  Biso   1.000  H
  H57      1.0000 0.90730  0.28120  0.10160  Biso   1.000  H
  H58      1.0000 0.59270  0.78120  0.39840  Biso   1.000  H
  H59      1.0000 0.09270  0.71880  0.89840  Biso   1.000  H
  H60      1.0000 0.40730  0.21880  0.60160  Biso   1.000  H
  H61      1.0000 0.80210  0.27350  0.98830  Biso   1.000  H
  H62      1.0000 0.69790  0.77350  0.51170  Biso   1.000  H
  H63      1.0000 0.19790  0.72650  0.01170  Biso   1.000  H
  H64      1.0000 0.30210  0.22650  0.48830  Biso   1.000  H
  C61      1.0000 0.94210  0.32900  0.97970  Biso   1.000  C
  C62      1.0000 0.55790  0.82900  0.52030  Biso   1.000  C
  C63      1.0000 0.05790  0.67100  0.02030  Biso   1.000  C
  C64      1.0000 0.44210  0.17100  0.47970  Biso   1.000  C
  H65      1.0000 0.00800  0.36780  0.02390  Biso   1.000  H
  H66      1.0000 0.49200  0.86780  0.47610  Biso   1.000  H
  H67      1.0000 0.99200  0.63220  0.97610  Biso   1.000  H
  H68      1.0000 0.50800  0.13220  0.52390  Biso   1.000  H
  H69      1.0000 0.90200  0.35950  0.90960  Biso   1.000  H
  H70      1.0000 0.59800  0.85950  0.59040  Biso   1.000  H
  H71      1.0000 0.09800  0.64050  0.09040  Biso   1.000  H
  H72      1.0000 0.40200  0.14050  0.40960  Biso   1.000  H
  O25      1.0000 0.98300  0.22560  0.96490  Biso   1.000  O
  O26      1.0000 0.51700  0.72560  0.53510  Biso   1.000  O
  O27      1.0000 0.01700  0.77440  0.03510  Biso   1.000  O
  O28      1.0000 0.48300  0.27440  0.46490  Biso   1.000  O
  H73      1.0000 0.02860  0.22850  0.93360  Biso   1.000  H
  H74      1.0000 0.47140  0.72850  0.56640  Biso   1.000  H
  H75      1.0000 0.97140  0.77150  0.06640  Biso   1.000  H
  H76      1.0000 0.52860  0.27150  0.43360  Biso   1.000  H
  N9       1.0000 0.46100  0.48950  0.04730  Biso   1.000  N
  N10      1.0000 0.03900  0.98950  0.45270  Biso   1.000  N
  N11      1.0000 0.53900  0.51050  0.95270  Biso   1.000  N
  N12      1.0000 0.96100  0.01050  0.54730  Biso   1.000  N
  N13      1.0000 0.46550  0.53100  0.16100  Biso   1.000  N
  N14      1.0000 0.03450  0.03100  0.33900  Biso   1.000  N
  N15      1.0000 0.53450  0.46900  0.83900  Biso   1.000  N
  N16      1.0000 0.96550  0.96900  0.66100  Biso   1.000  N
  H77      1.0000 0.50570  0.50270  0.22120  Biso   1.000  H
  H78      1.0000 0.99430  0.00270  0.27880  Biso   1.000  H
  H79      1.0000 0.49430  0.49730  0.77880  Biso   1.000  H
  H80      1.0000 0.00570  0.99730  0.72120  Biso   1.000  H
  H81      1.0000 0.42750  0.58170  0.16190  Biso   1.000  H
  H82      1.0000 0.07250  0.08170  0.33810  Biso   1.000  H
  H83      1.0000 0.57250  0.41830  0.83810  Biso   1.000  H
  H84      1.0000 0.92750  0.91830  0.66190  Biso   1.000  H
  C65      1.0000 0.50120  0.42160  0.01090  Biso   1.000  C
  C66      1.0000 0.99880  0.92160  0.48910  Biso   1.000  C
  C67      1.0000 0.49880  0.57840  0.98910  Biso   1.000  C
  C68      1.0000 0.00120  0.07840  0.51090  Biso   1.000  C
  H85      1.0000 0.50650  0.35600  0.01490  Biso   1.000  H
  H86      1.0000 0.99350  0.85600  0.48510  Biso   1.000  H
  H87      1.0000 0.49350  0.64400  0.98510  Biso   1.000  H
  H88      1.0000 0.00650  0.14400  0.51490  Biso   1.000  H
