data_image0
_cell_length_a       11.2151
_cell_length_b       13.1298
_cell_length_c       8.2073
_cell_angle_alpha    94.744
_cell_angle_beta     99.76
_cell_angle_gamma    77.517

_symmetry_space_group_name_H-M    "P 1"
_symmetry_int_tables_number       1

loop_
  _symmetry_equiv_pos_as_xyz
  'x, y, z'

loop_
  _atom_site_label
  _atom_site_occupancy
  _atom_site_fract_x
  _atom_site_fract_y
  _atom_site_fract_z
  _atom_site_thermal_displace_type
  _atom_site_B_iso_or_equiv
  _atom_site_type_symbol
  Cu1      1.0000 0.86987  0.53641  0.10908  Biso   1.000  Cu
  Cu2      1.0000 0.13013  0.46359  0.89092  Biso   1.000  Cu
  Cu3      1.0000 0.00768  0.34690  0.28974  Biso   1.000  Cu
  Cu4      1.0000 0.99232  0.65310  0.71026  Biso   1.000  Cu
  Mn1      1.0000 0.00000  0.00000  0.50000  Biso   1.000  Mn
  O1       1.0000 0.68610  0.64100  0.85250  Biso   1.000  O
  O2       1.0000 0.31390  0.35900  0.14750  Biso   1.000  O
  O3       1.0000 0.85540  0.39410  0.14460  Biso   1.000  O
  O4       1.0000 0.14460  0.60590  0.85540  Biso   1.000  O
  O5       1.0000 0.97310  0.21610  0.31400  Biso   1.000  O
  O6       1.0000 0.02690  0.78390  0.68600  Biso   1.000  O
  O7       1.0000 0.86640  0.09330  0.30380  Biso   1.000  O
  O8       1.0000 0.13360  0.90670  0.69620  Biso   1.000  O
  O9       1.0000 0.87520  0.71770  0.93860  Biso   1.000  O
  O10      1.0000 0.12480  0.28230  0.06140  Biso   1.000  O
  O11      1.0000 0.01620  0.48930  0.27080  Biso   1.000  O
  O12      1.0000 0.98380  0.51070  0.72920  Biso   1.000  O
  O13      1.0000 0.13770  0.32460  0.47180  Biso   1.000  O
  O14      1.0000 0.86230  0.67540  0.52820  Biso   1.000  O
  O15      1.0000 0.25650  0.37390  0.69310  Biso   1.000  O
  O16      1.0000 0.74350  0.62610  0.30690  Biso   1.000  O
  O17      1.0000 0.88230  0.04740  0.69180  Biso   1.000  O
  O18      1.0000 0.11770  0.95260  0.30820  Biso   1.000  O
  O19      1.0000 0.10000  0.12070  0.59450  Biso   1.000  O
  O20      1.0000 0.90000  0.87930  0.40550  Biso   1.000  O
  O21      1.0000 0.88250  0.93650  0.96330  Biso   1.000  O
  O22      1.0000 0.11750  0.06350  0.03670  Biso   1.000  O
  O23      1.0000 0.28890  0.17470  0.81400  Biso   1.000  O
  O24      1.0000 0.71110  0.82530  0.18600  Biso   1.000  O
  O25      1.0000 0.64410  0.11200  0.57500  Biso   1.000  O
  O26      1.0000 0.35590  0.88800  0.42500  Biso   1.000  O
  N1       1.0000 0.72450  0.55070  0.94060  Biso   1.000  N
  N2       1.0000 0.27550  0.44930  0.05940  Biso   1.000  N
  N3       1.0000 0.93410  0.65710  0.07040  Biso   1.000  N
  N4       1.0000 0.06590  0.34290  0.92960  Biso   1.000  N
  N5       1.0000 0.49110  0.09930  0.36020  Biso   1.000  N
  N6       1.0000 0.50890  0.90070  0.63980  Biso   1.000  N
  C1       1.0000 0.76760  0.33960  0.08640  Biso   1.000  C
  C2       1.0000 0.23240  0.66040  0.91360  Biso   1.000  C
  C3       1.0000 0.66470  0.38550  0.97170  Biso   1.000  C
  C4       1.0000 0.33530  0.61450  0.02830  Biso   1.000  C
  C5       1.0000 0.57310  0.32930  0.91010  Biso   1.000  C
  C6       1.0000 0.42690  0.67070  0.08990  Biso   1.000  C
  C7       1.0000 0.58110  0.22940  0.95560  Biso   1.000  C
  C8       1.0000 0.41890  0.77060  0.04440  Biso   1.000  C
  C9       1.0000 0.68140  0.18430  0.06630  Biso   1.000  C
  C10      1.0000 0.31860  0.81570  0.93370  Biso   1.000  C
  C11      1.0000 0.77540  0.23670  0.13540  Biso   1.000  C
  C12      1.0000 0.22460  0.76330  0.86460  Biso   1.000  C
  C13      1.0000 0.65010  0.48720  0.90530  Biso   1.000  C
  C14      1.0000 0.34990  0.51280  0.09470  Biso   1.000  C
  C15      1.0000 0.87680  0.17960  0.25730  Biso   1.000  C
  C16      1.0000 0.12320  0.82040  0.74270  Biso   1.000  C
  C17      1.0000 0.10690  0.53750  0.34650  Biso   1.000  C
  C18      1.0000 0.89310  0.46250  0.65350  Biso   1.000  C
  C19      1.0000 0.11170  0.63660  0.29510  Biso   1.000  C
  C20      1.0000 0.88830  0.36340  0.70490  Biso   1.000  C
  C21      1.0000 0.20740  0.68530  0.36990  Biso   1.000  C
  C22      1.0000 0.79260  0.31470  0.63010  Biso   1.000  C
  C23      1.0000 0.29620  0.63910  0.49420  Biso   1.000  C
  C24      1.0000 0.70380  0.36090  0.50580  Biso   1.000  C
  C25      1.0000 0.28960  0.54470  0.54710  Biso   1.000  C
  C26      1.0000 0.71040  0.45530  0.45290  Biso   1.000  C
  C27      1.0000 0.19500  0.49250  0.47740  Biso   1.000  C
  C28      1.0000 0.80500  0.50750  0.52260  Biso   1.000  C
  C29      1.0000 0.02730  0.68920  0.15790  Biso   1.000  C
  C30      1.0000 0.97270  0.31080  0.84210  Biso   1.000  C
  C31      1.0000 0.19580  0.39110  0.55090  Biso   1.000  C
  C32      1.0000 0.80420  0.60890  0.44910  Biso   1.000  C
  C33      1.0000 0.60550  0.07520  0.43780  Biso   1.000  C
  C34      1.0000 0.39450  0.92480  0.56220  Biso   1.000  C
  C35      1.0000 0.45360  0.05350  0.19830  Biso   1.000  C
  C36      1.0000 0.54640  0.94650  0.80170  Biso   1.000  C
  C37      1.0000 0.40040  0.17560  0.43390  Biso   1.000  C
  C38      1.0000 0.59960  0.82440  0.56610  Biso   1.000  C
  H1       1.0000 0.51430  0.35550  0.83300  Biso   1.000  H
  H2       1.0000 0.48570  0.64450  0.16700  Biso   1.000  H
  H3       1.0000 0.51620  0.19960  0.92230  Biso   1.000  H
  H4       1.0000 0.48380  0.80040  0.07770  Biso   1.000  H
  H5       1.0000 0.67240  0.12440  0.07540  Biso   1.000  H
  H6       1.0000 0.32760  0.87560  0.92460  Biso   1.000  H
  H7       1.0000 0.57570  0.50710  0.82830  Biso   1.000  H
  H8       1.0000 0.42430  0.49290  0.17170  Biso   1.000  H
  H9       1.0000 0.21990  0.75030  0.32820  Biso   1.000  H
  H10      1.0000 0.78010  0.24970  0.67180  Biso   1.000  H
  H11      1.0000 0.35660  0.67400  0.53530  Biso   1.000  H
  H12      1.0000 0.64340  0.32600  0.46470  Biso   1.000  H
  H13      1.0000 0.33500  0.51420  0.64170  Biso   1.000  H
  H14      1.0000 0.66500  0.48580  0.35830  Biso   1.000  H
  H15      1.0000 0.06270  0.75530  0.10690  Biso   1.000  H
  H16      1.0000 0.93730  0.24470  0.89310  Biso   1.000  H
  H17      1.0000 0.77450  0.65920  0.89300  Biso   1.000  H
  H18      1.0000 0.22550  0.34080  0.10700  Biso   1.000  H
  H19      1.0000 0.80930  0.06480  0.66680  Biso   1.000  H
  H20      1.0000 0.19070  0.93520  0.33320  Biso   1.000  H
  H21      1.0000 0.88640  0.98130  0.76350  Biso   1.000  H
  H22      1.0000 0.11360  0.01870  0.23650  Biso   1.000  H
  H23      1.0000 0.08670  0.16570  0.54200  Biso   1.000  H
  H24      1.0000 0.91330  0.83430  0.45800  Biso   1.000  H
  H25      1.0000 0.16180  0.12720  0.67570  Biso   1.000  H
  H26      1.0000 0.83820  0.87280  0.32430  Biso   1.000  H
  H27      1.0000 0.88850  0.87090  0.96650  Biso   1.000  H
  H28      1.0000 0.11150  0.12910  0.03350  Biso   1.000  H
  H29      1.0000 0.91770  0.93480  0.07290  Biso   1.000  H
  H30      1.0000 0.08230  0.06520  0.92710  Biso   1.000  H
  H31      1.0000 0.24740  0.18580  0.90420  Biso   1.000  H
  H32      1.0000 0.75260  0.81420  0.09580  Biso   1.000  H
  H33      1.0000 0.27290  0.23260  0.77250  Biso   1.000  H
  H34      1.0000 0.72710  0.76740  0.22750  Biso   1.000  H
  H35      1.0000 0.64900  0.02410  0.36510  Biso   1.000  H
  H36      1.0000 0.35100  0.97590  0.63490  Biso   1.000  H
  H37      1.0000 0.52460  0.01360  0.13900  Biso   1.000  H
  H38      1.0000 0.47540  0.98640  0.86100  Biso   1.000  H
  H39      1.0000 0.38650  0.02480  0.19780  Biso   1.000  H
  H40      1.0000 0.61350  0.97520  0.80220  Biso   1.000  H
  H41      1.0000 0.41880  0.12470  0.12130  Biso   1.000  H
  H42      1.0000 0.58120  0.87530  0.87870  Biso   1.000  H
  H43      1.0000 0.31820  0.15840  0.40360  Biso   1.000  H
  H44      1.0000 0.68180  0.84160  0.59640  Biso   1.000  H
  H45      1.0000 0.38140  0.23130  0.37920  Biso   1.000  H
  H46      1.0000 0.61860  0.76870  0.62080  Biso   1.000  H
  H47      1.0000 0.41590  0.19500  0.54960  Biso   1.000  H
  H48      1.0000 0.58410  0.80500  0.45040  Biso   1.000  H
