data_image0
_cell_length_a       12.588
_cell_length_b       18.717
_cell_length_c       18.227
_cell_angle_alpha    90
_cell_angle_beta     92.98
_cell_angle_gamma    90

_symmetry_space_group_name_H-M    "P 1"
_symmetry_int_tables_number       1

loop_
  _symmetry_equiv_pos_as_xyz
  'x, y, z'

loop_
  _atom_site_label
  _atom_site_occupancy
  _atom_site_fract_x
  _atom_site_fract_y
  _atom_site_fract_z
  _atom_site_thermal_displace_type
  _atom_site_B_iso_or_equiv
  _atom_site_type_symbol
  Cu1      1.0000 0.20901  0.25196  0.89768  Biso   1.000  Cu
  Cu2      1.0000 0.70901  0.24804  0.39768  Biso   1.000  Cu
  Cu3      1.0000 0.79099  0.74804  0.10232  Biso   1.000  Cu
  Cu4      1.0000 0.29099  0.75196  0.60232  Biso   1.000  Cu
  N1       1.0000 0.12860  0.32650  0.98940  Biso   1.000  N
  N2       1.0000 0.62860  0.17350  0.48940  Biso   1.000  N
  N3       1.0000 0.87140  0.67350  0.01060  Biso   1.000  N
  N4       1.0000 0.37140  0.82650  0.51060  Biso   1.000  N
  N5       1.0000 0.79160  0.32160  0.30190  Biso   1.000  N
  N6       1.0000 0.29160  0.17840  0.80190  Biso   1.000  N
  N7       1.0000 0.20840  0.67840  0.69810  Biso   1.000  N
  N8       1.0000 0.70840  0.82160  0.19810  Biso   1.000  N
  N9       1.0000 0.28740  0.18910  0.97660  Biso   1.000  N
  N10      1.0000 0.78740  0.31090  0.47660  Biso   1.000  N
  N11      1.0000 0.71260  0.81090  0.02340  Biso   1.000  N
  N12      1.0000 0.21260  0.68910  0.52340  Biso   1.000  N
  N13      1.0000 0.62950  0.18600  0.31730  Biso   1.000  N
  N14      1.0000 0.12950  0.31400  0.81730  Biso   1.000  N
  N15      1.0000 0.37050  0.81400  0.68270  Biso   1.000  N
  N16      1.0000 0.87050  0.68600  0.18270  Biso   1.000  N
  N17      1.0000 0.33170  0.31730  0.89670  Biso   1.000  N
  N18      1.0000 0.83170  0.18270  0.39670  Biso   1.000  N
  N19      1.0000 0.66830  0.68270  0.10330  Biso   1.000  N
  N20      1.0000 0.16830  0.81730  0.60330  Biso   1.000  N
  N21      1.0000 0.08640  0.18650  0.89630  Biso   1.000  N
  N22      1.0000 0.58640  0.31350  0.39630  Biso   1.000  N
  N23      1.0000 0.91360  0.81350  0.10370  Biso   1.000  N
  N24      1.0000 0.41360  0.68650  0.60370  Biso   1.000  N
  S1       1.0000 0.96709  0.47000  0.15055  Biso   1.000  S
  S2       1.0000 0.46709  0.03000  0.65055  Biso   1.000  S
  S3       1.0000 0.03291  0.53000  0.84945  Biso   1.000  S
  S4       1.0000 0.53291  0.97000  0.34945  Biso   1.000  S
  S5       1.0000 0.46333  0.04520  0.14345  Biso   1.000  S
  S6       1.0000 0.96333  0.45480  0.64345  Biso   1.000  S
  S7       1.0000 0.53667  0.95480  0.85655  Biso   1.000  S
  S8       1.0000 0.03667  0.54520  0.35655  Biso   1.000  S
  S9       1.0000 0.48040  0.41592  0.94785  Biso   1.000  S
  S10      1.0000 0.98040  0.08408  0.44785  Biso   1.000  S
  S11      1.0000 0.51960  0.58408  0.05215  Biso   1.000  S
  S12      1.0000 0.01960  0.91592  0.55215  Biso   1.000  S
  S13      1.0000 0.94290  0.08110  0.92420  Biso   1.000  S
  S14      1.0000 0.44290  0.41890  0.42420  Biso   1.000  S
  S15      1.0000 0.05710  0.91890  0.07580  Biso   1.000  S
  S16      1.0000 0.55710  0.58110  0.57580  Biso   1.000  S
  C1       1.0000 0.05180  0.30010  0.02920  Biso   1.000  C
  C2       1.0000 0.55180  0.19990  0.52920  Biso   1.000  C
  C3       1.0000 0.94820  0.69990  0.97080  Biso   1.000  C
  C4       1.0000 0.44820  0.80010  0.47080  Biso   1.000  C
  H1       1.0000 0.03060  0.25290  0.02180  Biso   1.000  H
  H2       1.0000 0.53060  0.24710  0.52180  Biso   1.000  H
  H3       1.0000 0.96940  0.74710  0.97820  Biso   1.000  H
  H4       1.0000 0.46940  0.75290  0.47820  Biso   1.000  H
  C5       1.0000 0.00180  0.34110  0.08210  Biso   1.000  C
  C6       1.0000 0.50180  0.15890  0.58210  Biso   1.000  C
  C7       1.0000 0.99820  0.65890  0.91790  Biso   1.000  C
  C8       1.0000 0.49820  0.84110  0.41790  Biso   1.000  C
  H5       1.0000 0.95010  0.32100  0.11030  Biso   1.000  H
  H6       1.0000 0.45010  0.17900  0.61030  Biso   1.000  H
  H7       1.0000 0.04990  0.67900  0.88970  Biso   1.000  H
  H8       1.0000 0.54990  0.82100  0.38970  Biso   1.000  H
  C9       1.0000 0.03060  0.41110  0.09120  Biso   1.000  C
  C10      1.0000 0.53060  0.08890  0.59120  Biso   1.000  C
  C11      1.0000 0.96940  0.58890  0.90880  Biso   1.000  C
  C12      1.0000 0.46940  0.91110  0.40880  Biso   1.000  C
  C13      1.0000 0.11080  0.43940  0.04960  Biso   1.000  C
  C14      1.0000 0.61080  0.06060  0.54960  Biso   1.000  C
  C15      1.0000 0.88920  0.56060  0.95040  Biso   1.000  C
  C16      1.0000 0.38920  0.93940  0.45040  Biso   1.000  C
  C17      1.0000 0.15620  0.39460  0.00120  Biso   1.000  C
  C18      1.0000 0.65620  0.10540  0.50120  Biso   1.000  C
  C19      1.0000 0.84380  0.60540  0.99880  Biso   1.000  C
  C20      1.0000 0.34380  0.89460  0.49880  Biso   1.000  C
  H9       1.0000 0.21060  0.41300  0.97420  Biso   1.000  H
  H10      1.0000 0.71060  0.08700  0.47420  Biso   1.000  H
  H11      1.0000 0.78940  0.58700  0.02580  Biso   1.000  H
  H12      1.0000 0.28940  0.91300  0.52580  Biso   1.000  H
  C21      1.0000 0.15020  0.51480  0.05870  Biso   1.000  C
  C22      1.0000 0.65020  0.98520  0.55870  Biso   1.000  C
  C23      1.0000 0.84980  0.48520  0.94130  Biso   1.000  C
  C24      1.0000 0.34980  0.01480  0.44130  Biso   1.000  C
  H13      1.0000 0.10970  0.53890  0.09440  Biso   1.000  H
  H14      1.0000 0.60970  0.96110  0.59440  Biso   1.000  H
  H15      1.0000 0.89030  0.46110  0.90560  Biso   1.000  H
  H16      1.0000 0.39030  0.03890  0.40560  Biso   1.000  H
  H17      1.0000 0.14210  0.53930  0.01240  Biso   1.000  H
  H18      1.0000 0.64210  0.96070  0.51240  Biso   1.000  H
  H19      1.0000 0.85790  0.46070  0.98760  Biso   1.000  H
  H20      1.0000 0.35790  0.03930  0.48760  Biso   1.000  H
  H21      1.0000 0.22390  0.51430  0.07500  Biso   1.000  H
  H22      1.0000 0.72390  0.98570  0.57500  Biso   1.000  H
  H23      1.0000 0.77610  0.48570  0.92500  Biso   1.000  H
  H24      1.0000 0.27610  0.01430  0.42500  Biso   1.000  H
  C25      1.0000 0.89560  0.41050  0.20750  Biso   1.000  C
  C26      1.0000 0.39560  0.08950  0.70750  Biso   1.000  C
  C27      1.0000 0.10440  0.58950  0.79250  Biso   1.000  C
  C28      1.0000 0.60440  0.91050  0.29250  Biso   1.000  C
  C29      1.0000 0.78840  0.41240  0.20710  Biso   1.000  C
  C30      1.0000 0.28840  0.08760  0.70710  Biso   1.000  C
  C31      1.0000 0.21160  0.58760  0.79290  Biso   1.000  C
  C32      1.0000 0.71160  0.91240  0.29290  Biso   1.000  C
  C33      1.0000 0.74060  0.36570  0.25710  Biso   1.000  C
  C34      1.0000 0.24060  0.13430  0.75710  Biso   1.000  C
  C35      1.0000 0.25940  0.63430  0.74290  Biso   1.000  C
  C36      1.0000 0.75940  0.86570  0.24290  Biso   1.000  C
  H25      1.0000 0.66680  0.36660  0.25800  Biso   1.000  H
  H26      1.0000 0.16680  0.13340  0.75800  Biso   1.000  H
  H27      1.0000 0.33320  0.63340  0.74200  Biso   1.000  H
  H28      1.0000 0.83320  0.86660  0.24200  Biso   1.000  H
  C37      1.0000 0.89450  0.32000  0.29990  Biso   1.000  C
  C38      1.0000 0.39450  0.18000  0.79990  Biso   1.000  C
  C39      1.0000 0.10550  0.68000  0.70010  Biso   1.000  C
  C40      1.0000 0.60550  0.82000  0.20010  Biso   1.000  C
  H29      1.0000 0.93140  0.28670  0.32930  Biso   1.000  H
  H30      1.0000 0.43140  0.21330  0.82930  Biso   1.000  H
  H31      1.0000 0.06860  0.71330  0.67070  Biso   1.000  H
  H32      1.0000 0.56860  0.78670  0.17070  Biso   1.000  H
  C41      1.0000 0.95390  0.36570  0.25590  Biso   1.000  C
  C42      1.0000 0.45390  0.13430  0.75590  Biso   1.000  C
  C43      1.0000 0.04610  0.63430  0.74410  Biso   1.000  C
  C44      1.0000 0.54610  0.86570  0.24410  Biso   1.000  C
  H33      1.0000 0.02790  0.36600  0.25910  Biso   1.000  H
  H34      1.0000 0.52790  0.13400  0.75910  Biso   1.000  H
  H35      1.0000 0.97210  0.63400  0.74090  Biso   1.000  H
  H36      1.0000 0.47210  0.86600  0.24090  Biso   1.000  H
  C45      1.0000 0.71940  0.45880  0.15800  Biso   1.000  C
  C46      1.0000 0.21940  0.04120  0.65800  Biso   1.000  C
  C47      1.0000 0.28060  0.54120  0.84200  Biso   1.000  C
  C48      1.0000 0.78060  0.95880  0.34200  Biso   1.000  C
  H37      1.0000 0.76310  0.48700  0.12750  Biso   1.000  H
  H38      1.0000 0.26310  0.01300  0.62750  Biso   1.000  H
  H39      1.0000 0.23690  0.51300  0.87250  Biso   1.000  H
  H40      1.0000 0.73690  0.98700  0.37250  Biso   1.000  H
  H41      1.0000 0.67800  0.48980  0.18730  Biso   1.000  H
  H42      1.0000 0.17800  0.01020  0.68730  Biso   1.000  H
  H43      1.0000 0.32200  0.51020  0.81270  Biso   1.000  H
  H44      1.0000 0.82200  0.98980  0.31270  Biso   1.000  H
  H45      1.0000 0.67260  0.42940  0.12760  Biso   1.000  H
  H46      1.0000 0.17260  0.07060  0.62760  Biso   1.000  H
  H47      1.0000 0.32740  0.57060  0.87240  Biso   1.000  H
  H48      1.0000 0.82740  0.92940  0.37240  Biso   1.000  H
  C49      1.0000 0.28610  0.11670  0.97330  Biso   1.000  C
  C50      1.0000 0.78610  0.38330  0.47330  Biso   1.000  C
  C51      1.0000 0.71390  0.88330  0.02670  Biso   1.000  C
  C52      1.0000 0.21390  0.61670  0.52670  Biso   1.000  C
  H49      1.0000 0.24840  0.09620  0.93340  Biso   1.000  H
  H50      1.0000 0.74840  0.40380  0.43340  Biso   1.000  H
  H51      1.0000 0.75160  0.90380  0.06660  Biso   1.000  H
  H52      1.0000 0.25160  0.59620  0.56660  Biso   1.000  H
  C53      1.0000 0.33410  0.07190  0.02180  Biso   1.000  C
  C54      1.0000 0.83410  0.42810  0.52180  Biso   1.000  C
  C55      1.0000 0.66590  0.92810  0.97820  Biso   1.000  C
  C56      1.0000 0.16590  0.57190  0.47820  Biso   1.000  C
  C57      1.0000 0.39440  0.10370  0.08100  Biso   1.000  C
  C58      1.0000 0.89440  0.39630  0.58100  Biso   1.000  C
  C59      1.0000 0.60560  0.89630  0.91900  Biso   1.000  C
  C60      1.0000 0.10560  0.60370  0.41900  Biso   1.000  C
  C61      1.0000 0.39920  0.17710  0.08760  Biso   1.000  C
  C62      1.0000 0.89920  0.32290  0.58760  Biso   1.000  C
  C63      1.0000 0.60080  0.82290  0.91240  Biso   1.000  C
  C64      1.0000 0.10080  0.67710  0.41240  Biso   1.000  C
  H53      1.0000 0.43800  0.19880  0.12620  Biso   1.000  H
  H54      1.0000 0.93800  0.30120  0.62620  Biso   1.000  H
  H55      1.0000 0.56200  0.80120  0.87380  Biso   1.000  H
  H56      1.0000 0.06200  0.69880  0.37380  Biso   1.000  H
  C65      1.0000 0.34310  0.21770  0.03340  Biso   1.000  C
  C66      1.0000 0.84310  0.28230  0.53340  Biso   1.000  C
  C67      1.0000 0.65690  0.78230  0.96660  Biso   1.000  C
  C68      1.0000 0.15690  0.71770  0.46660  Biso   1.000  C
  H57      1.0000 0.34490  0.26720  0.03750  Biso   1.000  H
  H58      1.0000 0.84490  0.23280  0.53750  Biso   1.000  H
  H59      1.0000 0.65510  0.73280  0.96250  Biso   1.000  H
  H60      1.0000 0.15510  0.76720  0.46250  Biso   1.000  H
  C69      1.0000 0.32770  0.99320  0.01390  Biso   1.000  C
  C70      1.0000 0.82770  0.50680  0.51390  Biso   1.000  C
  C71      1.0000 0.67230  0.00680  0.98610  Biso   1.000  C
  C72      1.0000 0.17230  0.49320  0.48610  Biso   1.000  C
  H61      1.0000 0.28270  0.98150  0.97140  Biso   1.000  H
  H62      1.0000 0.78270  0.51850  0.47140  Biso   1.000  H
  H63      1.0000 0.71730  0.01850  0.02860  Biso   1.000  H
  H64      1.0000 0.21730  0.48150  0.52860  Biso   1.000  H
  H65      1.0000 0.29850  0.97300  0.05690  Biso   1.000  H
  H66      1.0000 0.79850  0.52700  0.55690  Biso   1.000  H
  H67      1.0000 0.70150  0.02700  0.94310  Biso   1.000  H
  H68      1.0000 0.20150  0.47300  0.44310  Biso   1.000  H
  H69      1.0000 0.39760  0.97420  0.00820  Biso   1.000  H
  H70      1.0000 0.89760  0.52580  0.50820  Biso   1.000  H
  H71      1.0000 0.60240  0.02580  0.99180  Biso   1.000  H
  H72      1.0000 0.10240  0.47420  0.49180  Biso   1.000  H
  C73      1.0000 0.52430  0.10360  0.20880  Biso   1.000  C
  C74      1.0000 0.02430  0.39640  0.70880  Biso   1.000  C
  C75      1.0000 0.47570  0.89640  0.79120  Biso   1.000  C
  C76      1.0000 0.97570  0.60360  0.29120  Biso   1.000  C
  C77      1.0000 0.46600  0.13680  0.26160  Biso   1.000  C
  C78      1.0000 0.96600  0.36320  0.76160  Biso   1.000  C
  C79      1.0000 0.53400  0.86320  0.73840  Biso   1.000  C
  C80      1.0000 0.03400  0.63680  0.23840  Biso   1.000  C
  C81      1.0000 0.52550  0.17800  0.31520  Biso   1.000  C
  C82      1.0000 0.02550  0.32200  0.81520  Biso   1.000  C
  C83      1.0000 0.47450  0.82200  0.68480  Biso   1.000  C
  C84      1.0000 0.97450  0.67800  0.18480  Biso   1.000  C
  H73      1.0000 0.48830  0.20080  0.35120  Biso   1.000  H
  H74      1.0000 0.98830  0.29920  0.85120  Biso   1.000  H
  H75      1.0000 0.51170  0.79920  0.64880  Biso   1.000  H
  H76      1.0000 0.01170  0.70080  0.14880  Biso   1.000  H
  C85      1.0000 0.68150  0.15450  0.26540  Biso   1.000  C
  C86      1.0000 0.18150  0.34550  0.76540  Biso   1.000  C
  C87      1.0000 0.31850  0.84550  0.73460  Biso   1.000  C
  C88      1.0000 0.81850  0.65450  0.23460  Biso   1.000  C
  H77      1.0000 0.75460  0.16130  0.26470  Biso   1.000  H
  H78      1.0000 0.25460  0.33870  0.76470  Biso   1.000  H
  H79      1.0000 0.24540  0.83870  0.73530  Biso   1.000  H
  H80      1.0000 0.74540  0.66130  0.23530  Biso   1.000  H
  C89      1.0000 0.63250  0.11170  0.21180  Biso   1.000  C
  C90      1.0000 0.13250  0.38830  0.71180  Biso   1.000  C
  C91      1.0000 0.36750  0.88830  0.78820  Biso   1.000  C
  C92      1.0000 0.86750  0.61170  0.28820  Biso   1.000  C
  H81      1.0000 0.67300  0.08840  0.17790  Biso   1.000  H
  H82      1.0000 0.17300  0.41160  0.67790  Biso   1.000  H
  H83      1.0000 0.32700  0.91160  0.82210  Biso   1.000  H
  H84      1.0000 0.82700  0.58840  0.32210  Biso   1.000  H
  C93      1.0000 0.39740  0.35840  0.91670  Biso   1.000  C
  C94      1.0000 0.89740  0.14160  0.41670  Biso   1.000  C
  C95      1.0000 0.60260  0.64160  0.08330  Biso   1.000  C
  C96      1.0000 0.10260  0.85840  0.58330  Biso   1.000  C
  C97      1.0000 0.02860  0.14300  0.90700  Biso   1.000  C
  C98      1.0000 0.52860  0.35700  0.40700  Biso   1.000  C
  C99      1.0000 0.97140  0.85700  0.09300  Biso   1.000  C
  C100     1.0000 0.47140  0.64300  0.59300  Biso   1.000  C
  C101     1.0000 0.35040  0.12990  0.26630  Biso   1.000  C
  C102     1.0000 0.85040  0.37010  0.76630  Biso   1.000  C
  C103     1.0000 0.64960  0.87010  0.73370  Biso   1.000  C
  C104     1.0000 0.14960  0.62990  0.23370  Biso   1.000  C
  H85      1.0000 0.32240  0.10040  0.22680  Biso   1.000  H
  H86      1.0000 0.82240  0.39960  0.72680  Biso   1.000  H
  H87      1.0000 0.67760  0.89960  0.77320  Biso   1.000  H
  H88      1.0000 0.17760  0.60040  0.27320  Biso   1.000  H
  H89      1.0000 0.31810  0.17630  0.26270  Biso   1.000  H
  H90      1.0000 0.81810  0.32370  0.76270  Biso   1.000  H
  H91      1.0000 0.68190  0.82370  0.73730  Biso   1.000  H
  H92      1.0000 0.18190  0.67630  0.23730  Biso   1.000  H
  H93      1.0000 0.33500  0.10840  0.31240  Biso   1.000  H
  H94      1.0000 0.83500  0.39160  0.81240  Biso   1.000  H
  H95      1.0000 0.66500  0.89160  0.68760  Biso   1.000  H
  H96      1.0000 0.16500  0.60840  0.18760  Biso   1.000  H
  C105     1.0000 0.35020  0.37310  0.23430  Biso   1.000  C
  C106     1.0000 0.85020  0.12690  0.73430  Biso   1.000  C
  C107     1.0000 0.64980  0.62690  0.76570  Biso   1.000  C
  C108     1.0000 0.14980  0.87310  0.26570  Biso   1.000  C
  H97      1.0000 0.39660  0.36110  0.27730  Biso   1.000  H
  H98      1.0000 0.89660  0.13890  0.77730  Biso   1.000  H
  H99      1.0000 0.60340  0.63890  0.72270  Biso   1.000  H
  H100     1.0000 0.10340  0.86110  0.22270  Biso   1.000  H
  C109     1.0000 0.66480  0.26580  0.98090  Biso   1.000  C
  C110     1.0000 0.16480  0.23420  0.48090  Biso   1.000  C
  C111     1.0000 0.33520  0.73420  0.01910  Biso   1.000  C
  C112     1.0000 0.83520  0.76580  0.51910  Biso   1.000  C
  H101     1.0000 0.61450  0.30390  0.96670  Biso   1.000  H
  H102     1.0000 0.11450  0.19610  0.46670  Biso   1.000  H
  H103     1.0000 0.38550  0.69610  0.03330  Biso   1.000  H
  H104     1.0000 0.88550  0.80390  0.53330  Biso   1.000  H
  C113     1.0000 0.49880  0.40260  0.65070  Biso   1.000  C
  C114     1.0000 0.99880  0.09740  0.15070  Biso   1.000  C
  C115     1.0000 0.50120  0.59740  0.34930  Biso   1.000  C
  C116     1.0000 0.00120  0.90260  0.84930  Biso   1.000  C
  H105     1.0000 0.48430  0.44510  0.62040  Biso   1.000  H
  H106     1.0000 0.98430  0.05490  0.12040  Biso   1.000  H
  H107     1.0000 0.51570  0.55490  0.37960  Biso   1.000  H
  H108     1.0000 0.01570  0.94510  0.87960  Biso   1.000  H
  Cl1      1.0000 0.25310  0.30650  0.21110  Biso   1.000  Cl
  Cl2      1.0000 0.75310  0.19350  0.71110  Biso   1.000  Cl
  Cl3      1.0000 0.74690  0.69350  0.78890  Biso   1.000  Cl
  Cl4      1.0000 0.24690  0.80650  0.28890  Biso   1.000  Cl
  Cl5      1.0000 0.24390  0.44180  0.25360  Biso   1.000  Cl
  Cl6      1.0000 0.74390  0.05820  0.75360  Biso   1.000  Cl
  Cl7      1.0000 0.75610  0.55820  0.74640  Biso   1.000  Cl
  Cl8      1.0000 0.25610  0.94180  0.24640  Biso   1.000  Cl
  Cl9      1.0000 0.41120  0.39060  0.16490  Biso   1.000  Cl
  Cl10     1.0000 0.91120  0.10940  0.66490  Biso   1.000  Cl
  Cl11     1.0000 0.58880  0.60940  0.83510  Biso   1.000  Cl
  Cl12     1.0000 0.08880  0.89060  0.33510  Biso   1.000  Cl
  Cl13     1.0000 0.60840  0.19260  0.95380  Biso   1.000  Cl
  Cl14     1.0000 0.10840  0.30740  0.45380  Biso   1.000  Cl
  Cl15     1.0000 0.39160  0.80740  0.04620  Biso   1.000  Cl
  Cl16     1.0000 0.89160  0.69260  0.54620  Biso   1.000  Cl
  Cl17     1.0000 0.67170  0.26440  0.08060  Biso   1.000  Cl
  Cl18     1.0000 0.17170  0.23560  0.58060  Biso   1.000  Cl
  Cl19     1.0000 0.32830  0.73560  0.91940  Biso   1.000  Cl
  Cl20     1.0000 0.82830  0.76440  0.41940  Biso   1.000  Cl
  Cl21     1.0000 0.78180  0.29530  0.96100  Biso   1.000  Cl
  Cl22     1.0000 0.28180  0.20470  0.46100  Biso   1.000  Cl
  Cl23     1.0000 0.21820  0.70470  0.03900  Biso   1.000  Cl
  Cl24     1.0000 0.71820  0.79530  0.53900  Biso   1.000  Cl
  Cl25     1.0000 0.47900  0.42930  0.73350  Biso   1.000  Cl
  Cl26     1.0000 0.97900  0.07070  0.23350  Biso   1.000  Cl
  Cl27     1.0000 0.52100  0.57070  0.26650  Biso   1.000  Cl
  Cl28     1.0000 0.02100  0.92930  0.76650  Biso   1.000  Cl
  Cl29     1.0000 0.61580  0.37680  0.62780  Biso   1.000  Cl
  Cl30     1.0000 0.11580  0.12320  0.12780  Biso   1.000  Cl
  Cl31     1.0000 0.38420  0.62320  0.37220  Biso   1.000  Cl
  Cl32     1.0000 0.88420  0.87680  0.87220  Biso   1.000  Cl
  Cl33     1.0000 0.39450  0.34380  0.62470  Biso   1.000  Cl
  Cl34     1.0000 0.89450  0.15620  0.12470  Biso   1.000  Cl
  Cl35     1.0000 0.60550  0.65620  0.37530  Biso   1.000  Cl
  Cl36     1.0000 0.10550  0.84380  0.87530  Biso   1.000  Cl
