data_image0
_cell_length_a       18.698
_cell_length_b       14.3969
_cell_length_c       12.9711
_cell_angle_alpha    90
_cell_angle_beta     121.106
_cell_angle_gamma    90

_symmetry_space_group_name_H-M    "P 1"
_symmetry_int_tables_number       1

loop_
  _symmetry_equiv_pos_as_xyz
  'x, y, z'

loop_
  _atom_site_label
  _atom_site_occupancy
  _atom_site_fract_x
  _atom_site_fract_y
  _atom_site_fract_z
  _atom_site_thermal_displace_type
  _atom_site_B_iso_or_equiv
  _atom_site_type_symbol
  Cu1      1.0000 0.00000  0.00000  0.00000  Biso   1.000  Cu
  Cu2      1.0000 0.50000  0.50000  0.00000  Biso   1.000  Cu
  Cu3      1.0000 0.00000  0.00000  0.50000  Biso   1.000  Cu
  Cu4      1.0000 0.50000  0.50000  0.50000  Biso   1.000  Cu
  S1       1.0000 0.00000  0.14667  0.25000  Biso   1.000  S
  S2       1.0000 0.50000  0.64667  0.25000  Biso   1.000  S
  S3       1.0000 0.00000  0.85333  0.75000  Biso   1.000  S
  S4       1.0000 0.50000  0.35333  0.75000  Biso   1.000  S
  O1       1.0000 0.00797  0.08864  0.16480  Biso   1.000  O
  O2       1.0000 0.50797  0.58864  0.16480  Biso   1.000  O
  O3       1.0000 0.00797  0.91136  0.66480  Biso   1.000  O
  O4       1.0000 0.50797  0.41136  0.66480  Biso   1.000  O
  O5       1.0000 0.99203  0.91136  0.83520  Biso   1.000  O
  O6       1.0000 0.49203  0.41136  0.83520  Biso   1.000  O
  O7       1.0000 0.99203  0.08864  0.33520  Biso   1.000  O
  O8       1.0000 0.49203  0.58864  0.33520  Biso   1.000  O
  O9       1.0000 0.07600  0.20170  0.31630  Biso   1.000  O
  O10      1.0000 0.57600  0.70170  0.31630  Biso   1.000  O
  O11      1.0000 0.07600  0.79830  0.81630  Biso   1.000  O
  O12      1.0000 0.57600  0.29830  0.81630  Biso   1.000  O
  O13      1.0000 0.92400  0.79830  0.68370  Biso   1.000  O
  O14      1.0000 0.42400  0.29830  0.68370  Biso   1.000  O
  O15      1.0000 0.92400  0.20170  0.18370  Biso   1.000  O
  O16      1.0000 0.42400  0.70170  0.18370  Biso   1.000  O
  S5       1.0000 0.37658  0.13400  0.14214  Biso   1.000  S
  S6       1.0000 0.87658  0.63400  0.14214  Biso   1.000  S
  S7       1.0000 0.37658  0.86600  0.64214  Biso   1.000  S
  S8       1.0000 0.87658  0.36600  0.64214  Biso   1.000  S
  S9       1.0000 0.62342  0.86600  0.85786  Biso   1.000  S
  S10      1.0000 0.12342  0.36600  0.85786  Biso   1.000  S
  S11      1.0000 0.62342  0.13400  0.35786  Biso   1.000  S
  S12      1.0000 0.12342  0.63400  0.35786  Biso   1.000  S
  N1       1.0000 0.12059  0.03856  0.05940  Biso   1.000  N
  N2       1.0000 0.62059  0.53856  0.05940  Biso   1.000  N
  N3       1.0000 0.12059  0.96144  0.55940  Biso   1.000  N
  N4       1.0000 0.62059  0.46144  0.55940  Biso   1.000  N
  N5       1.0000 0.87941  0.96144  0.94060  Biso   1.000  N
  N6       1.0000 0.37941  0.46144  0.94060  Biso   1.000  N
  N7       1.0000 0.87941  0.03856  0.44060  Biso   1.000  N
  N8       1.0000 0.37941  0.53856  0.44060  Biso   1.000  N
  N9       1.0000 0.45637  0.38360  0.39240  Biso   1.000  N
  N10      1.0000 0.95637  0.88360  0.39240  Biso   1.000  N
  N11      1.0000 0.45637  0.61640  0.89240  Biso   1.000  N
  N12      1.0000 0.95637  0.11640  0.89240  Biso   1.000  N
  N13      1.0000 0.54363  0.61640  0.60760  Biso   1.000  N
  N14      1.0000 0.04363  0.11640  0.60760  Biso   1.000  N
  N15      1.0000 0.54363  0.38360  0.10760  Biso   1.000  N
  N16      1.0000 0.04363  0.88360  0.10760  Biso   1.000  N
  C1       1.0000 0.15882  0.10930  0.13640  Biso   1.000  C
  C2       1.0000 0.65882  0.60930  0.13640  Biso   1.000  C
  C3       1.0000 0.15882  0.89070  0.63640  Biso   1.000  C
  C4       1.0000 0.65882  0.39070  0.63640  Biso   1.000  C
  C5       1.0000 0.84118  0.89070  0.86360  Biso   1.000  C
  C6       1.0000 0.34118  0.39070  0.86360  Biso   1.000  C
  C7       1.0000 0.84118  0.10930  0.36360  Biso   1.000  C
  C8       1.0000 0.34118  0.60930  0.36360  Biso   1.000  C
  H1       1.0000 0.13140  0.13810  0.17050  Biso   1.000  H
  H2       1.0000 0.63140  0.63810  0.17050  Biso   1.000  H
  H3       1.0000 0.13140  0.86190  0.67050  Biso   1.000  H
  H4       1.0000 0.63140  0.36190  0.67050  Biso   1.000  H
  H5       1.0000 0.86860  0.86190  0.82950  Biso   1.000  H
  H6       1.0000 0.36860  0.36190  0.82950  Biso   1.000  H
  H7       1.0000 0.86860  0.13810  0.32950  Biso   1.000  H
  H8       1.0000 0.36860  0.63810  0.32950  Biso   1.000  H
  C9       1.0000 0.23708  0.14120  0.16700  Biso   1.000  C
  C10      1.0000 0.73708  0.64120  0.16700  Biso   1.000  C
  C11      1.0000 0.23708  0.85880  0.66700  Biso   1.000  C
  C12      1.0000 0.73708  0.35880  0.66700  Biso   1.000  C
  C13      1.0000 0.76292  0.85880  0.83300  Biso   1.000  C
  C14      1.0000 0.26292  0.35880  0.83300  Biso   1.000  C
  C15      1.0000 0.76292  0.14120  0.33300  Biso   1.000  C
  C16      1.0000 0.26292  0.64120  0.33300  Biso   1.000  C
  H9       1.0000 0.26160  0.19040  0.22050  Biso   1.000  H
  H10      1.0000 0.76160  0.69040  0.22050  Biso   1.000  H
  H11      1.0000 0.26160  0.80960  0.72050  Biso   1.000  H
  H12      1.0000 0.76160  0.30960  0.72050  Biso   1.000  H
  H13      1.0000 0.73840  0.80960  0.77950  Biso   1.000  H
  H14      1.0000 0.23840  0.30960  0.77950  Biso   1.000  H
  H15      1.0000 0.73840  0.19040  0.27950  Biso   1.000  H
  H16      1.0000 0.23840  0.69040  0.27950  Biso   1.000  H
  C17      1.0000 0.27855  0.09860  0.11680  Biso   1.000  C
  C18      1.0000 0.77855  0.59860  0.11680  Biso   1.000  C
  C19      1.0000 0.27855  0.90140  0.61680  Biso   1.000  C
  C20      1.0000 0.77855  0.40140  0.61680  Biso   1.000  C
  C21      1.0000 0.72145  0.90140  0.88320  Biso   1.000  C
  C22      1.0000 0.22145  0.40140  0.88320  Biso   1.000  C
  C23      1.0000 0.72145  0.09860  0.38320  Biso   1.000  C
  C24      1.0000 0.22145  0.59860  0.38320  Biso   1.000  C
  C25      1.0000 0.24032  0.02350  0.03790  Biso   1.000  C
  C26      1.0000 0.74032  0.52350  0.03790  Biso   1.000  C
  C27      1.0000 0.24032  0.97650  0.53790  Biso   1.000  C
  C28      1.0000 0.74032  0.47650  0.53790  Biso   1.000  C
  C29      1.0000 0.75968  0.97650  0.96210  Biso   1.000  C
  C30      1.0000 0.25968  0.47650  0.96210  Biso   1.000  C
  C31      1.0000 0.75968  0.02350  0.46210  Biso   1.000  C
  C32      1.0000 0.25968  0.52350  0.46210  Biso   1.000  C
  C33      1.0000 0.16240  0.99670  0.01400  Biso   1.000  C
  C34      1.0000 0.66240  0.49670  0.01400  Biso   1.000  C
  C35      1.0000 0.16240  0.00330  0.51400  Biso   1.000  C
  C36      1.0000 0.66240  0.50330  0.51400  Biso   1.000  C
  C37      1.0000 0.83760  0.00330  0.98600  Biso   1.000  C
  C38      1.0000 0.33760  0.50330  0.98600  Biso   1.000  C
  C39      1.0000 0.83760  0.99670  0.48600  Biso   1.000  C
  C40      1.0000 0.33760  0.49670  0.48600  Biso   1.000  C
  H17      1.0000 0.13710  0.94630  0.96290  Biso   1.000  H
  H18      1.0000 0.63710  0.44630  0.96290  Biso   1.000  H
  H19      1.0000 0.13710  0.05370  0.46290  Biso   1.000  H
  H20      1.0000 0.63710  0.55370  0.46290  Biso   1.000  H
  H21      1.0000 0.86290  0.05370  0.03710  Biso   1.000  H
  H22      1.0000 0.36290  0.55370  0.03710  Biso   1.000  H
  H23      1.0000 0.86290  0.94630  0.53710  Biso   1.000  H
  H24      1.0000 0.36290  0.44630  0.53710  Biso   1.000  H
  C41      1.0000 0.28060  0.97460  0.97790  Biso   1.000  C
  C42      1.0000 0.78060  0.47460  0.97790  Biso   1.000  C
  C43      1.0000 0.28060  0.02540  0.47790  Biso   1.000  C
  C44      1.0000 0.78060  0.52540  0.47790  Biso   1.000  C
  C45      1.0000 0.71940  0.02540  0.02210  Biso   1.000  C
  C46      1.0000 0.21940  0.52540  0.02210  Biso   1.000  C
  C47      1.0000 0.71940  0.97460  0.52210  Biso   1.000  C
  C48      1.0000 0.21940  0.47460  0.52210  Biso   1.000  C
  H25      1.0000 0.24470  0.92560  0.92760  Biso   1.000  H
  H26      1.0000 0.74470  0.42560  0.92760  Biso   1.000  H
  H27      1.0000 0.24470  0.07440  0.42760  Biso   1.000  H
  H28      1.0000 0.74470  0.57440  0.42760  Biso   1.000  H
  H29      1.0000 0.75530  0.07440  0.07240  Biso   1.000  H
  H30      1.0000 0.25530  0.57440  0.07240  Biso   1.000  H
  H31      1.0000 0.75530  0.92560  0.57240  Biso   1.000  H
  H32      1.0000 0.25530  0.42560  0.57240  Biso   1.000  H
  H33      1.0000 0.33330  0.94890  0.03820  Biso   1.000  H
  H34      1.0000 0.83330  0.44890  0.03820  Biso   1.000  H
  H35      1.0000 0.33330  0.05110  0.53820  Biso   1.000  H
  H36      1.0000 0.83330  0.55110  0.53820  Biso   1.000  H
  H37      1.0000 0.66670  0.05110  0.96180  Biso   1.000  H
  H38      1.0000 0.16670  0.55110  0.96180  Biso   1.000  H
  H39      1.0000 0.66670  0.94890  0.46180  Biso   1.000  H
  H40      1.0000 0.16670  0.44890  0.46180  Biso   1.000  H
  H41      1.0000 0.28960  0.01810  0.92960  Biso   1.000  H
  H42      1.0000 0.78960  0.51810  0.92960  Biso   1.000  H
  H43      1.0000 0.28960  0.98190  0.42960  Biso   1.000  H
  H44      1.0000 0.78960  0.48190  0.42960  Biso   1.000  H
  H45      1.0000 0.71040  0.98190  0.07040  Biso   1.000  H
  H46      1.0000 0.21040  0.48190  0.07040  Biso   1.000  H
  H47      1.0000 0.71040  0.01810  0.57040  Biso   1.000  H
  H48      1.0000 0.21040  0.51810  0.57040  Biso   1.000  H
  C49      1.0000 0.40309  0.22940  0.24280  Biso   1.000  C
  C50      1.0000 0.90309  0.72940  0.24280  Biso   1.000  C
  C51      1.0000 0.40309  0.77060  0.74280  Biso   1.000  C
  C52      1.0000 0.90309  0.27060  0.74280  Biso   1.000  C
  C53      1.0000 0.59691  0.77060  0.75720  Biso   1.000  C
  C54      1.0000 0.09691  0.27060  0.75720  Biso   1.000  C
  C55      1.0000 0.59691  0.22940  0.25720  Biso   1.000  C
  C56      1.0000 0.09691  0.72940  0.25720  Biso   1.000  C
  C57      1.0000 0.43987  0.21660  0.36660  Biso   1.000  C
  C58      1.0000 0.93987  0.71660  0.36660  Biso   1.000  C
  C59      1.0000 0.43987  0.78340  0.86660  Biso   1.000  C
  C60      1.0000 0.93987  0.28340  0.86660  Biso   1.000  C
  C61      1.0000 0.56013  0.78340  0.63340  Biso   1.000  C
  C62      1.0000 0.06013  0.28340  0.63340  Biso   1.000  C
  C63      1.0000 0.56013  0.21660  0.13340  Biso   1.000  C
  C64      1.0000 0.06013  0.71660  0.13340  Biso   1.000  C
  C65      1.0000 0.46525  0.29770  0.43620  Biso   1.000  C
  C66      1.0000 0.96525  0.79770  0.43620  Biso   1.000  C
  C67      1.0000 0.46525  0.70230  0.93620  Biso   1.000  C
  C68      1.0000 0.96525  0.20230  0.93620  Biso   1.000  C
  C69      1.0000 0.53475  0.70230  0.56380  Biso   1.000  C
  C70      1.0000 0.03475  0.20230  0.56380  Biso   1.000  C
  C71      1.0000 0.53475  0.29770  0.06380  Biso   1.000  C
  C72      1.0000 0.03475  0.79770  0.06380  Biso   1.000  C
  H49      1.0000 0.49010  0.29120  0.51910  Biso   1.000  H
  H50      1.0000 0.99010  0.79120  0.51910  Biso   1.000  H
  H51      1.0000 0.49010  0.70880  0.01910  Biso   1.000  H
  H52      1.0000 0.99010  0.20880  0.01910  Biso   1.000  H
  H53      1.0000 0.50990  0.70880  0.48090  Biso   1.000  H
  H54      1.0000 0.00990  0.20880  0.48090  Biso   1.000  H
  H55      1.0000 0.50990  0.29120  0.98090  Biso   1.000  H
  H56      1.0000 0.00990  0.79120  0.98090  Biso   1.000  H
  C73      1.0000 0.41922  0.39350  0.27310  Biso   1.000  C
  C74      1.0000 0.91922  0.89350  0.27310  Biso   1.000  C
  C75      1.0000 0.41922  0.60650  0.77310  Biso   1.000  C
  C76      1.0000 0.91922  0.10650  0.77310  Biso   1.000  C
  C77      1.0000 0.58078  0.60650  0.72690  Biso   1.000  C
  C78      1.0000 0.08078  0.10650  0.72690  Biso   1.000  C
  C79      1.0000 0.58078  0.39350  0.22690  Biso   1.000  C
  C80      1.0000 0.08078  0.89350  0.22690  Biso   1.000  C
  H57      1.0000 0.41130  0.45290  0.24080  Biso   1.000  H
  H58      1.0000 0.91130  0.95290  0.24080  Biso   1.000  H
  H59      1.0000 0.41130  0.54710  0.74080  Biso   1.000  H
  H60      1.0000 0.91130  0.04710  0.74080  Biso   1.000  H
  H61      1.0000 0.58870  0.54710  0.75920  Biso   1.000  H
  H62      1.0000 0.08870  0.04710  0.75920  Biso   1.000  H
  H63      1.0000 0.58870  0.45290  0.25920  Biso   1.000  H
  H64      1.0000 0.08870  0.95290  0.25920  Biso   1.000  H
  C81      1.0000 0.39230  0.31810  0.19670  Biso   1.000  C
  C82      1.0000 0.89230  0.81810  0.19670  Biso   1.000  C
  C83      1.0000 0.39230  0.68190  0.69670  Biso   1.000  C
  C84      1.0000 0.89230  0.18190  0.69670  Biso   1.000  C
  C85      1.0000 0.60770  0.68190  0.80330  Biso   1.000  C
  C86      1.0000 0.10770  0.18190  0.80330  Biso   1.000  C
  C87      1.0000 0.60770  0.31810  0.30330  Biso   1.000  C
  C88      1.0000 0.10770  0.81810  0.30330  Biso   1.000  C
  H65      1.0000 0.36690  0.32700  0.11410  Biso   1.000  H
  H66      1.0000 0.86690  0.82700  0.11410  Biso   1.000  H
  H67      1.0000 0.36690  0.67300  0.61410  Biso   1.000  H
  H68      1.0000 0.86690  0.17300  0.61410  Biso   1.000  H
  H69      1.0000 0.63310  0.67300  0.88590  Biso   1.000  H
  H70      1.0000 0.13310  0.17300  0.88590  Biso   1.000  H
  H71      1.0000 0.63310  0.32700  0.38590  Biso   1.000  H
  H72      1.0000 0.13310  0.82700  0.38590  Biso   1.000  H
  C89      1.0000 0.45220  0.12420  0.42520  Biso   1.000  C
  C90      1.0000 0.95220  0.62420  0.42520  Biso   1.000  C
  C91      1.0000 0.45220  0.87580  0.92520  Biso   1.000  C
  C92      1.0000 0.95220  0.37580  0.92520  Biso   1.000  C
  C93      1.0000 0.54780  0.87580  0.57480  Biso   1.000  C
  C94      1.0000 0.04780  0.37580  0.57480  Biso   1.000  C
  C95      1.0000 0.54780  0.12420  0.07480  Biso   1.000  C
  C96      1.0000 0.04780  0.62420  0.07480  Biso   1.000  C
  H73      1.0000 0.47890  0.13220  0.51070  Biso   1.000  H
  H74      1.0000 0.97890  0.63220  0.51070  Biso   1.000  H
  H75      1.0000 0.47890  0.86780  0.01070  Biso   1.000  H
  H76      1.0000 0.97890  0.36780  0.01070  Biso   1.000  H
  H77      1.0000 0.52110  0.86780  0.48930  Biso   1.000  H
  H78      1.0000 0.02110  0.36780  0.48930  Biso   1.000  H
  H79      1.0000 0.52110  0.13220  0.98930  Biso   1.000  H
  H80      1.0000 0.02110  0.63220  0.98930  Biso   1.000  H
  H81      1.0000 0.48670  0.08620  0.40750  Biso   1.000  H
  H82      1.0000 0.98670  0.58620  0.40750  Biso   1.000  H
  H83      1.0000 0.48670  0.91380  0.90750  Biso   1.000  H
  H84      1.0000 0.98670  0.41380  0.90750  Biso   1.000  H
  H85      1.0000 0.51330  0.91380  0.59250  Biso   1.000  H
  H86      1.0000 0.01330  0.41380  0.59250  Biso   1.000  H
  H87      1.0000 0.51330  0.08620  0.09250  Biso   1.000  H
  H88      1.0000 0.01330  0.58620  0.09250  Biso   1.000  H
  H89      1.0000 0.39900  0.09460  0.39510  Biso   1.000  H
  H90      1.0000 0.89900  0.59460  0.39510  Biso   1.000  H
  H91      1.0000 0.39900  0.90540  0.89510  Biso   1.000  H
  H92      1.0000 0.89900  0.40540  0.89510  Biso   1.000  H
  H93      1.0000 0.60100  0.90540  0.60490  Biso   1.000  H
  H94      1.0000 0.10100  0.40540  0.60490  Biso   1.000  H
  H95      1.0000 0.60100  0.09460  0.10490  Biso   1.000  H
  H96      1.0000 0.10100  0.59460  0.10490  Biso   1.000  H
  Cl1      1.0000 0.28760  0.26520  0.42920  Biso   1.000  Cl
  Cl2      1.0000 0.78760  0.76520  0.42920  Biso   1.000  Cl
  Cl3      1.0000 0.28760  0.73480  0.92920  Biso   1.000  Cl
  Cl4      1.0000 0.78760  0.23480  0.92920  Biso   1.000  Cl
  Cl5      1.0000 0.71240  0.73480  0.57080  Biso   1.000  Cl
  Cl6      1.0000 0.21240  0.23480  0.57080  Biso   1.000  Cl
  Cl7      1.0000 0.71240  0.26520  0.07080  Biso   1.000  Cl
  Cl8      1.0000 0.21240  0.76520  0.07080  Biso   1.000  Cl
  O17      1.0000 0.50000  0.90620  0.25000  Biso   1.000  O
  O18      1.0000 0.00000  0.40620  0.25000  Biso   1.000  O
  O19      1.0000 0.50000  0.09380  0.75000  Biso   1.000  O
  O20      1.0000 0.00000  0.59380  0.75000  Biso   1.000  O
  Cl9      1.0000 0.15310  0.35340  0.23260  Biso   1.000  Cl
  Cl10     1.0000 0.65310  0.85340  0.23260  Biso   1.000  Cl
  Cl11     1.0000 0.15310  0.64660  0.73260  Biso   1.000  Cl
  Cl12     1.0000 0.65310  0.14660  0.73260  Biso   1.000  Cl
  Cl13     1.0000 0.84690  0.64660  0.76740  Biso   1.000  Cl
  Cl14     1.0000 0.34690  0.14660  0.76740  Biso   1.000  Cl
  Cl15     1.0000 0.84690  0.35340  0.26740  Biso   1.000  Cl
  Cl16     1.0000 0.34690  0.85340  0.26740  Biso   1.000  Cl
  C97      1.0000 0.20310  0.28400  0.33200  Biso   1.000  C
  C98      1.0000 0.70310  0.78400  0.33200  Biso   1.000  C
  C99      1.0000 0.20310  0.71600  0.83200  Biso   1.000  C
  C100     1.0000 0.70310  0.21600  0.83200  Biso   1.000  C
  C101     1.0000 0.79690  0.71600  0.66800  Biso   1.000  C
  C102     1.0000 0.29690  0.21600  0.66800  Biso   1.000  C
  C103     1.0000 0.79690  0.28400  0.16800  Biso   1.000  C
  C104     1.0000 0.29690  0.78400  0.16800  Biso   1.000  C
