data_image0
_cell_length_a       24.44
_cell_length_b       6.9711
_cell_length_c       23.924
_cell_angle_alpha    90
_cell_angle_beta     119.728
_cell_angle_gamma    90

_symmetry_space_group_name_H-M    "P 1"
_symmetry_int_tables_number       1

loop_
  _symmetry_equiv_pos_as_xyz
  'x, y, z'

loop_
  _atom_site_label
  _atom_site_occupancy
  _atom_site_fract_x
  _atom_site_fract_y
  _atom_site_fract_z
  _atom_site_thermal_displace_type
  _atom_site_B_iso_or_equiv
  _atom_site_type_symbol
  Cu1      1.0000 0.65922  0.47135  0.71262  Biso   1.000  Cu
  Cu2      1.0000 0.15922  0.97135  0.71262  Biso   1.000  Cu
  Cu3      1.0000 0.34078  0.47135  0.78738  Biso   1.000  Cu
  Cu4      1.0000 0.84078  0.97135  0.78738  Biso   1.000  Cu
  Cu5      1.0000 0.34078  0.52865  0.28738  Biso   1.000  Cu
  Cu6      1.0000 0.84078  0.02865  0.28738  Biso   1.000  Cu
  Cu7      1.0000 0.65922  0.52865  0.21262  Biso   1.000  Cu
  Cu8      1.0000 0.15922  0.02865  0.21262  Biso   1.000  Cu
  O1       1.0000 0.73194  0.64600  0.74072  Biso   1.000  O
  O2       1.0000 0.23194  0.14600  0.74072  Biso   1.000  O
  O3       1.0000 0.26806  0.64600  0.75928  Biso   1.000  O
  O4       1.0000 0.76806  0.14600  0.75928  Biso   1.000  O
  O5       1.0000 0.26806  0.35400  0.25928  Biso   1.000  O
  O6       1.0000 0.76806  0.85400  0.25928  Biso   1.000  O
  O7       1.0000 0.73194  0.35400  0.24072  Biso   1.000  O
  O8       1.0000 0.23194  0.85400  0.24072  Biso   1.000  O
  C1       1.0000 0.76192  0.63370  0.71052  Biso   1.000  C
  C2       1.0000 0.26192  0.13370  0.71052  Biso   1.000  C
  C3       1.0000 0.23808  0.63370  0.78948  Biso   1.000  C
  C4       1.0000 0.73808  0.13370  0.78948  Biso   1.000  C
  C5       1.0000 0.23808  0.36630  0.28948  Biso   1.000  C
  C6       1.0000 0.73808  0.86630  0.28948  Biso   1.000  C
  C7       1.0000 0.76192  0.36630  0.21052  Biso   1.000  C
  C8       1.0000 0.26192  0.86630  0.21052  Biso   1.000  C
  O9       1.0000 0.80718  0.73790  0.71995  Biso   1.000  O
  O10      1.0000 0.30718  0.23790  0.71995  Biso   1.000  O
  O11      1.0000 0.19282  0.73790  0.78005  Biso   1.000  O
  O12      1.0000 0.69282  0.23790  0.78005  Biso   1.000  O
  O13      1.0000 0.19282  0.26210  0.28005  Biso   1.000  O
  O14      1.0000 0.69282  0.76210  0.28005  Biso   1.000  O
  O15      1.0000 0.80718  0.26210  0.21995  Biso   1.000  O
  O16      1.0000 0.30718  0.76210  0.21995  Biso   1.000  O
  C9       1.0000 0.74264  0.47760  0.65984  Biso   1.000  C
  C10      1.0000 0.24264  0.97760  0.65984  Biso   1.000  C
  C11      1.0000 0.25736  0.47760  0.84016  Biso   1.000  C
  C12      1.0000 0.75736  0.97760  0.84016  Biso   1.000  C
  C13      1.0000 0.25736  0.52240  0.34016  Biso   1.000  C
  C14      1.0000 0.75736  0.02240  0.34016  Biso   1.000  C
  C15      1.0000 0.74264  0.52240  0.15984  Biso   1.000  C
  C16      1.0000 0.24264  0.02240  0.15984  Biso   1.000  C
  H1       1.0000 0.73580  0.53500  0.61900  Biso   1.000  H
  H2       1.0000 0.23580  0.03500  0.61900  Biso   1.000  H
  H3       1.0000 0.26420  0.53500  0.88100  Biso   1.000  H
  H4       1.0000 0.76420  0.03500  0.88100  Biso   1.000  H
  H5       1.0000 0.26420  0.46500  0.38100  Biso   1.000  H
  H6       1.0000 0.76420  0.96500  0.38100  Biso   1.000  H
  H7       1.0000 0.73580  0.46500  0.11900  Biso   1.000  H
  H8       1.0000 0.23580  0.96500  0.11900  Biso   1.000  H
  H9       1.0000 0.77710  0.38250  0.67400  Biso   1.000  H
  H10      1.0000 0.27710  0.88250  0.67400  Biso   1.000  H
  H11      1.0000 0.22290  0.38250  0.82600  Biso   1.000  H
  H12      1.0000 0.72290  0.88250  0.82600  Biso   1.000  H
  H13      1.0000 0.22290  0.61750  0.32600  Biso   1.000  H
  H14      1.0000 0.72290  0.11750  0.32600  Biso   1.000  H
  H15      1.0000 0.77710  0.61750  0.17400  Biso   1.000  H
  H16      1.0000 0.27710  0.11750  0.17400  Biso   1.000  H
  N1       1.0000 0.68442  0.37950  0.64866  Biso   1.000  N
  N2       1.0000 0.18442  0.87950  0.64866  Biso   1.000  N
  N3       1.0000 0.31558  0.37950  0.85134  Biso   1.000  N
  N4       1.0000 0.81558  0.87950  0.85134  Biso   1.000  N
  N5       1.0000 0.31558  0.62050  0.35134  Biso   1.000  N
  N6       1.0000 0.81558  0.12050  0.35134  Biso   1.000  N
  N7       1.0000 0.68442  0.62050  0.14866  Biso   1.000  N
  N8       1.0000 0.18442  0.12050  0.14866  Biso   1.000  N
  H17      1.0000 0.69210  0.24830  0.65420  Biso   1.000  H
  H18      1.0000 0.19210  0.74830  0.65420  Biso   1.000  H
  H19      1.0000 0.30790  0.24830  0.84580  Biso   1.000  H
  H20      1.0000 0.80790  0.74830  0.84580  Biso   1.000  H
  H21      1.0000 0.30790  0.75170  0.34580  Biso   1.000  H
  H22      1.0000 0.80790  0.25170  0.34580  Biso   1.000  H
  H23      1.0000 0.69210  0.75170  0.15420  Biso   1.000  H
  H24      1.0000 0.19210  0.25170  0.15420  Biso   1.000  H
  N9       1.0000 0.63133  0.60310  0.76742  Biso   1.000  N
  N10      1.0000 0.13133  0.10310  0.76742  Biso   1.000  N
  N11      1.0000 0.36867  0.60310  0.73258  Biso   1.000  N
  N12      1.0000 0.86867  0.10310  0.73258  Biso   1.000  N
  N13      1.0000 0.36867  0.39690  0.23258  Biso   1.000  N
  N14      1.0000 0.86867  0.89690  0.23258  Biso   1.000  N
  N15      1.0000 0.63133  0.39690  0.26742  Biso   1.000  N
  N16      1.0000 0.13133  0.89690  0.26742  Biso   1.000  N
  N17      1.0000 0.64844  0.54980  0.82821  Biso   1.000  N
  N18      1.0000 0.14844  0.04980  0.82821  Biso   1.000  N
  N19      1.0000 0.35156  0.54980  0.67179  Biso   1.000  N
  N20      1.0000 0.85156  0.04980  0.67179  Biso   1.000  N
  N21      1.0000 0.35156  0.45020  0.17179  Biso   1.000  N
  N22      1.0000 0.85156  0.95020  0.17179  Biso   1.000  N
  N23      1.0000 0.64844  0.45020  0.32821  Biso   1.000  N
  N24      1.0000 0.14844  0.95020  0.32821  Biso   1.000  N
  H25      1.0000 0.66780  0.44170  0.84620  Biso   1.000  H
  H26      1.0000 0.16780  0.94170  0.84620  Biso   1.000  H
  H27      1.0000 0.33220  0.44170  0.65380  Biso   1.000  H
  H28      1.0000 0.83220  0.94170  0.65380  Biso   1.000  H
  H29      1.0000 0.33220  0.55830  0.15380  Biso   1.000  H
  H30      1.0000 0.83220  0.05830  0.15380  Biso   1.000  H
  H31      1.0000 0.66780  0.55830  0.34620  Biso   1.000  H
  H32      1.0000 0.16780  0.05830  0.34620  Biso   1.000  H
  C17      1.0000 0.63203  0.68380  0.85773  Biso   1.000  C
  C18      1.0000 0.13203  0.18380  0.85773  Biso   1.000  C
  C19      1.0000 0.36797  0.68380  0.64227  Biso   1.000  C
  C20      1.0000 0.86797  0.18380  0.64227  Biso   1.000  C
  C21      1.0000 0.36797  0.31620  0.14227  Biso   1.000  C
  C22      1.0000 0.86797  0.81620  0.14227  Biso   1.000  C
  C23      1.0000 0.63203  0.31620  0.35773  Biso   1.000  C
  C24      1.0000 0.13203  0.81620  0.35773  Biso   1.000  C
  C25      1.0000 0.60224  0.82570  0.81387  Biso   1.000  C
  C26      1.0000 0.10224  0.32570  0.81387  Biso   1.000  C
  C27      1.0000 0.39776  0.82570  0.68613  Biso   1.000  C
  C28      1.0000 0.89776  0.32570  0.68613  Biso   1.000  C
  C29      1.0000 0.39776  0.17430  0.18613  Biso   1.000  C
  C30      1.0000 0.89776  0.67430  0.18613  Biso   1.000  C
  C31      1.0000 0.60224  0.17430  0.31387  Biso   1.000  C
  C32      1.0000 0.10224  0.67430  0.31387  Biso   1.000  C
  H33      1.0000 0.58470  0.93950  0.82030  Biso   1.000  H
  H34      1.0000 0.08470  0.43950  0.82030  Biso   1.000  H
  H35      1.0000 0.41530  0.93950  0.67970  Biso   1.000  H
  H36      1.0000 0.91530  0.43950  0.67970  Biso   1.000  H
  H37      1.0000 0.41530  0.06050  0.17970  Biso   1.000  H
  H38      1.0000 0.91530  0.56050  0.17970  Biso   1.000  H
  H39      1.0000 0.58470  0.06050  0.32030  Biso   1.000  H
  H40      1.0000 0.08470  0.56050  0.32030  Biso   1.000  H
  C33      1.0000 0.60229  0.77300  0.75801  Biso   1.000  C
  C34      1.0000 0.10229  0.27300  0.75801  Biso   1.000  C
  C35      1.0000 0.39771  0.77300  0.74199  Biso   1.000  C
  C36      1.0000 0.89771  0.27300  0.74199  Biso   1.000  C
  C37      1.0000 0.39771  0.22700  0.24199  Biso   1.000  C
  C38      1.0000 0.89771  0.72700  0.24199  Biso   1.000  C
  C39      1.0000 0.60229  0.22700  0.25801  Biso   1.000  C
  C40      1.0000 0.10229  0.72700  0.25801  Biso   1.000  C
  C41      1.0000 0.64770  0.66410  0.92630  Biso   1.000  C
  C42      1.0000 0.14770  0.16410  0.92630  Biso   1.000  C
  C43      1.0000 0.35230  0.66410  0.57370  Biso   1.000  C
  C44      1.0000 0.85230  0.16410  0.57370  Biso   1.000  C
  C45      1.0000 0.35230  0.33590  0.07370  Biso   1.000  C
  C46      1.0000 0.85230  0.83590  0.07370  Biso   1.000  C
  C47      1.0000 0.64770  0.33590  0.42630  Biso   1.000  C
  C48      1.0000 0.14770  0.83590  0.42630  Biso   1.000  C
  H41      1.0000 0.61830  0.57430  0.92900  Biso   1.000  H
  H42      1.0000 0.11830  0.07430  0.92900  Biso   1.000  H
  H43      1.0000 0.38170  0.57430  0.57100  Biso   1.000  H
  H44      1.0000 0.88170  0.07430  0.57100  Biso   1.000  H
  H45      1.0000 0.38170  0.42570  0.07100  Biso   1.000  H
  H46      1.0000 0.88170  0.92570  0.07100  Biso   1.000  H
  H47      1.0000 0.61830  0.42570  0.42900  Biso   1.000  H
  H48      1.0000 0.11830  0.92570  0.42900  Biso   1.000  H
  H49      1.0000 0.64440  0.78960  0.94280  Biso   1.000  H
  H50      1.0000 0.14440  0.28960  0.94280  Biso   1.000  H
  H51      1.0000 0.35560  0.78960  0.55720  Biso   1.000  H
  H52      1.0000 0.85560  0.28960  0.55720  Biso   1.000  H
  H53      1.0000 0.35560  0.21040  0.05720  Biso   1.000  H
  H54      1.0000 0.85560  0.71040  0.05720  Biso   1.000  H
  H55      1.0000 0.64440  0.21040  0.44280  Biso   1.000  H
  H56      1.0000 0.14440  0.71040  0.44280  Biso   1.000  H
  H57      1.0000 0.69080  0.61540  0.95210  Biso   1.000  H
  H58      1.0000 0.19080  0.11540  0.95210  Biso   1.000  H
  H59      1.0000 0.30920  0.61540  0.54790  Biso   1.000  H
  H60      1.0000 0.80920  0.11540  0.54790  Biso   1.000  H
  H61      1.0000 0.30920  0.38460  0.04790  Biso   1.000  H
  H62      1.0000 0.80920  0.88460  0.04790  Biso   1.000  H
  H63      1.0000 0.69080  0.38460  0.45210  Biso   1.000  H
  H64      1.0000 0.19080  0.88460  0.45210  Biso   1.000  H
  C49      1.0000 0.57856  0.87780  0.69652  Biso   1.000  C
  C50      1.0000 0.07856  0.37780  0.69652  Biso   1.000  C
  C51      1.0000 0.42144  0.87780  0.80348  Biso   1.000  C
  C52      1.0000 0.92144  0.37780  0.80348  Biso   1.000  C
  C53      1.0000 0.42144  0.12220  0.30348  Biso   1.000  C
  C54      1.0000 0.92144  0.62220  0.30348  Biso   1.000  C
  C55      1.0000 0.57856  0.12220  0.19652  Biso   1.000  C
  C56      1.0000 0.07856  0.62220  0.19652  Biso   1.000  C
  H65      1.0000 0.60060  0.83260  0.67420  Biso   1.000  H
  H66      1.0000 0.10060  0.33260  0.67420  Biso   1.000  H
  H67      1.0000 0.39940  0.83260  0.82580  Biso   1.000  H
  H68      1.0000 0.89940  0.33260  0.82580  Biso   1.000  H
  H69      1.0000 0.39940  0.16740  0.32580  Biso   1.000  H
  H70      1.0000 0.89940  0.66740  0.32580  Biso   1.000  H
  H71      1.0000 0.60060  0.16740  0.17420  Biso   1.000  H
  H72      1.0000 0.10060  0.66740  0.17420  Biso   1.000  H
  H73      1.0000 0.58610  0.01550  0.70520  Biso   1.000  H
  H74      1.0000 0.08610  0.51550  0.70520  Biso   1.000  H
  H75      1.0000 0.41390  0.01550  0.79480  Biso   1.000  H
  H76      1.0000 0.91390  0.51550  0.79480  Biso   1.000  H
  H77      1.0000 0.41390  0.98450  0.29480  Biso   1.000  H
  H78      1.0000 0.91390  0.48450  0.29480  Biso   1.000  H
  H79      1.0000 0.58610  0.98450  0.20520  Biso   1.000  H
  H80      1.0000 0.08610  0.48450  0.20520  Biso   1.000  H
  H81      1.0000 0.53320  0.85480  0.66950  Biso   1.000  H
  H82      1.0000 0.03320  0.35480  0.66950  Biso   1.000  H
  H83      1.0000 0.46680  0.85480  0.83050  Biso   1.000  H
  H84      1.0000 0.96680  0.35480  0.83050  Biso   1.000  H
  H85      1.0000 0.46680  0.14520  0.33050  Biso   1.000  H
  H86      1.0000 0.96680  0.64520  0.33050  Biso   1.000  H
  H87      1.0000 0.53320  0.14520  0.16950  Biso   1.000  H
  H88      1.0000 0.03320  0.64520  0.16950  Biso   1.000  H
  N25      1.0000 0.57296  0.39640  0.64057  Biso   1.000  N
  N26      1.0000 0.07296  0.89640  0.64057  Biso   1.000  N
  N27      1.0000 0.42704  0.39640  0.85943  Biso   1.000  N
  N28      1.0000 0.92704  0.89640  0.85943  Biso   1.000  N
  N29      1.0000 0.42704  0.60360  0.35943  Biso   1.000  N
  N30      1.0000 0.92704  0.10360  0.35943  Biso   1.000  N
  N31      1.0000 0.57296  0.60360  0.14057  Biso   1.000  N
  N32      1.0000 0.07296  0.10360  0.14057  Biso   1.000  N
  C57      1.0000 0.63098  0.41380  0.58382  Biso   1.000  C
  C58      1.0000 0.13098  0.91380  0.58382  Biso   1.000  C
  C59      1.0000 0.36902  0.41380  0.91618  Biso   1.000  C
  C60      1.0000 0.86902  0.91380  0.91618  Biso   1.000  C
  C61      1.0000 0.36902  0.58620  0.41618  Biso   1.000  C
  C62      1.0000 0.86902  0.08620  0.41618  Biso   1.000  C
  C63      1.0000 0.63098  0.58620  0.08382  Biso   1.000  C
  C64      1.0000 0.13098  0.08620  0.08382  Biso   1.000  C
  H89      1.0000 0.62870  0.55100  0.57220  Biso   1.000  H
  H90      1.0000 0.12870  0.05100  0.57220  Biso   1.000  H
  H91      1.0000 0.37130  0.55100  0.92780  Biso   1.000  H
  H92      1.0000 0.87130  0.05100  0.92780  Biso   1.000  H
  H93      1.0000 0.37130  0.44900  0.42780  Biso   1.000  H
  H94      1.0000 0.87130  0.94900  0.42780  Biso   1.000  H
  H95      1.0000 0.62870  0.44900  0.07220  Biso   1.000  H
  H96      1.0000 0.12870  0.94900  0.07220  Biso   1.000  H
  H97      1.0000 0.63540  0.33640  0.55160  Biso   1.000  H
  H98      1.0000 0.13540  0.83640  0.55160  Biso   1.000  H
  H99      1.0000 0.36460  0.33640  0.94840  Biso   1.000  H
  H100     1.0000 0.86460  0.83640  0.94840  Biso   1.000  H
  H101     1.0000 0.36460  0.66360  0.44840  Biso   1.000  H
  H102     1.0000 0.86460  0.16360  0.44840  Biso   1.000  H
  H103     1.0000 0.63540  0.66360  0.05160  Biso   1.000  H
  H104     1.0000 0.13540  0.16360  0.05160  Biso   1.000  H
  N33      1.0000 0.57478  0.35710  0.58605  Biso   1.000  N
  N34      1.0000 0.07478  0.85710  0.58605  Biso   1.000  N
  N35      1.0000 0.42522  0.35710  0.91395  Biso   1.000  N
  N36      1.0000 0.92522  0.85710  0.91395  Biso   1.000  N
  N37      1.0000 0.42522  0.64290  0.41395  Biso   1.000  N
  N38      1.0000 0.92522  0.14290  0.41395  Biso   1.000  N
  N39      1.0000 0.57478  0.64290  0.08605  Biso   1.000  N
  N40      1.0000 0.07478  0.14290  0.08605  Biso   1.000  N
  C65      1.0000 0.51994  0.28290  0.54001  Biso   1.000  C
  C66      1.0000 0.01994  0.78290  0.54001  Biso   1.000  C
  C67      1.0000 0.48006  0.28290  0.95999  Biso   1.000  C
  C68      1.0000 0.98006  0.78290  0.95999  Biso   1.000  C
  C69      1.0000 0.48006  0.71710  0.45999  Biso   1.000  C
  C70      1.0000 0.98006  0.21710  0.45999  Biso   1.000  C
  C71      1.0000 0.51994  0.71710  0.04001  Biso   1.000  C
  C72      1.0000 0.01994  0.21710  0.04001  Biso   1.000  C
  C73      1.0000 0.48095  0.27300  0.56607  Biso   1.000  C
  C74      1.0000 0.98095  0.77300  0.56607  Biso   1.000  C
  C75      1.0000 0.51905  0.27300  0.93393  Biso   1.000  C
  C76      1.0000 0.01905  0.77300  0.93393  Biso   1.000  C
  C77      1.0000 0.51905  0.72700  0.43393  Biso   1.000  C
  C78      1.0000 0.01905  0.22700  0.43393  Biso   1.000  C
  C79      1.0000 0.48095  0.72700  0.06607  Biso   1.000  C
  C80      1.0000 0.98095  0.22700  0.06607  Biso   1.000  C
  H105     1.0000 0.43880  0.22730  0.54550  Biso   1.000  H
  H106     1.0000 0.93880  0.72730  0.54550  Biso   1.000  H
  H107     1.0000 0.56120  0.22730  0.95450  Biso   1.000  H
  H108     1.0000 0.06120  0.72730  0.95450  Biso   1.000  H
  H109     1.0000 0.56120  0.77270  0.45450  Biso   1.000  H
  H110     1.0000 0.06120  0.27270  0.45450  Biso   1.000  H
  H111     1.0000 0.43880  0.77270  0.04550  Biso   1.000  H
  H112     1.0000 0.93880  0.27270  0.04550  Biso   1.000  H
  C81      1.0000 0.51576  0.34370  0.62891  Biso   1.000  C
  C82      1.0000 0.01576  0.84370  0.62891  Biso   1.000  C
  C83      1.0000 0.48424  0.34370  0.87109  Biso   1.000  C
  C84      1.0000 0.98424  0.84370  0.87109  Biso   1.000  C
  C85      1.0000 0.48424  0.65630  0.37109  Biso   1.000  C
  C86      1.0000 0.98424  0.15630  0.37109  Biso   1.000  C
  C87      1.0000 0.51576  0.65630  0.12891  Biso   1.000  C
  C88      1.0000 0.01576  0.15630  0.12891  Biso   1.000  C
  C89      1.0000 0.50973  0.22490  0.47556  Biso   1.000  C
  C90      1.0000 0.00973  0.72490  0.47556  Biso   1.000  C
  C91      1.0000 0.49027  0.22490  0.02444  Biso   1.000  C
  C92      1.0000 0.99027  0.72490  0.02444  Biso   1.000  C
  C93      1.0000 0.49027  0.77510  0.52444  Biso   1.000  C
  C94      1.0000 0.99027  0.27510  0.52444  Biso   1.000  C
  C95      1.0000 0.50973  0.77510  0.97556  Biso   1.000  C
  C96      1.0000 0.00973  0.27510  0.97556  Biso   1.000  C
  H113     1.0000 0.51360  0.33770  0.45330  Biso   1.000  H
  H114     1.0000 0.01360  0.83770  0.45330  Biso   1.000  H
  H115     1.0000 0.48640  0.33770  0.04670  Biso   1.000  H
  H116     1.0000 0.98640  0.83770  0.04670  Biso   1.000  H
  H117     1.0000 0.48640  0.66230  0.54670  Biso   1.000  H
  H118     1.0000 0.98640  0.16230  0.54670  Biso   1.000  H
  H119     1.0000 0.51360  0.66230  0.95330  Biso   1.000  H
  H120     1.0000 0.01360  0.16230  0.95330  Biso   1.000  H
  H121     1.0000 0.46750  0.16960  0.45010  Biso   1.000  H
  H122     1.0000 0.96750  0.66960  0.45010  Biso   1.000  H
  H123     1.0000 0.53250  0.16960  0.04990  Biso   1.000  H
  H124     1.0000 0.03250  0.66960  0.04990  Biso   1.000  H
  H125     1.0000 0.53250  0.83040  0.54990  Biso   1.000  H
  H126     1.0000 0.03250  0.33040  0.54990  Biso   1.000  H
  H127     1.0000 0.46750  0.83040  0.95010  Biso   1.000  H
  H128     1.0000 0.96750  0.33040  0.95010  Biso   1.000  H
  H129     1.0000 0.54140  0.12940  0.48090  Biso   1.000  H
  H130     1.0000 0.04140  0.62940  0.48090  Biso   1.000  H
  H131     1.0000 0.45860  0.12940  0.01910  Biso   1.000  H
  H132     1.0000 0.95860  0.62940  0.01910  Biso   1.000  H
  H133     1.0000 0.45860  0.87060  0.51910  Biso   1.000  H
  H134     1.0000 0.95860  0.37060  0.51910  Biso   1.000  H
  H135     1.0000 0.54140  0.87060  0.98090  Biso   1.000  H
  H136     1.0000 0.04140  0.37060  0.98090  Biso   1.000  H
  C97      1.0000 0.49705  0.35930  0.67926  Biso   1.000  C
  C98      1.0000 0.99705  0.85930  0.67926  Biso   1.000  C
  C99      1.0000 0.50295  0.35930  0.82074  Biso   1.000  C
  C100     1.0000 0.00295  0.85930  0.82074  Biso   1.000  C
  C101     1.0000 0.50295  0.64070  0.32074  Biso   1.000  C
  C102     1.0000 0.00295  0.14070  0.32074  Biso   1.000  C
  C103     1.0000 0.49705  0.64070  0.17926  Biso   1.000  C
  C104     1.0000 0.99705  0.14070  0.17926  Biso   1.000  C
  H137     1.0000 0.52820  0.29330  0.71840  Biso   1.000  H
  H138     1.0000 0.02820  0.79330  0.71840  Biso   1.000  H
  H139     1.0000 0.47180  0.29330  0.78160  Biso   1.000  H
  H140     1.0000 0.97180  0.79330  0.78160  Biso   1.000  H
  H141     1.0000 0.47180  0.70670  0.28160  Biso   1.000  H
  H142     1.0000 0.97180  0.20670  0.28160  Biso   1.000  H
  H143     1.0000 0.52820  0.70670  0.21840  Biso   1.000  H
  H144     1.0000 0.02820  0.20670  0.21840  Biso   1.000  H
  H145     1.0000 0.45560  0.29990  0.66360  Biso   1.000  H
  H146     1.0000 0.95560  0.79990  0.66360  Biso   1.000  H
  H147     1.0000 0.54440  0.29990  0.83640  Biso   1.000  H
  H148     1.0000 0.04440  0.79990  0.83640  Biso   1.000  H
  H149     1.0000 0.54440  0.70010  0.33640  Biso   1.000  H
  H150     1.0000 0.04440  0.20010  0.33640  Biso   1.000  H
  H151     1.0000 0.45560  0.70010  0.16360  Biso   1.000  H
  H152     1.0000 0.95560  0.20010  0.16360  Biso   1.000  H
  H153     1.0000 0.49500  0.49480  0.68890  Biso   1.000  H
  H154     1.0000 0.99500  0.99480  0.68890  Biso   1.000  H
  H155     1.0000 0.50500  0.49480  0.81110  Biso   1.000  H
  H156     1.0000 0.00500  0.99480  0.81110  Biso   1.000  H
  H157     1.0000 0.50500  0.50520  0.31110  Biso   1.000  H
  H158     1.0000 0.00500  0.00520  0.31110  Biso   1.000  H
  H159     1.0000 0.49500  0.50520  0.18890  Biso   1.000  H
  H160     1.0000 0.99500  0.00520  0.18890  Biso   1.000  H
  N41      1.0000 0.67808  0.94000  0.56584  Biso   1.000  N
  N42      1.0000 0.17808  0.44000  0.56584  Biso   1.000  N
  N43      1.0000 0.32192  0.94000  0.93416  Biso   1.000  N
  N44      1.0000 0.82192  0.44000  0.93416  Biso   1.000  N
  N45      1.0000 0.32192  0.06000  0.43416  Biso   1.000  N
  N46      1.0000 0.82192  0.56000  0.43416  Biso   1.000  N
  N47      1.0000 0.67808  0.06000  0.06584  Biso   1.000  N
  N48      1.0000 0.17808  0.56000  0.06584  Biso   1.000  N
  O17      1.0000 0.71262  0.07610  0.57190  Biso   1.000  O
  O18      1.0000 0.21262  0.57610  0.57190  Biso   1.000  O
  O19      1.0000 0.28738  0.07610  0.92810  Biso   1.000  O
  O20      1.0000 0.78738  0.57610  0.92810  Biso   1.000  O
  O21      1.0000 0.28738  0.92390  0.42810  Biso   1.000  O
  O22      1.0000 0.78738  0.42390  0.42810  Biso   1.000  O
  O23      1.0000 0.71262  0.92390  0.07190  Biso   1.000  O
  O24      1.0000 0.21262  0.42390  0.07190  Biso   1.000  O
  O25      1.0000 0.64591  0.94920  0.59254  Biso   1.000  O
  O26      1.0000 0.14591  0.44920  0.59254  Biso   1.000  O
  O27      1.0000 0.35409  0.94920  0.90746  Biso   1.000  O
  O28      1.0000 0.85409  0.44920  0.90746  Biso   1.000  O
  O29      1.0000 0.35409  0.05080  0.40746  Biso   1.000  O
  O30      1.0000 0.85409  0.55080  0.40746  Biso   1.000  O
  O31      1.0000 0.64591  0.05080  0.09254  Biso   1.000  O
  O32      1.0000 0.14591  0.55080  0.09254  Biso   1.000  O
  O33      1.0000 0.67594  0.79600  0.53391  Biso   1.000  O
  O34      1.0000 0.17594  0.29600  0.53391  Biso   1.000  O
  O35      1.0000 0.32406  0.79600  0.96609  Biso   1.000  O
  O36      1.0000 0.82406  0.29600  0.96609  Biso   1.000  O
  O37      1.0000 0.32406  0.20400  0.46609  Biso   1.000  O
  O38      1.0000 0.82406  0.70400  0.46609  Biso   1.000  O
  O39      1.0000 0.67594  0.20400  0.03391  Biso   1.000  O
  O40      1.0000 0.17594  0.70400  0.03391  Biso   1.000  O
  O41      1.0000 0.68960  0.78310  0.42067  Biso   1.000  O
  O42      1.0000 0.18960  0.28310  0.42067  Biso   1.000  O
  O43      1.0000 0.31040  0.78310  0.07933  Biso   1.000  O
  O44      1.0000 0.81040  0.28310  0.07933  Biso   1.000  O
  O45      1.0000 0.31040  0.21690  0.57933  Biso   1.000  O
  O46      1.0000 0.81040  0.71690  0.57933  Biso   1.000  O
  O47      1.0000 0.68960  0.21690  0.92067  Biso   1.000  O
  O48      1.0000 0.18960  0.71690  0.92067  Biso   1.000  O
  H161     1.0000 0.68600  0.82400  0.45150  Biso   1.000  H
  H162     1.0000 0.18600  0.32400  0.45150  Biso   1.000  H
  H163     1.0000 0.31400  0.82400  0.04850  Biso   1.000  H
  H164     1.0000 0.81400  0.32400  0.04850  Biso   1.000  H
  H165     1.0000 0.31400  0.17600  0.54850  Biso   1.000  H
  H166     1.0000 0.81400  0.67600  0.54850  Biso   1.000  H
  H167     1.0000 0.68600  0.17600  0.95150  Biso   1.000  H
  H168     1.0000 0.18600  0.67600  0.95150  Biso   1.000  H
  H169     1.0000 0.72680  0.74100  0.43700  Biso   1.000  H
  H170     1.0000 0.22680  0.24100  0.43700  Biso   1.000  H
  H171     1.0000 0.27320  0.74100  0.06300  Biso   1.000  H
  H172     1.0000 0.77320  0.24100  0.06300  Biso   1.000  H
  H173     1.0000 0.27320  0.25900  0.56300  Biso   1.000  H
  H174     1.0000 0.77320  0.75900  0.56300  Biso   1.000  H
  H175     1.0000 0.72680  0.25900  0.93700  Biso   1.000  H
  H176     1.0000 0.22680  0.75900  0.93700  Biso   1.000  H
