data_image0
_cell_length_a       8.877
_cell_length_b       15.602
_cell_length_c       14.17
_cell_angle_alpha    90
_cell_angle_beta     90
_cell_angle_gamma    90

_symmetry_space_group_name_H-M    "P 1"
_symmetry_int_tables_number       1

loop_
  _symmetry_equiv_pos_as_xyz
  'x, y, z'

loop_
  _atom_site_label
  _atom_site_occupancy
  _atom_site_fract_x
  _atom_site_fract_y
  _atom_site_fract_z
  _atom_site_thermal_displace_type
  _atom_site_B_iso_or_equiv
  _atom_site_type_symbol
  Cu1      1.0000 0.50000  0.50000  0.00000  Biso   1.000  Cu
  Cu2      1.0000 0.00000  0.00000  0.00000  Biso   1.000  Cu
  Cu3      1.0000 0.50000  0.00000  0.50000  Biso   1.000  Cu
  Cu4      1.0000 0.00000  0.50000  0.50000  Biso   1.000  Cu
  S1       1.0000 0.50000  0.66345  0.31088  Biso   1.000  S
  S2       1.0000 0.00000  0.16345  0.31088  Biso   1.000  S
  S3       1.0000 0.50000  0.83655  0.81088  Biso   1.000  S
  S4       1.0000 0.50000  0.16345  0.18912  Biso   1.000  S
  S5       1.0000 0.50000  0.33655  0.68912  Biso   1.000  S
  S6       1.0000 0.00000  0.33655  0.81088  Biso   1.000  S
  S7       1.0000 0.00000  0.66345  0.18912  Biso   1.000  S
  S8       1.0000 0.00000  0.83655  0.68912  Biso   1.000  S
  N1       1.0000 0.33373  0.43299  0.06719  Biso   1.000  N
  N2       1.0000 0.83373  0.93299  0.06719  Biso   1.000  N
  N3       1.0000 0.66627  0.06701  0.56719  Biso   1.000  N
  N4       1.0000 0.66627  0.93299  0.43281  Biso   1.000  N
  N5       1.0000 0.33373  0.56701  0.93281  Biso   1.000  N
  N6       1.0000 0.16627  0.56701  0.56719  Biso   1.000  N
  N7       1.0000 0.16627  0.43299  0.43281  Biso   1.000  N
  N8       1.0000 0.83373  0.06701  0.93281  Biso   1.000  N
  N9       1.0000 0.66627  0.56701  0.93281  Biso   1.000  N
  N10      1.0000 0.16627  0.06701  0.93281  Biso   1.000  N
  N11      1.0000 0.33373  0.93299  0.43281  Biso   1.000  N
  N12      1.0000 0.33373  0.06701  0.56719  Biso   1.000  N
  N13      1.0000 0.66627  0.43299  0.06719  Biso   1.000  N
  N14      1.0000 0.83373  0.43299  0.43281  Biso   1.000  N
  N15      1.0000 0.83373  0.56701  0.56719  Biso   1.000  N
  N16      1.0000 0.16627  0.93299  0.06719  Biso   1.000  N
  N17      1.0000 0.13513  0.40312  0.15403  Biso   1.000  N
  N18      1.0000 0.63513  0.90312  0.15403  Biso   1.000  N
  N19      1.0000 0.86487  0.09688  0.65403  Biso   1.000  N
  N20      1.0000 0.86487  0.90312  0.34597  Biso   1.000  N
  N21      1.0000 0.13513  0.59688  0.84597  Biso   1.000  N
  N22      1.0000 0.36487  0.59688  0.65403  Biso   1.000  N
  N23      1.0000 0.36487  0.40312  0.34597  Biso   1.000  N
  N24      1.0000 0.63513  0.09688  0.84597  Biso   1.000  N
  N25      1.0000 0.86487  0.59688  0.84597  Biso   1.000  N
  N26      1.0000 0.36487  0.09688  0.84597  Biso   1.000  N
  N27      1.0000 0.13513  0.90312  0.34597  Biso   1.000  N
  N28      1.0000 0.13513  0.09688  0.65403  Biso   1.000  N
  N29      1.0000 0.86487  0.40312  0.15403  Biso   1.000  N
  N30      1.0000 0.63513  0.40312  0.34597  Biso   1.000  N
  N31      1.0000 0.63513  0.59688  0.65403  Biso   1.000  N
  N32      1.0000 0.36487  0.90312  0.15403  Biso   1.000  N
  N33      1.0000 0.50000  0.60686  0.12420  Biso   1.000  N
  N34      1.0000 0.00000  0.10686  0.12420  Biso   1.000  N
  N35      1.0000 0.50000  0.89314  0.62420  Biso   1.000  N
  N36      1.0000 0.50000  0.10686  0.37580  Biso   1.000  N
  N37      1.0000 0.50000  0.39314  0.87580  Biso   1.000  N
  N38      1.0000 0.00000  0.39314  0.62420  Biso   1.000  N
  N39      1.0000 0.00000  0.60686  0.37580  Biso   1.000  N
  N40      1.0000 0.00000  0.89314  0.87580  Biso   1.000  N
  C1       1.0000 0.19150  0.32644  0.12179  Biso   1.000  C
  C2       1.0000 0.69150  0.82644  0.12179  Biso   1.000  C
  C3       1.0000 0.80850  0.17356  0.62179  Biso   1.000  C
  C4       1.0000 0.80850  0.82644  0.37821  Biso   1.000  C
  C5       1.0000 0.19150  0.67356  0.87821  Biso   1.000  C
  C6       1.0000 0.30850  0.67356  0.62179  Biso   1.000  C
  C7       1.0000 0.30850  0.32644  0.37821  Biso   1.000  C
  C8       1.0000 0.69150  0.17356  0.87821  Biso   1.000  C
  C9       1.0000 0.80850  0.67356  0.87821  Biso   1.000  C
  C10      1.0000 0.30850  0.17356  0.87821  Biso   1.000  C
  C11      1.0000 0.19150  0.82644  0.37821  Biso   1.000  C
  C12      1.0000 0.19150  0.17356  0.62179  Biso   1.000  C
  C13      1.0000 0.80850  0.32644  0.12179  Biso   1.000  C
  C14      1.0000 0.69150  0.32644  0.37821  Biso   1.000  C
  C15      1.0000 0.69150  0.67356  0.62179  Biso   1.000  C
  C16      1.0000 0.30850  0.82644  0.12179  Biso   1.000  C
  H1       1.0000 0.15370  0.27200  0.13440  Biso   1.000  H
  H2       1.0000 0.65370  0.77200  0.13440  Biso   1.000  H
  H3       1.0000 0.84630  0.22800  0.63440  Biso   1.000  H
  H4       1.0000 0.84630  0.77200  0.36560  Biso   1.000  H
  H5       1.0000 0.15370  0.72800  0.86560  Biso   1.000  H
  H6       1.0000 0.34630  0.72800  0.63440  Biso   1.000  H
  H7       1.0000 0.34630  0.27200  0.36560  Biso   1.000  H
  H8       1.0000 0.65370  0.22800  0.86560  Biso   1.000  H
  H9       1.0000 0.84630  0.72800  0.86560  Biso   1.000  H
  H10      1.0000 0.34630  0.22800  0.86560  Biso   1.000  H
  H11      1.0000 0.15370  0.77200  0.36560  Biso   1.000  H
  H12      1.0000 0.15370  0.22800  0.63440  Biso   1.000  H
  H13      1.0000 0.84630  0.27200  0.13440  Biso   1.000  H
  H14      1.0000 0.65370  0.27200  0.36560  Biso   1.000  H
  H15      1.0000 0.65370  0.72800  0.63440  Biso   1.000  H
  H16      1.0000 0.34630  0.77200  0.13440  Biso   1.000  H
  C17      1.0000 0.31220  0.34561  0.06839  Biso   1.000  C
  C18      1.0000 0.81220  0.84561  0.06839  Biso   1.000  C
  C19      1.0000 0.68780  0.15439  0.56839  Biso   1.000  C
  C20      1.0000 0.68780  0.84561  0.43161  Biso   1.000  C
  C21      1.0000 0.31220  0.65439  0.93161  Biso   1.000  C
  C22      1.0000 0.18780  0.65439  0.56839  Biso   1.000  C
  C23      1.0000 0.18780  0.34561  0.43161  Biso   1.000  C
  C24      1.0000 0.81220  0.15439  0.93161  Biso   1.000  C
  C25      1.0000 0.68780  0.65439  0.93161  Biso   1.000  C
  C26      1.0000 0.18780  0.15439  0.93161  Biso   1.000  C
  C27      1.0000 0.31220  0.84561  0.43161  Biso   1.000  C
  C28      1.0000 0.31220  0.15439  0.56839  Biso   1.000  C
  C29      1.0000 0.68780  0.34561  0.06839  Biso   1.000  C
  C30      1.0000 0.81220  0.34561  0.43161  Biso   1.000  C
  C31      1.0000 0.81220  0.65439  0.56839  Biso   1.000  C
  C32      1.0000 0.18780  0.84561  0.06839  Biso   1.000  C
  H17      1.0000 0.37200  0.30580  0.03700  Biso   1.000  H
  H18      1.0000 0.87200  0.80580  0.03700  Biso   1.000  H
  H19      1.0000 0.62800  0.19420  0.53700  Biso   1.000  H
  H20      1.0000 0.62800  0.80580  0.46300  Biso   1.000  H
  H21      1.0000 0.37200  0.69420  0.96300  Biso   1.000  H
  H22      1.0000 0.12800  0.69420  0.53700  Biso   1.000  H
  H23      1.0000 0.12800  0.30580  0.46300  Biso   1.000  H
  H24      1.0000 0.87200  0.19420  0.96300  Biso   1.000  H
  H25      1.0000 0.62800  0.69420  0.96300  Biso   1.000  H
  H26      1.0000 0.12800  0.19420  0.96300  Biso   1.000  H
  H27      1.0000 0.37200  0.80580  0.46300  Biso   1.000  H
  H28      1.0000 0.37200  0.19420  0.53700  Biso   1.000  H
  H29      1.0000 0.62800  0.30580  0.03700  Biso   1.000  H
  H30      1.0000 0.87200  0.30580  0.46300  Biso   1.000  H
  H31      1.0000 0.87200  0.69420  0.53700  Biso   1.000  H
  H32      1.0000 0.12800  0.80580  0.03700  Biso   1.000  H
  C33      1.0000 0.22470  0.46553  0.11852  Biso   1.000  C
  C34      1.0000 0.72470  0.96553  0.11852  Biso   1.000  C
  C35      1.0000 0.77530  0.03447  0.61852  Biso   1.000  C
  C36      1.0000 0.77530  0.96553  0.38148  Biso   1.000  C
  C37      1.0000 0.22470  0.53447  0.88148  Biso   1.000  C
  C38      1.0000 0.27530  0.53447  0.61852  Biso   1.000  C
  C39      1.0000 0.27530  0.46553  0.38148  Biso   1.000  C
  C40      1.0000 0.72470  0.03447  0.88148  Biso   1.000  C
  C41      1.0000 0.77530  0.53447  0.88148  Biso   1.000  C
  C42      1.0000 0.27530  0.03447  0.88148  Biso   1.000  C
  C43      1.0000 0.22470  0.96553  0.38148  Biso   1.000  C
  C44      1.0000 0.22470  0.03447  0.61852  Biso   1.000  C
  C45      1.0000 0.77530  0.46553  0.11852  Biso   1.000  C
  C46      1.0000 0.72470  0.46553  0.38148  Biso   1.000  C
  C47      1.0000 0.72470  0.53447  0.61852  Biso   1.000  C
  C48      1.0000 0.27530  0.96553  0.11852  Biso   1.000  C
  H33      1.0000 0.21080  0.52380  0.12910  Biso   1.000  H
  H34      1.0000 0.71080  0.02380  0.12910  Biso   1.000  H
  H35      1.0000 0.78920  0.97620  0.62910  Biso   1.000  H
  H36      1.0000 0.78920  0.02380  0.37090  Biso   1.000  H
  H37      1.0000 0.21080  0.47620  0.87090  Biso   1.000  H
  H38      1.0000 0.28920  0.47620  0.62910  Biso   1.000  H
  H39      1.0000 0.28920  0.52380  0.37090  Biso   1.000  H
  H40      1.0000 0.71080  0.97620  0.87090  Biso   1.000  H
  H41      1.0000 0.78920  0.47620  0.87090  Biso   1.000  H
  H42      1.0000 0.28920  0.97620  0.87090  Biso   1.000  H
  H43      1.0000 0.21080  0.02380  0.37090  Biso   1.000  H
  H44      1.0000 0.21080  0.97620  0.62910  Biso   1.000  H
  H45      1.0000 0.78920  0.52380  0.12910  Biso   1.000  H
  H46      1.0000 0.71080  0.52380  0.37090  Biso   1.000  H
  H47      1.0000 0.71080  0.47620  0.62910  Biso   1.000  H
  H48      1.0000 0.28920  0.02380  0.12910  Biso   1.000  H
  C49      1.0000 0.00000  0.41360  0.21100  Biso   1.000  C
  C50      1.0000 0.50000  0.91360  0.21100  Biso   1.000  C
  C51      1.0000 0.00000  0.08640  0.71100  Biso   1.000  C
  C52      1.0000 0.00000  0.91360  0.28900  Biso   1.000  C
  C53      1.0000 0.00000  0.58640  0.78900  Biso   1.000  C
  C54      1.0000 0.50000  0.58640  0.71100  Biso   1.000  C
  C55      1.0000 0.50000  0.41360  0.28900  Biso   1.000  C
  C56      1.0000 0.50000  0.08640  0.78900  Biso   1.000  C
  H49      1.0000 0.00000  0.37150  0.26140  Biso   1.000  H
  H50      1.0000 0.50000  0.87150  0.26140  Biso   1.000  H
  H51      1.0000 0.00000  0.12850  0.76140  Biso   1.000  H
  H52      1.0000 0.00000  0.87150  0.23860  Biso   1.000  H
  H53      1.0000 0.00000  0.62850  0.73860  Biso   1.000  H
  H54      1.0000 0.50000  0.62850  0.76140  Biso   1.000  H
  H55      1.0000 0.50000  0.37150  0.23860  Biso   1.000  H
  H56      1.0000 0.50000  0.12850  0.73860  Biso   1.000  H
  H57      1.0000 0.00000  0.47010  0.23950  Biso   1.000  H
  H58      1.0000 0.50000  0.97010  0.23950  Biso   1.000  H
  H59      1.0000 0.00000  0.02990  0.73950  Biso   1.000  H
  H60      1.0000 0.00000  0.97010  0.26050  Biso   1.000  H
  H61      1.0000 0.00000  0.52990  0.76050  Biso   1.000  H
  H62      1.0000 0.50000  0.52990  0.73950  Biso   1.000  H
  H63      1.0000 0.50000  0.47010  0.26050  Biso   1.000  H
  H64      1.0000 0.50000  0.02990  0.76050  Biso   1.000  H
  C57      1.0000 0.50000  0.62989  0.20140  Biso   1.000  C
  C58      1.0000 0.00000  0.12989  0.20140  Biso   1.000  C
  C59      1.0000 0.50000  0.87011  0.70140  Biso   1.000  C
  C60      1.0000 0.50000  0.12989  0.29860  Biso   1.000  C
  C61      1.0000 0.50000  0.37011  0.79860  Biso   1.000  C
  C62      1.0000 0.00000  0.37011  0.70140  Biso   1.000  C
  C63      1.0000 0.00000  0.62989  0.29860  Biso   1.000  C
  C64      1.0000 0.00000  0.87011  0.79860  Biso   1.000  C
