data_image0
_cell_length_a       8.127
_cell_length_b       8.67
_cell_length_c       11.027
_cell_angle_alpha    70.478
_cell_angle_beta     79.79
_cell_angle_gamma    77.737

_symmetry_space_group_name_H-M    "P 1"
_symmetry_int_tables_number       1

loop_
  _symmetry_equiv_pos_as_xyz
  'x, y, z'

loop_
  _atom_site_label
  _atom_site_occupancy
  _atom_site_fract_x
  _atom_site_fract_y
  _atom_site_fract_z
  _atom_site_thermal_displace_type
  _atom_site_B_iso_or_equiv
  _atom_site_type_symbol
  Cu1      1.0000 0.00000  0.00000  0.50000  Biso   1.000  Cu
  N1       1.0000 0.88930  0.23570  0.48559  Biso   1.000  N
  N2       1.0000 0.11070  0.76430  0.51441  Biso   1.000  N
  O1       1.0000 0.17320  0.56100  0.08045  Biso   1.000  O
  O2       1.0000 0.82680  0.43900  0.91955  Biso   1.000  O
  O3       1.0000 0.99180  0.95380  0.68628  Biso   1.000  O
  O4       1.0000 0.00820  0.04620  0.31372  Biso   1.000  O
  O5       1.0000 0.53040  0.32740  0.77762  Biso   1.000  O
  O6       1.0000 0.46960  0.67260  0.22238  Biso   1.000  O
  C1       1.0000 0.08220  0.84680  0.98599  Biso   1.000  C
  C2       1.0000 0.91780  0.15320  0.01401  Biso   1.000  C
  O7       1.0000 0.29640  0.10460  0.42564  Biso   1.000  O
  O8       1.0000 0.70360  0.89540  0.57436  Biso   1.000  O
  O9       1.0000 0.22460  0.66590  0.86830  Biso   1.000  O
  O10      1.0000 0.77540  0.33410  0.13170  Biso   1.000  O
  C3       1.0000 0.05100  0.98330  0.87646  Biso   1.000  C
  C4       1.0000 0.94900  0.01670  0.12354  Biso   1.000  C
  C5       1.0000 0.58250  0.44920  0.69640  Biso   1.000  C
  C6       1.0000 0.41750  0.55080  0.30360  Biso   1.000  C
  C7       1.0000 0.78360  0.27050  0.58448  Biso   1.000  C
  C8       1.0000 0.21640  0.72950  0.41552  Biso   1.000  C
  H1       1.0000 0.76350  0.18360  0.65940  Biso   1.000  H
  H2       1.0000 0.23650  0.81640  0.34060  Biso   1.000  H
  C9       1.0000 0.70300  0.42890  0.58081  Biso   1.000  C
  C10      1.0000 0.29700  0.57110  0.41919  Biso   1.000  C
  C11      1.0000 0.96910  0.13340  0.89175  Biso   1.000  C
  C12      1.0000 0.03090  0.86660  0.10825  Biso   1.000  C
  H3       1.0000 0.94750  0.22380  0.81860  Biso   1.000  H
  H4       1.0000 0.05250  0.77620  0.18140  Biso   1.000  H
  N3       1.0000 0.53280  0.60140  0.70350  Biso   1.000  N
  N4       1.0000 0.46720  0.39860  0.29650  Biso   1.000  N
  O11      1.0000 0.24340  0.01500  0.68514  Biso   1.000  O
  O12      1.0000 0.75660  0.98500  0.31486  Biso   1.000  O
  C13      1.0000 0.83810  0.52130  0.36520  Biso   1.000  C
  C14      1.0000 0.16190  0.47870  0.63480  Biso   1.000  C
  H5       1.0000 0.85730  0.60540  0.28820  Biso   1.000  H
  H6       1.0000 0.14270  0.39460  0.71180  Biso   1.000  H
  C15      1.0000 0.16740  0.68320  0.97197  Biso   1.000  C
  C16      1.0000 0.83260  0.31680  0.02803  Biso   1.000  C
  C17      1.0000 0.10350  0.97930  0.73891  Biso   1.000  C
  C18      1.0000 0.89650  0.02070  0.26109  Biso   1.000  C
  C19      1.0000 0.73170  0.55750  0.46800  Biso   1.000  C
  C20      1.0000 0.26830  0.44250  0.53200  Biso   1.000  C
  H7       1.0000 0.68030  0.66600  0.46180  Biso   1.000  H
  H8       1.0000 0.31970  0.33400  0.53820  Biso   1.000  H
  C21      1.0000 0.91550  0.36090  0.37690  Biso   1.000  C
  C22      1.0000 0.08450  0.63910  0.62310  Biso   1.000  C
  H9       1.0000 0.98820  0.33840  0.30740  Biso   1.000  H
  H10      1.0000 0.01180  0.66160  0.69260  Biso   1.000  H
  H11      1.0000 0.46400  0.61700  0.76400  Biso   1.000  H
  H12      1.0000 0.53600  0.38300  0.23600  Biso   1.000  H
  H13      1.0000 0.58300  0.67700  0.66200  Biso   1.000  H
  H14      1.0000 0.41700  0.32300  0.33800  Biso   1.000  H
  H15      1.0000 0.34550  0.06480  0.36390  Biso   1.000  H
  H16      1.0000 0.65450  0.93520  0.63610  Biso   1.000  H
  H17      1.0000 0.37370  0.07370  0.48540  Biso   1.000  H
  H18      1.0000 0.62630  0.92630  0.51460  Biso   1.000  H
  H19      1.0000 0.22700  0.47500  0.06600  Biso   1.000  H
  H20      1.0000 0.77300  0.52500  0.93400  Biso   1.000  H
  O13      1.0000 0.52820  0.99770  0.78862  Biso   1.000  O
  O14      1.0000 0.47180  0.00230  0.21138  Biso   1.000  O
  H21      1.0000 0.53420  0.09910  0.79090  Biso   1.000  H
  H22      1.0000 0.46580  0.90090  0.20910  Biso   1.000  H
  H23      1.0000 0.42270  0.00780  0.76910  Biso   1.000  H
  H24      1.0000 0.57730  0.99220  0.23090  Biso   1.000  H
  O15      1.0000 0.66350  0.70280  0.97130  Biso   1.000  O
  O16      1.0000 0.33650  0.29720  0.02870  Biso   1.000  O
  H25      1.0000 0.62570  0.80230  0.91670  Biso   1.000  H
  H26      1.0000 0.37430  0.19770  0.08330  Biso   1.000  H
  H27      1.0000 0.57690  0.67770  0.03350  Biso   1.000  H
  H28      1.0000 0.42310  0.32230  0.96650  Biso   1.000  H
