data_image0
_cell_length_a       4.977
_cell_length_b       10.479
_cell_length_c       16.965
_cell_angle_alpha    90
_cell_angle_beta     91.65
_cell_angle_gamma    90

_symmetry_space_group_name_H-M    "P 1"
_symmetry_int_tables_number       1

loop_
  _symmetry_equiv_pos_as_xyz
  'x, y, z'

loop_
  _atom_site_label
  _atom_site_occupancy
  _atom_site_fract_x
  _atom_site_fract_y
  _atom_site_fract_z
  _atom_site_thermal_displace_type
  _atom_site_B_iso_or_equiv
  _atom_site_type_symbol
  Cu1      1.0000 0.02417  0.99979  0.80073  Biso   1.000  Cu
  Cu2      1.0000 0.97583  0.49979  0.19927  Biso   1.000  Cu
  S1       1.0000 0.95170  0.43450  0.76180  Biso   1.000  S
  S2       1.0000 0.04830  0.93450  0.23820  Biso   1.000  S
  O1       1.0000 0.71780  0.94980  0.86390  Biso   1.000  O
  O2       1.0000 0.28220  0.44980  0.13610  Biso   1.000  O
  N1       1.0000 0.12590  0.13180  0.87780  Biso   1.000  N
  N2       1.0000 0.87410  0.63180  0.12220  Biso   1.000  N
  C1       1.0000 0.65580  0.80270  0.75700  Biso   1.000  C
  C2       1.0000 0.34420  0.30270  0.24300  Biso   1.000  C
  H1       1.0000 0.50820  0.79190  0.71800  Biso   1.000  H
  H2       1.0000 0.49180  0.29190  0.28200  Biso   1.000  H
  C3       1.0000 0.31900  0.21900  0.87200  Biso   1.000  C
  C4       1.0000 0.68100  0.71900  0.12800  Biso   1.000  C
  H3       1.0000 0.43320  0.22530  0.82970  Biso   1.000  H
  H4       1.0000 0.56680  0.72530  0.17030  Biso   1.000  H
  C5       1.0000 0.29110  0.03700  0.65130  Biso   1.000  C
  C6       1.0000 0.70890  0.53700  0.34870  Biso   1.000  C
  N3       1.0000 0.32720  0.29570  0.93420  Biso   1.000  N
  N4       1.0000 0.67280  0.79570  0.06580  Biso   1.000  N
  C7       1.0000 0.49500  0.41040  0.94380  Biso   1.000  C
  C8       1.0000 0.50500  0.91040  0.05620  Biso   1.000  C
  H5       1.0000 0.46380  0.44830  0.99430  Biso   1.000  H
  H6       1.0000 0.53620  0.94830  0.00570  Biso   1.000  H
  H7       1.0000 0.44860  0.47040  0.90290  Biso   1.000  H
  H8       1.0000 0.55140  0.97040  0.09710  Biso   1.000  H
  H9       1.0000 0.68070  0.38740  0.94060  Biso   1.000  H
  H10      1.0000 0.31930  0.88740  0.05940  Biso   1.000  H
  C9       1.0000 0.12450  0.25980  0.98190  Biso   1.000  C
  C10      1.0000 0.87550  0.75980  0.01810  Biso   1.000  C
  H11      1.0000 0.07660  0.29820  0.02890  Biso   1.000  H
  H12      1.0000 0.92340  0.79820  0.97110  Biso   1.000  H
  C11      1.0000 0.00910  0.15860  0.94740  Biso   1.000  C
  C12      1.0000 0.99090  0.65860  0.05260  Biso   1.000  C
  H13      1.0000 0.86780  0.11260  0.96810  Biso   1.000  H
  H14      1.0000 0.13220  0.61260  0.03190  Biso   1.000  H
  C13      1.0000 0.16400  0.91570  0.53220  Biso   1.000  C
  C14      1.0000 0.83600  0.41570  0.46780  Biso   1.000  C
  H15      1.0000 0.05620  0.85510  0.50680  Biso   1.000  H
  H16      1.0000 0.94380  0.35510  0.49320  Biso   1.000  H
  C15      1.0000 0.35700  0.97760  0.49130  Biso   1.000  C
  C16      1.0000 0.64300  0.47760  0.50870  Biso   1.000  C
  H17      1.0000 0.38300  0.95710  0.43880  Biso   1.000  H
  H18      1.0000 0.61700  0.45710  0.56120  Biso   1.000  H
  C17      1.0000 0.48080  0.10000  0.60550  Biso   1.000  C
  C18      1.0000 0.51920  0.60000  0.39450  Biso   1.000  C
  H19      1.0000 0.58740  0.16330  0.62880  Biso   1.000  H
  H20      1.0000 0.41260  0.66330  0.37120  Biso   1.000  H
  C19      1.0000 0.76600  0.67150  0.78590  Biso   1.000  C
  C20      1.0000 0.23400  0.17150  0.21410  Biso   1.000  C
  H21      1.0000 0.91410  0.68550  0.82350  Biso   1.000  H
  H22      1.0000 0.08590  0.18550  0.17650  Biso   1.000  H
  H23      1.0000 0.62590  0.62630  0.81300  Biso   1.000  H
  H24      1.0000 0.37410  0.12630  0.18700  Biso   1.000  H
  C21      1.0000 0.51300  0.07110  0.52790  Biso   1.000  C
  C22      1.0000 0.48700  0.57110  0.47210  Biso   1.000  C
  H25      1.0000 0.64160  0.11440  0.49940  Biso   1.000  H
  H26      1.0000 0.35840  0.61440  0.50060  Biso   1.000  H
  O3       1.0000 0.27360  0.06550  0.72620  Biso   1.000  O
  O4       1.0000 0.72640  0.56550  0.27380  Biso   1.000  O
  N5       1.0000 0.87180  0.87870  0.72520  Biso   1.000  N
  N6       1.0000 0.12820  0.37870  0.27480  Biso   1.000  N
  C23      1.0000 0.85900  0.59290  0.72130  Biso   1.000  C
  C24      1.0000 0.14100  0.09290  0.27870  Biso   1.000  C
  H27      1.0000 0.01370  0.63230  0.69760  Biso   1.000  H
  H28      1.0000 0.98630  0.13230  0.30240  Biso   1.000  H
  H29      1.0000 0.71790  0.58410  0.68100  Biso   1.000  H
  H30      1.0000 0.28210  0.08410  0.31900  Biso   1.000  H
  C25      1.0000 0.12670  0.94290  0.61340  Biso   1.000  C
  C26      1.0000 0.87330  0.44290  0.38660  Biso   1.000  C
  C27      1.0000 0.55830  0.86860  0.83200  Biso   1.000  C
  C28      1.0000 0.44170  0.36860  0.16800  Biso   1.000  C
  C29      1.0000 0.92120  0.87360  0.65130  Biso   1.000  C
  C30      1.0000 0.07880  0.37360  0.34870  Biso   1.000  C
  H31      1.0000 0.81370  0.82020  0.62000  Biso   1.000  H
  H32      1.0000 0.18630  0.32020  0.38000  Biso   1.000  H
  C31      1.0000 0.13700  0.37750  0.68430  Biso   1.000  C
  C32      1.0000 0.86300  0.87750  0.31570  Biso   1.000  C
  H33      1.0000 0.20390  0.29380  0.69700  Biso   1.000  H
  H34      1.0000 0.79610  0.79380  0.30300  Biso   1.000  H
  H35      1.0000 0.28520  0.43380  0.67560  Biso   1.000  H
  H36      1.0000 0.71480  0.93380  0.32440  Biso   1.000  H
  H37      1.0000 0.02430  0.37320  0.63750  Biso   1.000  H
  H38      1.0000 0.97570  0.87320  0.36250  Biso   1.000  H
  O5       1.0000 0.33810  0.83820  0.85780  Biso   1.000  O
  O6       1.0000 0.66190  0.33820  0.14220  Biso   1.000  O
