data_image0
_cell_length_a       7.266
_cell_length_b       13.925
_cell_length_c       30.327
_cell_angle_alpha    90
_cell_angle_beta     90
_cell_angle_gamma    90

_symmetry_space_group_name_H-M    "P 1"
_symmetry_int_tables_number       1

loop_
  _symmetry_equiv_pos_as_xyz
  'x, y, z'

loop_
  _atom_site_label
  _atom_site_occupancy
  _atom_site_fract_x
  _atom_site_fract_y
  _atom_site_fract_z
  _atom_site_thermal_displace_type
  _atom_site_B_iso_or_equiv
  _atom_site_type_symbol
  Cu1      1.0000 0.11022  0.14599  0.13044  Biso   1.000  Cu
  Cu2      1.0000 0.61022  0.14599  0.36956  Biso   1.000  Cu
  Cu3      1.0000 0.11022  0.35401  0.63044  Biso   1.000  Cu
  Cu4      1.0000 0.38978  0.64599  0.13044  Biso   1.000  Cu
  Cu5      1.0000 0.88978  0.85401  0.86956  Biso   1.000  Cu
  Cu6      1.0000 0.38978  0.85401  0.63044  Biso   1.000  Cu
  Cu7      1.0000 0.88978  0.64599  0.36956  Biso   1.000  Cu
  Cu8      1.0000 0.61022  0.35401  0.86956  Biso   1.000  Cu
  N1       1.0000 0.10030  0.19606  0.06788  Biso   1.000  N
  N2       1.0000 0.60030  0.19606  0.43212  Biso   1.000  N
  N3       1.0000 0.10030  0.30394  0.56788  Biso   1.000  N
  N4       1.0000 0.39970  0.69606  0.06788  Biso   1.000  N
  N5       1.0000 0.89970  0.80394  0.93212  Biso   1.000  N
  N6       1.0000 0.39970  0.80394  0.56788  Biso   1.000  N
  N7       1.0000 0.89970  0.69606  0.43212  Biso   1.000  N
  N8       1.0000 0.60030  0.30394  0.93212  Biso   1.000  N
  C1       1.0000 0.08750  0.13390  0.03419  Biso   1.000  C
  C2       1.0000 0.58750  0.13390  0.46581  Biso   1.000  C
  C3       1.0000 0.08750  0.36610  0.53419  Biso   1.000  C
  C4       1.0000 0.41250  0.63390  0.03419  Biso   1.000  C
  C5       1.0000 0.91250  0.86610  0.96581  Biso   1.000  C
  C6       1.0000 0.41250  0.86610  0.53419  Biso   1.000  C
  C7       1.0000 0.91250  0.63390  0.46581  Biso   1.000  C
  C8       1.0000 0.58750  0.36610  0.96581  Biso   1.000  C
  H1       1.0000 0.08170  0.06700  0.04020  Biso   1.000  H
  H2       1.0000 0.58170  0.06700  0.45980  Biso   1.000  H
  H3       1.0000 0.08170  0.43300  0.54020  Biso   1.000  H
  H4       1.0000 0.41830  0.56700  0.04020  Biso   1.000  H
  H5       1.0000 0.91830  0.93300  0.95980  Biso   1.000  H
  H6       1.0000 0.41830  0.93300  0.54020  Biso   1.000  H
  H7       1.0000 0.91830  0.56700  0.45980  Biso   1.000  H
  H8       1.0000 0.58170  0.43300  0.95980  Biso   1.000  H
  C9       1.0000 0.08260  0.16520  0.99085  Biso   1.000  C
  C10      1.0000 0.58260  0.16520  0.50915  Biso   1.000  C
  C11      1.0000 0.08260  0.33480  0.49085  Biso   1.000  C
  C12      1.0000 0.41740  0.66520  0.99085  Biso   1.000  C
  C13      1.0000 0.91740  0.83480  0.00915  Biso   1.000  C
  C14      1.0000 0.41740  0.83480  0.49085  Biso   1.000  C
  C15      1.0000 0.91740  0.66520  0.50915  Biso   1.000  C
  C16      1.0000 0.58260  0.33480  0.00915  Biso   1.000  C
  H9       1.0000 0.07440  0.11980  0.96700  Biso   1.000  H
  H10      1.0000 0.57440  0.11980  0.53300  Biso   1.000  H
  H11      1.0000 0.07440  0.38020  0.46700  Biso   1.000  H
  H12      1.0000 0.42560  0.61980  0.96700  Biso   1.000  H
  H13      1.0000 0.92560  0.88020  0.03300  Biso   1.000  H
  H14      1.0000 0.42560  0.88020  0.46700  Biso   1.000  H
  H15      1.0000 0.92560  0.61980  0.53300  Biso   1.000  H
  H16      1.0000 0.57440  0.38020  0.03300  Biso   1.000  H
  C17      1.0000 0.08920  0.26260  0.98184  Biso   1.000  C
  C18      1.0000 0.58920  0.26260  0.51816  Biso   1.000  C
  C19      1.0000 0.08920  0.23740  0.48184  Biso   1.000  C
  C20      1.0000 0.41080  0.76260  0.98184  Biso   1.000  C
  C21      1.0000 0.91080  0.73740  0.01816  Biso   1.000  C
  C22      1.0000 0.41080  0.73740  0.48184  Biso   1.000  C
  C23      1.0000 0.91080  0.76260  0.51816  Biso   1.000  C
  C24      1.0000 0.58920  0.23740  0.01816  Biso   1.000  C
  H17      1.0000 0.08640  0.28540  0.95230  Biso   1.000  H
  H18      1.0000 0.58640  0.28540  0.54770  Biso   1.000  H
  H19      1.0000 0.08640  0.21460  0.45230  Biso   1.000  H
  H20      1.0000 0.41360  0.78540  0.95230  Biso   1.000  H
  H21      1.0000 0.91360  0.71460  0.04770  Biso   1.000  H
  H22      1.0000 0.41360  0.71460  0.45230  Biso   1.000  H
  H23      1.0000 0.91360  0.78540  0.54770  Biso   1.000  H
  H24      1.0000 0.58640  0.21460  0.04770  Biso   1.000  H
  C25      1.0000 0.09980  0.32580  0.01689  Biso   1.000  C
  C26      1.0000 0.59980  0.32580  0.48311  Biso   1.000  C
  C27      1.0000 0.09980  0.17420  0.51689  Biso   1.000  C
  C28      1.0000 0.40020  0.82580  0.01689  Biso   1.000  C
  C29      1.0000 0.90020  0.67420  0.98311  Biso   1.000  C
  C30      1.0000 0.40020  0.67420  0.51689  Biso   1.000  C
  C31      1.0000 0.90020  0.82580  0.48311  Biso   1.000  C
  C32      1.0000 0.59980  0.17420  0.98311  Biso   1.000  C
  H25      1.0000 0.10280  0.39410  0.01160  Biso   1.000  H
  H26      1.0000 0.60280  0.39410  0.48840  Biso   1.000  H
  H27      1.0000 0.10280  0.10590  0.51160  Biso   1.000  H
  H28      1.0000 0.39720  0.89410  0.01160  Biso   1.000  H
  H29      1.0000 0.89720  0.60590  0.98840  Biso   1.000  H
  H30      1.0000 0.39720  0.60590  0.51160  Biso   1.000  H
  H31      1.0000 0.89720  0.89410  0.48840  Biso   1.000  H
  H32      1.0000 0.60280  0.10590  0.98840  Biso   1.000  H
  C33      1.0000 0.10660  0.29050  0.05945  Biso   1.000  C
  C34      1.0000 0.60660  0.29050  0.44055  Biso   1.000  C
  C35      1.0000 0.10660  0.20950  0.55945  Biso   1.000  C
  C36      1.0000 0.39340  0.79050  0.05945  Biso   1.000  C
  C37      1.0000 0.89340  0.70950  0.94055  Biso   1.000  C
  C38      1.0000 0.39340  0.70950  0.55945  Biso   1.000  C
  C39      1.0000 0.89340  0.79050  0.44055  Biso   1.000  C
  C40      1.0000 0.60660  0.20950  0.94055  Biso   1.000  C
  H33      1.0000 0.11600  0.33430  0.08340  Biso   1.000  H
  H34      1.0000 0.61600  0.33430  0.41660  Biso   1.000  H
  H35      1.0000 0.11600  0.16570  0.58340  Biso   1.000  H
  H36      1.0000 0.38400  0.83430  0.08340  Biso   1.000  H
  H37      1.0000 0.88400  0.66570  0.91660  Biso   1.000  H
  H38      1.0000 0.38400  0.66570  0.58340  Biso   1.000  H
  H39      1.0000 0.88400  0.83430  0.41660  Biso   1.000  H
  H40      1.0000 0.61600  0.16570  0.91660  Biso   1.000  H
  O1       1.0000 0.06540  0.09604  0.95992  Biso   1.000  O
  O2       1.0000 0.56540  0.09604  0.54008  Biso   1.000  O
  O3       1.0000 0.06540  0.40396  0.45992  Biso   1.000  O
  O4       1.0000 0.43460  0.59604  0.95992  Biso   1.000  O
  O5       1.0000 0.93460  0.90396  0.04008  Biso   1.000  O
  O6       1.0000 0.43460  0.90396  0.45992  Biso   1.000  O
  O7       1.0000 0.93460  0.59604  0.54008  Biso   1.000  O
  O8       1.0000 0.56540  0.40396  0.04008  Biso   1.000  O
  H41      1.0000 0.08760  0.11930  0.93490  Biso   1.000  H
  H42      1.0000 0.58760  0.11930  0.56510  Biso   1.000  H
  H43      1.0000 0.08760  0.38070  0.43490  Biso   1.000  H
  H44      1.0000 0.41240  0.61930  0.93490  Biso   1.000  H
  H45      1.0000 0.91240  0.88070  0.06510  Biso   1.000  H
  H46      1.0000 0.41240  0.88070  0.43490  Biso   1.000  H
  H47      1.0000 0.91240  0.61930  0.56510  Biso   1.000  H
  H48      1.0000 0.58760  0.38070  0.06510  Biso   1.000  H
  O9       1.0000 0.13090  0.42140  0.00940  Biso   1.000  O
  O10      1.0000 0.63090  0.42140  0.49060  Biso   1.000  O
  O11      1.0000 0.13090  0.07860  0.50940  Biso   1.000  O
  O12      1.0000 0.36910  0.92140  0.00940  Biso   1.000  O
  O13      1.0000 0.86910  0.57860  0.99060  Biso   1.000  O
  O14      1.0000 0.36910  0.57860  0.50940  Biso   1.000  O
  O15      1.0000 0.86910  0.92140  0.49060  Biso   1.000  O
  O16      1.0000 0.63090  0.07860  0.99060  Biso   1.000  O
  H49      1.0000 0.13920  0.43120  0.98220  Biso   1.000  H
  H50      1.0000 0.63920  0.43120  0.51780  Biso   1.000  H
  H51      1.0000 0.13920  0.06880  0.48220  Biso   1.000  H
  H52      1.0000 0.36080  0.93120  0.98220  Biso   1.000  H
  H53      1.0000 0.86080  0.56880  0.01780  Biso   1.000  H
  H54      1.0000 0.36080  0.56880  0.48220  Biso   1.000  H
  H55      1.0000 0.86080  0.93120  0.51780  Biso   1.000  H
  H56      1.0000 0.63920  0.06880  0.01780  Biso   1.000  H
  N9       1.0000 0.11360  0.09834  0.19294  Biso   1.000  N
  N10      1.0000 0.61360  0.09834  0.30706  Biso   1.000  N
  N11      1.0000 0.11360  0.40166  0.69294  Biso   1.000  N
  N12      1.0000 0.38640  0.59834  0.19294  Biso   1.000  N
  N13      1.0000 0.88640  0.90166  0.80706  Biso   1.000  N
  N14      1.0000 0.38640  0.90166  0.69294  Biso   1.000  N
  N15      1.0000 0.88640  0.59834  0.30706  Biso   1.000  N
  N16      1.0000 0.61360  0.40166  0.80706  Biso   1.000  N
  C41      1.0000 0.06910  0.00640  0.20051  Biso   1.000  C
  C42      1.0000 0.56910  0.00640  0.29949  Biso   1.000  C
  C43      1.0000 0.06910  0.49360  0.70051  Biso   1.000  C
  C44      1.0000 0.43090  0.50640  0.20051  Biso   1.000  C
  C45      1.0000 0.93090  0.99360  0.79949  Biso   1.000  C
  C46      1.0000 0.43090  0.99360  0.70051  Biso   1.000  C
  C47      1.0000 0.93090  0.50640  0.29949  Biso   1.000  C
  C48      1.0000 0.56910  0.49360  0.79949  Biso   1.000  C
  H57      1.0000 0.04190  0.96600  0.17610  Biso   1.000  H
  H58      1.0000 0.54190  0.96600  0.32390  Biso   1.000  H
  H59      1.0000 0.04190  0.53400  0.67610  Biso   1.000  H
  H60      1.0000 0.45810  0.46600  0.17610  Biso   1.000  H
  H61      1.0000 0.95810  0.03400  0.82390  Biso   1.000  H
  H62      1.0000 0.45810  0.03400  0.67610  Biso   1.000  H
  H63      1.0000 0.95810  0.46600  0.32390  Biso   1.000  H
  H64      1.0000 0.54190  0.53400  0.82390  Biso   1.000  H
  C49      1.0000 0.06110  0.96790  0.24258  Biso   1.000  C
  C50      1.0000 0.56110  0.96790  0.25742  Biso   1.000  C
  C51      1.0000 0.06110  0.53210  0.74258  Biso   1.000  C
  C52      1.0000 0.43890  0.46790  0.24258  Biso   1.000  C
  C53      1.0000 0.93890  0.03210  0.75742  Biso   1.000  C
  C54      1.0000 0.43890  0.03210  0.74258  Biso   1.000  C
  C55      1.0000 0.93890  0.46790  0.25742  Biso   1.000  C
  C56      1.0000 0.56110  0.53210  0.75742  Biso   1.000  C
  C57      1.0000 0.10070  0.02810  0.27804  Biso   1.000  C
  C58      1.0000 0.60070  0.02810  0.22196  Biso   1.000  C
  C59      1.0000 0.10070  0.47190  0.77804  Biso   1.000  C
  C60      1.0000 0.39930  0.52810  0.27804  Biso   1.000  C
  C61      1.0000 0.89930  0.97190  0.72196  Biso   1.000  C
  C62      1.0000 0.39930  0.97190  0.77804  Biso   1.000  C
  C63      1.0000 0.89930  0.52810  0.22196  Biso   1.000  C
  C64      1.0000 0.60070  0.47190  0.72196  Biso   1.000  C
  H65      1.0000 0.09420  0.00480  0.30740  Biso   1.000  H
  H66      1.0000 0.59420  0.00480  0.19260  Biso   1.000  H
  H67      1.0000 0.09420  0.49520  0.80740  Biso   1.000  H
  H68      1.0000 0.40580  0.50480  0.30740  Biso   1.000  H
  H69      1.0000 0.90580  0.99520  0.69260  Biso   1.000  H
  H70      1.0000 0.40580  0.99520  0.80740  Biso   1.000  H
  H71      1.0000 0.90580  0.50480  0.19260  Biso   1.000  H
  H72      1.0000 0.59420  0.49520  0.69260  Biso   1.000  H
  C65      1.0000 0.14900  0.12150  0.26978  Biso   1.000  C
  C66      1.0000 0.64900  0.12150  0.23022  Biso   1.000  C
  C67      1.0000 0.14900  0.37850  0.76978  Biso   1.000  C
  C68      1.0000 0.35100  0.62150  0.26978  Biso   1.000  C
  C69      1.0000 0.85100  0.87850  0.73022  Biso   1.000  C
  C70      1.0000 0.35100  0.87850  0.76978  Biso   1.000  C
  C71      1.0000 0.85100  0.62150  0.23022  Biso   1.000  C
  C72      1.0000 0.64900  0.37850  0.73022  Biso   1.000  C
  H73      1.0000 0.17900  0.16300  0.29360  Biso   1.000  H
  H74      1.0000 0.67900  0.16300  0.20640  Biso   1.000  H
  H75      1.0000 0.17900  0.33700  0.79360  Biso   1.000  H
  H76      1.0000 0.32100  0.66300  0.29360  Biso   1.000  H
  H77      1.0000 0.82100  0.83700  0.70640  Biso   1.000  H
  H78      1.0000 0.32100  0.83700  0.79360  Biso   1.000  H
  H79      1.0000 0.82100  0.66300  0.20640  Biso   1.000  H
  H80      1.0000 0.67900  0.33700  0.70640  Biso   1.000  H
  C73      1.0000 0.15440  0.15560  0.22707  Biso   1.000  C
  C74      1.0000 0.65440  0.15560  0.27293  Biso   1.000  C
  C75      1.0000 0.15440  0.34440  0.72707  Biso   1.000  C
  C76      1.0000 0.34560  0.65560  0.22707  Biso   1.000  C
  C77      1.0000 0.84560  0.84440  0.77293  Biso   1.000  C
  C78      1.0000 0.34560  0.84440  0.72707  Biso   1.000  C
  C79      1.0000 0.84560  0.65560  0.27293  Biso   1.000  C
  C80      1.0000 0.65440  0.34440  0.77293  Biso   1.000  C
  H81      1.0000 0.18750  0.22060  0.22180  Biso   1.000  H
  H82      1.0000 0.68750  0.22060  0.27820  Biso   1.000  H
  H83      1.0000 0.18750  0.27940  0.72180  Biso   1.000  H
  H84      1.0000 0.31250  0.72060  0.22180  Biso   1.000  H
  H85      1.0000 0.81250  0.77940  0.77820  Biso   1.000  H
  H86      1.0000 0.31250  0.77940  0.72180  Biso   1.000  H
  H87      1.0000 0.81250  0.72060  0.27820  Biso   1.000  H
  H88      1.0000 0.68750  0.27940  0.77820  Biso   1.000  H
  O17      1.0000 0.01400  0.87448  0.24642  Biso   1.000  O
  O18      1.0000 0.51400  0.87448  0.25358  Biso   1.000  O
  O19      1.0000 0.01400  0.62552  0.74642  Biso   1.000  O
  O20      1.0000 0.48600  0.37448  0.24642  Biso   1.000  O
  O21      1.0000 0.98600  0.12552  0.75358  Biso   1.000  O
  O22      1.0000 0.48600  0.12552  0.74642  Biso   1.000  O
  O23      1.0000 0.98600  0.37448  0.25358  Biso   1.000  O
  O24      1.0000 0.51400  0.62552  0.75358  Biso   1.000  O
  H89      1.0000 0.03280  0.85610  0.27240  Biso   1.000  H
  H90      1.0000 0.53280  0.85610  0.22760  Biso   1.000  H
  H91      1.0000 0.03280  0.64390  0.77240  Biso   1.000  H
  H92      1.0000 0.46720  0.35610  0.27240  Biso   1.000  H
  H93      1.0000 0.96720  0.14390  0.72760  Biso   1.000  H
  H94      1.0000 0.46720  0.14390  0.77240  Biso   1.000  H
  H95      1.0000 0.96720  0.35610  0.22760  Biso   1.000  H
  H96      1.0000 0.53280  0.64390  0.72760  Biso   1.000  H
  N17      1.0000 0.59610  0.02250  0.08212  Biso   1.000  N
  N18      1.0000 0.09610  0.02250  0.41788  Biso   1.000  N
  N19      1.0000 0.59610  0.47750  0.58212  Biso   1.000  N
  N20      1.0000 0.90390  0.52250  0.08212  Biso   1.000  N
  N21      1.0000 0.40390  0.97750  0.91788  Biso   1.000  N
  N22      1.0000 0.90390  0.97750  0.58212  Biso   1.000  N
  N23      1.0000 0.40390  0.52250  0.41788  Biso   1.000  N
  N24      1.0000 0.09610  0.47750  0.91788  Biso   1.000  N
  C81      1.0000 0.73460  0.05710  0.10424  Biso   1.000  C
  C82      1.0000 0.23460  0.05710  0.39576  Biso   1.000  C
  C83      1.0000 0.73460  0.44290  0.60424  Biso   1.000  C
  C84      1.0000 0.76540  0.55710  0.10424  Biso   1.000  C
  C85      1.0000 0.26540  0.94290  0.89576  Biso   1.000  C
  C86      1.0000 0.76540  0.94290  0.60424  Biso   1.000  C
  C87      1.0000 0.26540  0.55710  0.39576  Biso   1.000  C
  C88      1.0000 0.23460  0.44290  0.89576  Biso   1.000  C
  N25      1.0000 0.86520  0.08750  0.11995  Biso   1.000  N
  N26      1.0000 0.36520  0.08750  0.38005  Biso   1.000  N
  N27      1.0000 0.86520  0.41250  0.61995  Biso   1.000  N
  N28      1.0000 0.63480  0.58750  0.11995  Biso   1.000  N
  N29      1.0000 0.13480  0.91250  0.88005  Biso   1.000  N
  N30      1.0000 0.63480  0.91250  0.61995  Biso   1.000  N
  N31      1.0000 0.13480  0.58750  0.38005  Biso   1.000  N
  N32      1.0000 0.36520  0.41250  0.88005  Biso   1.000  N
  C89      1.0000 0.43110  0.01910  0.09899  Biso   1.000  C
  C90      1.0000 0.93110  0.01910  0.40101  Biso   1.000  C
  C91      1.0000 0.43110  0.48090  0.59899  Biso   1.000  C
  C92      1.0000 0.06890  0.51910  0.09899  Biso   1.000  C
  C93      1.0000 0.56890  0.98090  0.90101  Biso   1.000  C
  C94      1.0000 0.06890  0.98090  0.59899  Biso   1.000  C
  C95      1.0000 0.56890  0.51910  0.40101  Biso   1.000  C
  C96      1.0000 0.93110  0.48090  0.90101  Biso   1.000  C
  N33      1.0000 0.28000  0.01270  0.11002  Biso   1.000  N
  N34      1.0000 0.78000  0.01270  0.38998  Biso   1.000  N
  N35      1.0000 0.28000  0.48730  0.61002  Biso   1.000  N
  N36      1.0000 0.22000  0.51270  0.11002  Biso   1.000  N
  N37      1.0000 0.72000  0.98730  0.88998  Biso   1.000  N
  N38      1.0000 0.22000  0.98730  0.61002  Biso   1.000  N
  N39      1.0000 0.72000  0.51270  0.38998  Biso   1.000  N
  N40      1.0000 0.78000  0.48730  0.88998  Biso   1.000  N
  N41      1.0000 0.60750  0.32200  0.12620  Biso   1.000  N
  N42      1.0000 0.10750  0.32200  0.37380  Biso   1.000  N
  N43      1.0000 0.60750  0.17800  0.62620  Biso   1.000  N
  N44      1.0000 0.89250  0.82200  0.12620  Biso   1.000  N
  N45      1.0000 0.39250  0.67800  0.87380  Biso   1.000  N
  N46      1.0000 0.89250  0.67800  0.62620  Biso   1.000  N
  N47      1.0000 0.39250  0.82200  0.37380  Biso   1.000  N
  N48      1.0000 0.10750  0.17800  0.87380  Biso   1.000  N
  C97      1.0000 0.46450  0.27030  0.13617  Biso   1.000  C
  C98      1.0000 0.96450  0.27030  0.36383  Biso   1.000  C
  C99      1.0000 0.46450  0.22970  0.63617  Biso   1.000  C
  C100     1.0000 0.03550  0.77030  0.13617  Biso   1.000  C
  C101     1.0000 0.53550  0.72970  0.86383  Biso   1.000  C
  C102     1.0000 0.03550  0.72970  0.63617  Biso   1.000  C
  C103     1.0000 0.53550  0.77030  0.36383  Biso   1.000  C
  C104     1.0000 0.96450  0.22970  0.86383  Biso   1.000  C
  N49      1.0000 0.32800  0.22930  0.14094  Biso   1.000  N
  N50      1.0000 0.82800  0.22930  0.35906  Biso   1.000  N
  N51      1.0000 0.32800  0.27070  0.64094  Biso   1.000  N
  N52      1.0000 0.17200  0.72930  0.14094  Biso   1.000  N
  N53      1.0000 0.67200  0.77070  0.85906  Biso   1.000  N
  N54      1.0000 0.17200  0.77070  0.64094  Biso   1.000  N
  N55      1.0000 0.67200  0.72930  0.35906  Biso   1.000  N
  N56      1.0000 0.82800  0.27070  0.85906  Biso   1.000  N
  C105     1.0000 0.76220  0.31430  0.14901  Biso   1.000  C
  C106     1.0000 0.26220  0.31430  0.35099  Biso   1.000  C
  C107     1.0000 0.76220  0.18570  0.64901  Biso   1.000  C
  C108     1.0000 0.73780  0.81430  0.14901  Biso   1.000  C
  C109     1.0000 0.23780  0.68570  0.85099  Biso   1.000  C
  C110     1.0000 0.73780  0.68570  0.64901  Biso   1.000  C
  C111     1.0000 0.23780  0.81430  0.35099  Biso   1.000  C
  C112     1.0000 0.26220  0.18570  0.85099  Biso   1.000  C
  N57      1.0000 0.90380  0.31230  0.16638  Biso   1.000  N
  N58      1.0000 0.40380  0.31230  0.33362  Biso   1.000  N
  N59      1.0000 0.90380  0.18770  0.66638  Biso   1.000  N
  N60      1.0000 0.59620  0.81230  0.16638  Biso   1.000  N
  N61      1.0000 0.09620  0.68770  0.83362  Biso   1.000  N
  N62      1.0000 0.59620  0.68770  0.66638  Biso   1.000  N
  N63      1.0000 0.09620  0.81230  0.33362  Biso   1.000  N
  N64      1.0000 0.40380  0.18770  0.83362  Biso   1.000  N
