data_image0
_cell_length_a       12.923
_cell_length_b       8.9349
_cell_length_c       13.133
_cell_angle_alpha    90
_cell_angle_beta     101.9
_cell_angle_gamma    90

_symmetry_space_group_name_H-M    "P 1"
_symmetry_int_tables_number       1

loop_
  _symmetry_equiv_pos_as_xyz
  'x, y, z'

loop_
  _atom_site_label
  _atom_site_occupancy
  _atom_site_fract_x
  _atom_site_fract_y
  _atom_site_fract_z
  _atom_site_thermal_displace_type
  _atom_site_B_iso_or_equiv
  _atom_site_type_symbol
  Cu1      1.0000 0.33227  0.99343  0.25809  Biso   1.000  Cu
  Cu2      1.0000 0.16773  0.49343  0.24191  Biso   1.000  Cu
  Cu3      1.0000 0.66773  0.00657  0.74191  Biso   1.000  Cu
  Cu4      1.0000 0.83227  0.50657  0.75809  Biso   1.000  Cu
  O1       1.0000 0.56280  0.68120  0.98180  Biso   1.000  O
  O2       1.0000 0.93720  0.18120  0.51820  Biso   1.000  O
  O3       1.0000 0.43720  0.31880  0.01820  Biso   1.000  O
  O4       1.0000 0.06280  0.81880  0.48180  Biso   1.000  O
  O5       1.0000 0.46800  0.59100  0.83390  Biso   1.000  O
  O6       1.0000 0.03200  0.09100  0.66610  Biso   1.000  O
  O7       1.0000 0.53200  0.40900  0.16610  Biso   1.000  O
  O8       1.0000 0.96800  0.90900  0.33390  Biso   1.000  O
  N1       1.0000 0.46920  0.96250  0.16810  Biso   1.000  N
  N2       1.0000 0.03080  0.46250  0.33190  Biso   1.000  N
  N3       1.0000 0.53080  0.03750  0.83190  Biso   1.000  N
  N4       1.0000 0.96920  0.53750  0.66810  Biso   1.000  N
  N5       1.0000 0.56020  0.96700  0.22930  Biso   1.000  N
  N6       1.0000 0.93980  0.46700  0.27070  Biso   1.000  N
  N7       1.0000 0.43980  0.03300  0.77070  Biso   1.000  N
  N8       1.0000 0.06020  0.53300  0.72930  Biso   1.000  N
  N9       1.0000 0.47200  0.87730  0.08500  Biso   1.000  N
  N10      1.0000 0.02800  0.37730  0.41500  Biso   1.000  N
  N11      1.0000 0.52800  0.12270  0.91500  Biso   1.000  N
  N12      1.0000 0.97200  0.62270  0.58500  Biso   1.000  N
  N13      1.0000 0.46770  0.08080  0.34680  Biso   1.000  N
  N14      1.0000 0.03230  0.58080  0.15320  Biso   1.000  N
  N15      1.0000 0.53230  0.91920  0.65320  Biso   1.000  N
  N16      1.0000 0.96770  0.41920  0.84680  Biso   1.000  N
  C1       1.0000 0.47010  0.16500  0.43140  Biso   1.000  C
  C2       1.0000 0.02990  0.66500  0.06860  Biso   1.000  C
  C3       1.0000 0.52990  0.83500  0.56860  Biso   1.000  C
  C4       1.0000 0.97010  0.33500  0.93140  Biso   1.000  C
  H1       1.0000 0.40620  0.19160  0.44850  Biso   1.000  H
  H2       1.0000 0.09380  0.69160  0.05150  Biso   1.000  H
  H3       1.0000 0.59380  0.80840  0.55150  Biso   1.000  H
  H4       1.0000 0.90620  0.30840  0.94850  Biso   1.000  H
  C5       1.0000 0.56200  0.21410  0.49420  Biso   1.000  C
  C6       1.0000 0.93800  0.71410  0.00580  Biso   1.000  C
  C7       1.0000 0.43800  0.78590  0.50580  Biso   1.000  C
  C8       1.0000 0.06200  0.28590  0.99420  Biso   1.000  C
  H5       1.0000 0.56070  0.27140  0.55300  Biso   1.000  H
  H6       1.0000 0.93930  0.77140  0.94700  Biso   1.000  H
  H7       1.0000 0.43930  0.72860  0.44700  Biso   1.000  H
  H8       1.0000 0.06070  0.22860  0.05300  Biso   1.000  H
  C9       1.0000 0.65650  0.17640  0.46770  Biso   1.000  C
  C10      1.0000 0.84350  0.67640  0.03230  Biso   1.000  C
  C11      1.0000 0.34350  0.82360  0.53230  Biso   1.000  C
  C12      1.0000 0.15650  0.32360  0.96770  Biso   1.000  C
  H9       1.0000 0.72020  0.20800  0.50870  Biso   1.000  H
  H10      1.0000 0.77980  0.70800  0.99130  Biso   1.000  H
  H11      1.0000 0.27980  0.79200  0.49130  Biso   1.000  H
  H12      1.0000 0.22020  0.29200  0.00870  Biso   1.000  H
  C13      1.0000 0.65550  0.09200  0.38070  Biso   1.000  C
  C14      1.0000 0.84450  0.59200  0.11930  Biso   1.000  C
  C15      1.0000 0.34450  0.90800  0.61930  Biso   1.000  C
  C16      1.0000 0.15550  0.40800  0.88070  Biso   1.000  C
  H13      1.0000 0.71850  0.06300  0.36270  Biso   1.000  H
  H14      1.0000 0.78150  0.56300  0.13730  Biso   1.000  H
  H15      1.0000 0.28150  0.93700  0.63730  Biso   1.000  H
  H16      1.0000 0.21850  0.43700  0.86270  Biso   1.000  H
  C17      1.0000 0.56000  0.05100  0.32030  Biso   1.000  C
  C18      1.0000 0.94000  0.55100  0.17970  Biso   1.000  C
  C19      1.0000 0.44000  0.94900  0.67970  Biso   1.000  C
  C20      1.0000 0.06000  0.44900  0.82030  Biso   1.000  C
  C21      1.0000 0.38170  0.86370  0.00510  Biso   1.000  C
  C22      1.0000 0.11830  0.36370  0.49490  Biso   1.000  C
  C23      1.0000 0.61830  0.13630  0.99490  Biso   1.000  C
  C24      1.0000 0.88170  0.63630  0.50510  Biso   1.000  C
  C25      1.0000 0.29210  0.94930  0.00400  Biso   1.000  C
  C26      1.0000 0.20790  0.44930  0.49600  Biso   1.000  C
  C27      1.0000 0.70790  0.05070  0.99600  Biso   1.000  C
  C28      1.0000 0.79210  0.55070  0.50400  Biso   1.000  C
  H17      1.0000 0.29120  0.01880  0.05650  Biso   1.000  H
  H18      1.0000 0.20880  0.51880  0.44350  Biso   1.000  H
  H19      1.0000 0.70880  0.98120  0.94350  Biso   1.000  H
  H20      1.0000 0.79120  0.48120  0.55650  Biso   1.000  H
  C29      1.0000 0.20410  0.93150  0.92510  Biso   1.000  C
  C30      1.0000 0.29590  0.43150  0.57490  Biso   1.000  C
  C31      1.0000 0.79590  0.06850  0.07490  Biso   1.000  C
  C32      1.0000 0.70410  0.56850  0.42510  Biso   1.000  C
  H21      1.0000 0.14430  0.98950  0.92470  Biso   1.000  H
  H22      1.0000 0.35570  0.48950  0.57530  Biso   1.000  H
  H23      1.0000 0.85570  0.01050  0.07530  Biso   1.000  H
  H24      1.0000 0.64430  0.51050  0.42470  Biso   1.000  H
  C33      1.0000 0.20430  0.82790  0.84660  Biso   1.000  C
  C34      1.0000 0.29570  0.32790  0.65340  Biso   1.000  C
  C35      1.0000 0.79570  0.17210  0.15340  Biso   1.000  C
  C36      1.0000 0.70430  0.67210  0.34660  Biso   1.000  C
  H25      1.0000 0.14430  0.81420  0.79450  Biso   1.000  H
  H26      1.0000 0.35570  0.31420  0.70550  Biso   1.000  H
  H27      1.0000 0.85570  0.18580  0.20550  Biso   1.000  H
  H28      1.0000 0.64430  0.68580  0.29450  Biso   1.000  H
  C37      1.0000 0.29350  0.74640  0.84660  Biso   1.000  C
  C38      1.0000 0.20650  0.24640  0.65340  Biso   1.000  C
  C39      1.0000 0.70650  0.25360  0.15340  Biso   1.000  C
  C40      1.0000 0.79350  0.75360  0.34660  Biso   1.000  C
  H29      1.0000 0.29370  0.67850  0.79290  Biso   1.000  H
  H30      1.0000 0.20630  0.17850  0.70710  Biso   1.000  H
  H31      1.0000 0.70630  0.32150  0.20710  Biso   1.000  H
  H32      1.0000 0.79370  0.82150  0.29290  Biso   1.000  H
  C41      1.0000 0.38370  0.76120  0.92370  Biso   1.000  C
  C42      1.0000 0.11630  0.26120  0.57630  Biso   1.000  C
  C43      1.0000 0.61630  0.23880  0.07630  Biso   1.000  C
  C44      1.0000 0.88370  0.73880  0.42370  Biso   1.000  C
  C45      1.0000 0.48050  0.67550  0.91810  Biso   1.000  C
  C46      1.0000 0.01950  0.17550  0.58190  Biso   1.000  C
  C47      1.0000 0.51950  0.32450  0.08190  Biso   1.000  C
  C48      1.0000 0.98050  0.82450  0.41810  Biso   1.000  C
  C49      1.0000 0.55970  0.50900  0.81720  Biso   1.000  C
  C50      1.0000 0.94030  0.00900  0.68280  Biso   1.000  C
  C51      1.0000 0.44030  0.49100  0.18280  Biso   1.000  C
  C52      1.0000 0.05970  0.99100  0.31720  Biso   1.000  C
  H33      1.0000 0.54130  0.45230  0.75390  Biso   1.000  H
  H34      1.0000 0.95870  0.95230  0.74610  Biso   1.000  H
  H35      1.0000 0.45870  0.54770  0.24610  Biso   1.000  H
  H36      1.0000 0.04130  0.04770  0.25390  Biso   1.000  H
  H37      1.0000 0.58330  0.44220  0.87460  Biso   1.000  H
  H38      1.0000 0.91670  0.94220  0.62540  Biso   1.000  H
  H39      1.0000 0.41670  0.55780  0.12540  Biso   1.000  H
  H40      1.0000 0.08330  0.05780  0.37460  Biso   1.000  H
  H41      1.0000 0.61530  0.57800  0.81210  Biso   1.000  H
  H42      1.0000 0.88470  0.07800  0.68790  Biso   1.000  H
  H43      1.0000 0.38470  0.42200  0.18790  Biso   1.000  H
  H44      1.0000 0.11530  0.92200  0.31210  Biso   1.000  H
  C53      1.0000 0.25060  0.17500  0.23630  Biso   1.000  C
  C54      1.0000 0.24940  0.67500  0.26370  Biso   1.000  C
  C55      1.0000 0.74940  0.82500  0.76370  Biso   1.000  C
  C56      1.0000 0.75060  0.32500  0.73630  Biso   1.000  C
  N17      1.0000 0.21820  0.28880  0.23980  Biso   1.000  N
  N18      1.0000 0.28180  0.78880  0.26020  Biso   1.000  N
  N19      1.0000 0.78180  0.71120  0.76020  Biso   1.000  N
  N20      1.0000 0.71820  0.21120  0.73980  Biso   1.000  N
