data_image0
_cell_length_a       23.485
_cell_length_b       23.485
_cell_length_c       8.995
_cell_angle_alpha    90
_cell_angle_beta     90
_cell_angle_gamma    90

_symmetry_space_group_name_H-M    "P 1"
_symmetry_int_tables_number       1

loop_
  _symmetry_equiv_pos_as_xyz
  'x, y, z'

loop_
  _atom_site_label
  _atom_site_occupancy
  _atom_site_fract_x
  _atom_site_fract_y
  _atom_site_fract_z
  _atom_site_thermal_displace_type
  _atom_site_B_iso_or_equiv
  _atom_site_type_symbol
  Cu1      1.0000 0.82336  0.82336  0.50000  Biso   1.000  Cu
  Cu2      1.0000 0.67664  0.32336  0.00000  Biso   1.000  Cu
  Cu3      1.0000 0.17664  0.17664  0.50000  Biso   1.000  Cu
  Cu4      1.0000 0.32336  0.67664  0.00000  Biso   1.000  Cu
  Cl1      1.0000 0.76793  0.87914  0.28000  Biso   1.000  Cl
  Cl2      1.0000 0.62086  0.26793  0.78000  Biso   1.000  Cl
  Cl3      1.0000 0.23207  0.12086  0.28000  Biso   1.000  Cl
  Cl4      1.0000 0.37914  0.73207  0.78000  Biso   1.000  Cl
  Cl5      1.0000 0.73207  0.37914  0.22000  Biso   1.000  Cl
  Cl6      1.0000 0.87914  0.76793  0.72000  Biso   1.000  Cl
  Cl7      1.0000 0.26793  0.62086  0.22000  Biso   1.000  Cl
  Cl8      1.0000 0.12086  0.23207  0.72000  Biso   1.000  Cl
  O1       1.0000 0.85917  0.04130  0.54400  Biso   1.000  O
  O2       1.0000 0.45870  0.35917  0.04400  Biso   1.000  O
  O3       1.0000 0.14083  0.95870  0.54400  Biso   1.000  O
  O4       1.0000 0.54130  0.64083  0.04400  Biso   1.000  O
  O5       1.0000 0.64083  0.54130  0.95600  Biso   1.000  O
  O6       1.0000 0.04130  0.85917  0.45600  Biso   1.000  O
  O7       1.0000 0.35917  0.45870  0.95600  Biso   1.000  O
  O8       1.0000 0.95870  0.14083  0.45600  Biso   1.000  O
  O9       1.0000 0.81727  0.20644  0.67110  Biso   1.000  O
  O10      1.0000 0.29356  0.31727  0.17110  Biso   1.000  O
  O11      1.0000 0.18273  0.79356  0.67110  Biso   1.000  O
  O12      1.0000 0.70644  0.68273  0.17110  Biso   1.000  O
  O13      1.0000 0.68273  0.70644  0.82890  Biso   1.000  O
  O14      1.0000 0.20644  0.81727  0.32890  Biso   1.000  O
  O15      1.0000 0.31727  0.29356  0.82890  Biso   1.000  O
  O16      1.0000 0.79356  0.18273  0.32890  Biso   1.000  O
  N1       1.0000 0.83843  0.89376  0.62110  Biso   1.000  N
  N2       1.0000 0.60624  0.33843  0.12110  Biso   1.000  N
  N3       1.0000 0.16157  0.10624  0.62110  Biso   1.000  N
  N4       1.0000 0.39376  0.66157  0.12110  Biso   1.000  N
  N5       1.0000 0.66157  0.39376  0.87890  Biso   1.000  N
  N6       1.0000 0.89376  0.83843  0.37890  Biso   1.000  N
  N7       1.0000 0.33843  0.60624  0.87890  Biso   1.000  N
  N8       1.0000 0.10624  0.16157  0.37890  Biso   1.000  N
  N9       1.0000 0.75196  0.31230  0.89390  Biso   1.000  N
  N10      1.0000 0.18770  0.25196  0.39390  Biso   1.000  N
  N11      1.0000 0.24804  0.68770  0.89390  Biso   1.000  N
  N12      1.0000 0.81230  0.74804  0.39390  Biso   1.000  N
  N13      1.0000 0.74804  0.81230  0.60610  Biso   1.000  N
  N14      1.0000 0.31230  0.75196  0.10610  Biso   1.000  N
  N15      1.0000 0.25196  0.18770  0.60610  Biso   1.000  N
  N16      1.0000 0.68770  0.24804  0.10610  Biso   1.000  N
  C1       1.0000 0.83590  0.89341  0.76720  Biso   1.000  C
  C2       1.0000 0.60659  0.33590  0.26720  Biso   1.000  C
  C3       1.0000 0.16410  0.10659  0.76720  Biso   1.000  C
  C4       1.0000 0.39341  0.66410  0.26720  Biso   1.000  C
  C5       1.0000 0.66410  0.39341  0.73280  Biso   1.000  C
  C6       1.0000 0.89341  0.83590  0.23280  Biso   1.000  C
  C7       1.0000 0.33590  0.60659  0.73280  Biso   1.000  C
  C8       1.0000 0.10659  0.16410  0.23280  Biso   1.000  C
  C9       1.0000 0.84580  0.93989  0.85660  Biso   1.000  C
  C10      1.0000 0.56011  0.34580  0.35660  Biso   1.000  C
  C11      1.0000 0.15420  0.06011  0.85660  Biso   1.000  C
  C12      1.0000 0.43989  0.65420  0.35660  Biso   1.000  C
  C13      1.0000 0.65420  0.43989  0.64340  Biso   1.000  C
  C14      1.0000 0.93989  0.84580  0.14340  Biso   1.000  C
  C15      1.0000 0.34580  0.56011  0.64340  Biso   1.000  C
  C16      1.0000 0.06011  0.15420  0.14340  Biso   1.000  C
  C17      1.0000 0.85310  0.99292  0.78620  Biso   1.000  C
  C18      1.0000 0.50708  0.35310  0.28620  Biso   1.000  C
  C19      1.0000 0.14690  0.00708  0.78620  Biso   1.000  C
  C20      1.0000 0.49292  0.64690  0.28620  Biso   1.000  C
  C21      1.0000 0.64690  0.49292  0.71380  Biso   1.000  C
  C22      1.0000 0.99292  0.85310  0.21380  Biso   1.000  C
  C23      1.0000 0.35310  0.50708  0.71380  Biso   1.000  C
  C24      1.0000 0.00708  0.14690  0.21380  Biso   1.000  C
  C25      1.0000 0.85255  0.99474  0.62670  Biso   1.000  C
  C26      1.0000 0.50526  0.35255  0.12670  Biso   1.000  C
  C27      1.0000 0.14745  0.00526  0.62670  Biso   1.000  C
  C28      1.0000 0.49474  0.64745  0.12670  Biso   1.000  C
  C29      1.0000 0.64745  0.49474  0.87330  Biso   1.000  C
  C30      1.0000 0.99474  0.85255  0.37330  Biso   1.000  C
  C31      1.0000 0.35255  0.50526  0.87330  Biso   1.000  C
  C32      1.0000 0.00526  0.14745  0.37330  Biso   1.000  C
  C33      1.0000 0.84649  0.94401  0.55320  Biso   1.000  C
  C34      1.0000 0.55599  0.34649  0.05320  Biso   1.000  C
  C35      1.0000 0.15351  0.05599  0.55320  Biso   1.000  C
  C36      1.0000 0.44401  0.65351  0.05320  Biso   1.000  C
  C37      1.0000 0.65351  0.44401  0.94680  Biso   1.000  C
  C38      1.0000 0.94401  0.84649  0.44680  Biso   1.000  C
  C39      1.0000 0.34649  0.55599  0.94680  Biso   1.000  C
  C40      1.0000 0.05599  0.15351  0.44680  Biso   1.000  C
  C41      1.0000 0.86402  0.09232  0.61580  Biso   1.000  C
  C42      1.0000 0.40768  0.36402  0.11580  Biso   1.000  C
  C43      1.0000 0.13598  0.90768  0.61580  Biso   1.000  C
  C44      1.0000 0.59232  0.63598  0.11580  Biso   1.000  C
  C45      1.0000 0.63598  0.59232  0.88420  Biso   1.000  C
  C46      1.0000 0.09232  0.86402  0.38420  Biso   1.000  C
  C47      1.0000 0.36402  0.40768  0.88420  Biso   1.000  C
  C48      1.0000 0.90768  0.13598  0.38420  Biso   1.000  C
  C49      1.0000 0.85881  0.14119  0.50000  Biso   1.000  C
  C50      1.0000 0.35881  0.35881  0.00000  Biso   1.000  C
  C51      1.0000 0.14119  0.85881  0.50000  Biso   1.000  C
  C52      1.0000 0.64119  0.64119  0.00000  Biso   1.000  C
  C53      1.0000 0.79080  0.35610  0.89390  Biso   1.000  C
  C54      1.0000 0.14390  0.29080  0.39390  Biso   1.000  C
  C55      1.0000 0.20920  0.64390  0.89390  Biso   1.000  C
  C56      1.0000 0.85610  0.70920  0.39390  Biso   1.000  C
  C57      1.0000 0.70920  0.85610  0.60610  Biso   1.000  C
  C58      1.0000 0.35610  0.79080  0.10610  Biso   1.000  C
  C59      1.0000 0.29080  0.14390  0.60610  Biso   1.000  C
  C60      1.0000 0.64390  0.20920  0.10610  Biso   1.000  C
  C61      1.0000 0.83930  0.35080  0.81000  Biso   1.000  C
  C62      1.0000 0.14920  0.33930  0.31000  Biso   1.000  C
  C63      1.0000 0.16070  0.64920  0.81000  Biso   1.000  C
  C64      1.0000 0.85080  0.66070  0.31000  Biso   1.000  C
  C65      1.0000 0.66070  0.85080  0.69000  Biso   1.000  C
  C66      1.0000 0.35080  0.83930  0.19000  Biso   1.000  C
  C67      1.0000 0.33930  0.14920  0.69000  Biso   1.000  C
  C68      1.0000 0.64920  0.16070  0.19000  Biso   1.000  C
  C69      1.0000 0.85055  0.30017  0.73110  Biso   1.000  C
  C70      1.0000 0.19983  0.35055  0.23110  Biso   1.000  C
  C71      1.0000 0.14945  0.69983  0.73110  Biso   1.000  C
  C72      1.0000 0.80017  0.64945  0.23110  Biso   1.000  C
  C73      1.0000 0.64945  0.80017  0.76890  Biso   1.000  C
  C74      1.0000 0.30017  0.85055  0.26890  Biso   1.000  C
  C75      1.0000 0.35055  0.19983  0.76890  Biso   1.000  C
  C76      1.0000 0.69983  0.14945  0.26890  Biso   1.000  C
  C77      1.0000 0.81391  0.25842  0.73990  Biso   1.000  C
  C78      1.0000 0.24158  0.31391  0.23990  Biso   1.000  C
  C79      1.0000 0.18609  0.74158  0.73990  Biso   1.000  C
  C80      1.0000 0.75842  0.68609  0.23990  Biso   1.000  C
  C81      1.0000 0.68609  0.75842  0.76010  Biso   1.000  C
  C82      1.0000 0.25842  0.81391  0.26010  Biso   1.000  C
  C83      1.0000 0.31391  0.24158  0.76010  Biso   1.000  C
  C84      1.0000 0.74158  0.18609  0.26010  Biso   1.000  C
  C85      1.0000 0.76230  0.26603  0.82310  Biso   1.000  C
  C86      1.0000 0.23397  0.26230  0.32310  Biso   1.000  C
  C87      1.0000 0.23770  0.73397  0.82310  Biso   1.000  C
  C88      1.0000 0.76603  0.73770  0.32310  Biso   1.000  C
  C89      1.0000 0.73770  0.76603  0.67690  Biso   1.000  C
  C90      1.0000 0.26603  0.76230  0.17690  Biso   1.000  C
  C91      1.0000 0.26230  0.23397  0.67690  Biso   1.000  C
  C92      1.0000 0.73397  0.23770  0.17690  Biso   1.000  C
  C93      1.0000 0.86702  0.19791  0.57300  Biso   1.000  C
  C94      1.0000 0.30209  0.36702  0.07300  Biso   1.000  C
  C95      1.0000 0.13298  0.80209  0.57300  Biso   1.000  C
  C96      1.0000 0.69791  0.63298  0.07300  Biso   1.000  C
  C97      1.0000 0.63298  0.69791  0.92700  Biso   1.000  C
  C98      1.0000 0.19791  0.86702  0.42700  Biso   1.000  C
  C99      1.0000 0.36702  0.30209  0.92700  Biso   1.000  C
  C100     1.0000 0.80209  0.13298  0.42700  Biso   1.000  C
