data_image0
_cell_length_a       8.66
_cell_length_b       13.717
_cell_length_c       19.526
_cell_angle_alpha    105.7
_cell_angle_beta     93.02
_cell_angle_gamma    99.44

_symmetry_space_group_name_H-M    "P 1"
_symmetry_int_tables_number       1

loop_
  _symmetry_equiv_pos_as_xyz
  'x, y, z'

loop_
  _atom_site_label
  _atom_site_occupancy
  _atom_site_fract_x
  _atom_site_fract_y
  _atom_site_fract_z
  _atom_site_thermal_displace_type
  _atom_site_B_iso_or_equiv
  _atom_site_type_symbol
  Cu1      1.0000 0.50000  0.00000  0.50000  Biso   1.000  Cu
  Cu2      1.0000 0.48472  0.48341  0.77133  Biso   1.000  Cu
  Cu3      1.0000 0.51528  0.51659  0.22867  Biso   1.000  Cu
  Cu4      1.0000 0.50000  0.00000  0.00000  Biso   1.000  Cu
  F1       1.0000 0.97000  0.27111  0.47377  Biso   1.000  F
  F2       1.0000 0.03000  0.72889  0.52623  Biso   1.000  F
  F3       1.0000 0.03910  0.12347  0.45841  Biso   1.000  F
  F4       1.0000 0.96090  0.87653  0.54159  Biso   1.000  F
  F5       1.0000 0.96100  0.16915  0.36725  Biso   1.000  F
  F6       1.0000 0.03900  0.83085  0.63275  Biso   1.000  F
  F7       1.0000 0.45540  0.19535  0.30152  Biso   1.000  F
  F8       1.0000 0.54460  0.80465  0.69848  Biso   1.000  F
  F9       1.0000 0.26780  0.07544  0.30900  Biso   1.000  F
  F10      1.0000 0.73220  0.92456  0.69100  Biso   1.000  F
  F11      1.0000 0.30690  0.22333  0.38737  Biso   1.000  F
  F12      1.0000 0.69310  0.77667  0.61263  Biso   1.000  F
  F13      1.0000 0.24300  0.62249  0.61834  Biso   1.000  F
  F14      1.0000 0.75700  0.37751  0.38166  Biso   1.000  F
  F15      1.0000 0.41190  0.60275  0.54062  Biso   1.000  F
  F16      1.0000 0.58810  0.39725  0.45938  Biso   1.000  F
  F17      1.0000 0.24660  0.47101  0.54879  Biso   1.000  F
  F18      1.0000 0.75340  0.52899  0.45121  Biso   1.000  F
  F19      1.0000 0.98560  0.53160  0.70350  Biso   1.000  F
  F20      1.0000 0.01440  0.46840  0.29650  Biso   1.000  F
  F21      1.0000 0.91190  0.54010  0.59937  Biso   1.000  F
  F22      1.0000 0.08810  0.45990  0.40063  Biso   1.000  F
  F23      1.0000 0.87510  0.39628  0.62309  Biso   1.000  F
  F24      1.0000 0.12490  0.60372  0.37691  Biso   1.000  F
  F25      1.0000 0.05780  0.53473  0.90075  Biso   1.000  F
  F26      1.0000 0.94220  0.46527  0.09925  Biso   1.000  F
  F27      1.0000 0.97330  0.38956  0.82332  Biso   1.000  F
  F28      1.0000 0.02670  0.61044  0.17668  Biso   1.000  F
  F29      1.0000 0.04420  0.39597  0.93209  Biso   1.000  F
  F30      1.0000 0.95580  0.60403  0.06791  Biso   1.000  F
  F31      1.0000 0.72920  0.43162  0.96976  Biso   1.000  F
  F32      1.0000 0.27080  0.56838  0.03024  Biso   1.000  F
  F33      1.0000 0.67670  0.28401  0.89487  Biso   1.000  F
  F34      1.0000 0.32330  0.71599  0.10513  Biso   1.000  F
  F35      1.0000 0.53600  0.32190  0.98248  Biso   1.000  F
  F36      1.0000 0.46400  0.67810  0.01752  Biso   1.000  F
  F37      1.0000 0.31150  0.13499  0.82248  Biso   1.000  F
  F38      1.0000 0.68850  0.86501  0.17752  Biso   1.000  F
  F39      1.0000 0.45390  0.06068  0.74452  Biso   1.000  F
  F40      1.0000 0.54610  0.93932  0.25548  Biso   1.000  F
  F41      1.0000 0.26700  0.96967  0.78121  Biso   1.000  F
  F42      1.0000 0.73300  0.03033  0.21879  Biso   1.000  F
  F43      1.0000 0.00810  0.18046  0.93620  Biso   1.000  F
  F44      1.0000 0.99190  0.81954  0.06380  Biso   1.000  F
  F45      1.0000 0.95980  0.07480  0.83154  Biso   1.000  F
  F46      1.0000 0.04020  0.92520  0.16846  Biso   1.000  F
  F47      1.0000 0.02160  0.02481  0.92132  Biso   1.000  F
  F48      1.0000 0.97840  0.97519  0.07868  Biso   1.000  F
  O1       1.0000 0.41230  0.06309  0.43136  Biso   1.000  O
  O2       1.0000 0.58770  0.93691  0.56864  Biso   1.000  O
  O3       1.0000 0.74680  0.07777  0.48679  Biso   1.000  O
  O4       1.0000 0.25320  0.92223  0.51321  Biso   1.000  O
  O5       1.0000 0.38490  0.52446  0.69530  Biso   1.000  O
  O6       1.0000 0.61510  0.47554  0.30470  Biso   1.000  O
  O7       1.0000 0.68770  0.49184  0.73225  Biso   1.000  O
  O8       1.0000 0.31230  0.50816  0.26775  Biso   1.000  O
  O9       1.0000 0.27960  0.47099  0.80876  Biso   1.000  O
  O10      1.0000 0.72040  0.52901  0.19124  Biso   1.000  O
  O11      1.0000 0.57950  0.43384  0.84422  Biso   1.000  O
  O12      1.0000 0.42050  0.56616  0.15578  Biso   1.000  O
  O13      1.0000 0.41750  0.03872  0.91760  Biso   1.000  O
  O14      1.0000 0.58250  0.96128  0.08240  Biso   1.000  O
  O15      1.0000 0.74630  0.06044  0.97527  Biso   1.000  O
  O16      1.0000 0.25370  0.93956  0.02473  Biso   1.000  O
  N1       1.0000 0.48130  0.12541  0.58116  Biso   1.000  N
  N2       1.0000 0.51870  0.87459  0.41884  Biso   1.000  N
  N3       1.0000 0.44560  0.29500  0.69222  Biso   1.000  N
  N4       1.0000 0.55440  0.70500  0.30778  Biso   1.000  N
  N5       1.0000 0.52950  0.66650  0.84429  Biso   1.000  N
  N6       1.0000 0.47050  0.33350  0.15571  Biso   1.000  N
  N7       1.0000 0.51160  0.85872  0.93465  Biso   1.000  N
  N8       1.0000 0.48840  0.14128  0.06535  Biso   1.000  N
  C1       1.0000 0.32710  0.24620  0.64109  Biso   1.000  C
  C2       1.0000 0.67290  0.75380  0.35891  Biso   1.000  C
  C3       1.0000 0.34710  0.16220  0.58476  Biso   1.000  C
  C4       1.0000 0.65290  0.83780  0.41524  Biso   1.000  C
  C5       1.0000 0.59810  0.17270  0.63353  Biso   1.000  C
  C6       1.0000 0.40190  0.82730  0.36647  Biso   1.000  C
  C7       1.0000 0.58000  0.25750  0.68774  Biso   1.000  C
  C8       1.0000 0.42000  0.74250  0.31226  Biso   1.000  C
  C9       1.0000 0.16910  0.27890  0.64778  Biso   1.000  C
  C10      1.0000 0.83090  0.72110  0.35222  Biso   1.000  C
  C11      1.0000 0.06890  0.22130  0.69193  Biso   1.000  C
  C12      1.0000 0.93110  0.77870  0.30807  Biso   1.000  C
  C13      1.0000 0.02460  0.10570  0.65840  Biso   1.000  C
  C14      1.0000 0.97540  0.89430  0.34160  Biso   1.000  C
  C15      1.0000 0.65260  0.72160  0.89089  Biso   1.000  C
  C16      1.0000 0.34740  0.27840  0.10911  Biso   1.000  C
  C17      1.0000 0.64130  0.81780  0.93654  Biso   1.000  C
  C18      1.0000 0.35870  0.18220  0.06346  Biso   1.000  C
  C19      1.0000 0.39050  0.80350  0.88694  Biso   1.000  C
  C20      1.0000 0.60950  0.19650  0.11306  Biso   1.000  C
  C21      1.0000 0.39930  0.70770  0.84299  Biso   1.000  C
  C22      1.0000 0.60070  0.29230  0.15701  Biso   1.000  C
  C23      1.0000 0.80320  0.68060  0.89194  Biso   1.000  C
  C24      1.0000 0.19680  0.31940  0.10806  Biso   1.000  C
  C25      1.0000 0.94390  0.75230  0.87535  Biso   1.000  C
  C26      1.0000 0.05610  0.24770  0.12465  Biso   1.000  C
  C27      1.0000 0.91450  0.77620  0.80460  Biso   1.000  C
  C28      1.0000 0.08550  0.22380  0.19540  Biso   1.000  C
  C29      1.0000 0.93650  0.17250  0.43473  Biso   1.000  C
  C30      1.0000 0.06350  0.82750  0.56527  Biso   1.000  C
  C31      1.0000 0.76470  0.12480  0.44073  Biso   1.000  C
  C32      1.0000 0.23530  0.87520  0.55927  Biso   1.000  C
  C33      1.0000 0.64920  0.14430  0.39543  Biso   1.000  C
  C34      1.0000 0.35080  0.85570  0.60457  Biso   1.000  C
  C35      1.0000 0.48890  0.11530  0.39575  Biso   1.000  C
  C36      1.0000 0.51110  0.88470  0.60425  Biso   1.000  C
  C37      1.0000 0.37970  0.15250  0.34759  Biso   1.000  C
  C38      1.0000 0.62030  0.84750  0.65241  Biso   1.000  C
  C39      1.0000 0.33780  0.55950  0.58675  Biso   1.000  C
  C40      1.0000 0.66220  0.44050  0.41325  Biso   1.000  C
  C41      1.0000 0.45070  0.53970  0.64231  Biso   1.000  C
  C42      1.0000 0.54930  0.46030  0.35769  Biso   1.000  C
  C43      1.0000 0.60580  0.53550  0.62779  Biso   1.000  C
  C44      1.0000 0.39420  0.46450  0.37221  Biso   1.000  C
  C45      1.0000 0.71100  0.50970  0.67301  Biso   1.000  C
  C46      1.0000 0.28900  0.49030  0.32699  Biso   1.000  C
  C47      1.0000 0.87390  0.49600  0.64955  Biso   1.000  C
  C48      1.0000 0.12610  0.50400  0.35045  Biso   1.000  C
  C49      1.0000 0.07790  0.43740  0.87925  Biso   1.000  C
  C50      1.0000 0.92210  0.56260  0.12075  Biso   1.000  C
  C51      1.0000 0.24770  0.43340  0.85941  Biso   1.000  C
  C52      1.0000 0.75230  0.56660  0.14059  Biso   1.000  C
  C53      1.0000 0.34670  0.39340  0.89854  Biso   1.000  C
  C54      1.0000 0.65330  0.60660  0.10146  Biso   1.000  C
  C55      1.0000 0.50450  0.39780  0.88810  Biso   1.000  C
  C56      1.0000 0.49550  0.60220  0.11190  Biso   1.000  C
  C57      1.0000 0.61000  0.35700  0.93450  Biso   1.000  C
  C58      1.0000 0.39000  0.64300  0.06550  Biso   1.000  C
  C59      1.0000 0.38180  0.05290  0.80254  Biso   1.000  C
  C60      1.0000 0.61820  0.94710  0.19746  Biso   1.000  C
  C61      1.0000 0.49180  0.04710  0.86423  Biso   1.000  C
  C62      1.0000 0.50820  0.95290  0.13577  Biso   1.000  C
  C63      1.0000 0.65050  0.05300  0.85642  Biso   1.000  C
  C64      1.0000 0.34950  0.94700  0.14358  Biso   1.000  C
  C65      1.0000 0.76540  0.06440  0.91326  Biso   1.000  C
  C66      1.0000 0.23460  0.93560  0.08674  Biso   1.000  C
  C67      1.0000 0.93930  0.08650  0.89921  Biso   1.000  C
  C68      1.0000 0.06070  0.91350  0.10079  Biso   1.000  C
  H1       1.0000 0.26300  0.13050  0.54820  Biso   1.000  H
  H2       1.0000 0.73700  0.86950  0.45180  Biso   1.000  H
  H3       1.0000 0.69410  0.14770  0.63320  Biso   1.000  H
  H4       1.0000 0.30590  0.85230  0.36680  Biso   1.000  H
  H5       1.0000 0.66570  0.29040  0.72330  Biso   1.000  H
  H6       1.0000 0.33430  0.70960  0.27670  Biso   1.000  H
  H7       1.0000 0.18470  0.35090  0.67060  Biso   1.000  H
  H8       1.0000 0.81530  0.64910  0.32940  Biso   1.000  H
  H9       1.0000 0.11560  0.26430  0.60140  Biso   1.000  H
  H10      1.0000 0.88440  0.73570  0.39860  Biso   1.000  H
  H11      1.0000 0.12630  0.23340  0.73720  Biso   1.000  H
  H12      1.0000 0.87370  0.76660  0.26280  Biso   1.000  H
  H13      1.0000 0.97460  0.24820  0.69840  Biso   1.000  H
  H14      1.0000 0.02540  0.75180  0.30160  Biso   1.000  H
  H15      1.0000 0.92780  0.09010  0.62900  Biso   1.000  H
  H16      1.0000 0.07220  0.90990  0.37100  Biso   1.000  H
  H17      1.0000 0.01370  0.07210  0.69500  Biso   1.000  H
  H18      1.0000 0.98630  0.92790  0.30500  Biso   1.000  H
  H19      1.0000 0.10460  0.08240  0.63020  Biso   1.000  H
  H20      1.0000 0.89540  0.91760  0.36980  Biso   1.000  H
  H21      1.0000 0.72870  0.85540  0.97000  Biso   1.000  H
  H22      1.0000 0.27130  0.14460  0.03000  Biso   1.000  H
  H23      1.0000 0.29740  0.83080  0.88340  Biso   1.000  H
  H24      1.0000 0.70260  0.16920  0.11660  Biso   1.000  H
  H25      1.0000 0.31040  0.66950  0.81070  Biso   1.000  H
  H26      1.0000 0.68960  0.33050  0.18930  Biso   1.000  H
  H27      1.0000 0.82620  0.67280  0.93800  Biso   1.000  H
  H28      1.0000 0.17380  0.32720  0.06200  Biso   1.000  H
  H29      1.0000 0.78890  0.61540  0.85720  Biso   1.000  H
  H30      1.0000 0.21110  0.38460  0.14280  Biso   1.000  H
  H31      1.0000 0.96450  0.81530  0.91260  Biso   1.000  H
  H32      1.0000 0.03550  0.18470  0.08740  Biso   1.000  H
  H33      1.0000 0.03320  0.72000  0.87360  Biso   1.000  H
  H34      1.0000 0.96680  0.28000  0.12640  Biso   1.000  H
  H35      1.0000 0.94800  0.72610  0.76730  Biso   1.000  H
  H36      1.0000 0.05200  0.27390  0.23270  Biso   1.000  H
  H37      1.0000 0.97180  0.84260  0.80740  Biso   1.000  H
  H38      1.0000 0.02820  0.15740  0.19260  Biso   1.000  H
  H39      1.0000 0.80530  0.77460  0.79500  Biso   1.000  H
  H40      1.0000 0.19470  0.22540  0.20500  Biso   1.000  H
  H41      1.0000 0.68410  0.18020  0.36210  Biso   1.000  H
  H42      1.0000 0.31590  0.81980  0.63790  Biso   1.000  H
  H43      1.0000 0.64040  0.55070  0.58580  Biso   1.000  H
  H44      1.0000 0.35960  0.44930  0.41420  Biso   1.000  H
  H45      1.0000 0.30520  0.36220  0.93320  Biso   1.000  H
  H46      1.0000 0.69480  0.63780  0.06680  Biso   1.000  H
  H47      1.0000 0.68380  0.04920  0.81030  Biso   1.000  H
  H48      1.0000 0.31620  0.95080  0.18970  Biso   1.000  H
