data_image0
_cell_length_a       8.6584
_cell_length_b       8.8051
_cell_length_c       7.8486
_cell_angle_alpha    114.993
_cell_angle_beta     99.302
_cell_angle_gamma    94.889

_symmetry_space_group_name_H-M    "P 1"
_symmetry_int_tables_number       1

loop_
  _symmetry_equiv_pos_as_xyz
  'x, y, z'

loop_
  _atom_site_label
  _atom_site_occupancy
  _atom_site_fract_x
  _atom_site_fract_y
  _atom_site_fract_z
  _atom_site_thermal_displace_type
  _atom_site_B_iso_or_equiv
  _atom_site_type_symbol
  Cu1      1.0000 0.00000  0.00000  0.00000  Biso   1.000  Cu
  F1       1.0000 0.53090  0.20310  0.92770  Biso   1.000  F
  F2       1.0000 0.46910  0.79690  0.07230  Biso   1.000  F
  F3       1.0000 0.60530  0.43460  0.18690  Biso   1.000  F
  F4       1.0000 0.39470  0.56540  0.81310  Biso   1.000  F
  F5       1.0000 0.55080  0.19970  0.20070  Biso   1.000  F
  F6       1.0000 0.44920  0.80030  0.79930  Biso   1.000  F
  F7       1.0000 0.27590  0.52240  0.14370  Biso   1.000  F
  F8       1.0000 0.72410  0.47760  0.85630  Biso   1.000  F
  F9       1.0000 0.30790  0.51790  0.40230  Biso   1.000  F
  F10      1.0000 0.69210  0.48210  0.59770  Biso   1.000  F
  F11      1.0000 0.14170  0.66060  0.33970  Biso   1.000  F
  F12      1.0000 0.85830  0.33940  0.66030  Biso   1.000  F
  O1       1.0000 0.80080  0.08720  0.02800  Biso   1.000  O
  O2       1.0000 0.19920  0.91280  0.97200  Biso   1.000  O
  O3       1.0000 0.12400  0.22740  0.11450  Biso   1.000  O
  O4       1.0000 0.87600  0.77260  0.88550  Biso   1.000  O
  N1       1.0000 0.01810  0.00730  0.33000  Biso   1.000  N
  N2       1.0000 0.98190  0.99270  0.67000  Biso   1.000  N
  C1       1.0000 0.87940  0.94790  0.34980  Biso   1.000  C
  C2       1.0000 0.12060  0.05210  0.65020  Biso   1.000  C
  C3       1.0000 0.14240  0.05830  0.48000  Biso   1.000  C
  C4       1.0000 0.85760  0.94170  0.52000  Biso   1.000  C
  C5       1.0000 0.30180  0.12190  0.46210  Biso   1.000  C
  C6       1.0000 0.69820  0.87810  0.53790  Biso   1.000  C
  C7       1.0000 0.61730  0.27050  0.10480  Biso   1.000  C
  C8       1.0000 0.38270  0.72950  0.89520  Biso   1.000  C
  C9       1.0000 0.78940  0.24130  0.10800  Biso   1.000  C
  C10      1.0000 0.21060  0.75870  0.89200  Biso   1.000  C
  C11      1.0000 0.91110  0.37970  0.18760  Biso   1.000  C
  C12      1.0000 0.08890  0.62030  0.81240  Biso   1.000  C
  C13      1.0000 0.06850  0.36220  0.18450  Biso   1.000  C
  C14      1.0000 0.93150  0.63780  0.81550  Biso   1.000  C
  C15      1.0000 0.19540  0.51980  0.27030  Biso   1.000  C
  C16      1.0000 0.80460  0.48020  0.72970  Biso   1.000  C
  H1       1.0000 0.78790  0.90310  0.22830  Biso   1.000  H
  H2       1.0000 0.21210  0.09690  0.77170  Biso   1.000  H
  H3       1.0000 0.31220  0.24080  0.50160  Biso   1.000  H
  H4       1.0000 0.68780  0.75920  0.49840  Biso   1.000  H
  H5       1.0000 0.31170  0.06600  0.33210  Biso   1.000  H
  H6       1.0000 0.68830  0.93400  0.66790  Biso   1.000  H
  H7       1.0000 0.38260  0.10010  0.54210  Biso   1.000  H
  H8       1.0000 0.61740  0.89990  0.45790  Biso   1.000  H
  H9       1.0000 0.89380  0.49300  0.24560  Biso   1.000  H
  H10      1.0000 0.10620  0.50700  0.75440  Biso   1.000  H
