data_image0
_cell_length_a       15.5339
_cell_length_b       7.816
_cell_length_c       16.9831
_cell_angle_alpha    90
_cell_angle_beta     99.674
_cell_angle_gamma    90

_symmetry_space_group_name_H-M    "P 1"
_symmetry_int_tables_number       1

loop_
  _symmetry_equiv_pos_as_xyz
  'x, y, z'

loop_
  _atom_site_label
  _atom_site_occupancy
  _atom_site_fract_x
  _atom_site_fract_y
  _atom_site_fract_z
  _atom_site_thermal_displace_type
  _atom_site_B_iso_or_equiv
  _atom_site_type_symbol
  Cu1      1.0000 0.50000  0.09676  0.75000  Biso   1.000  Cu
  Cu2      1.0000 0.00000  0.59676  0.75000  Biso   1.000  Cu
  Cu3      1.0000 0.50000  0.90324  0.25000  Biso   1.000  Cu
  Cu4      1.0000 0.00000  0.40324  0.25000  Biso   1.000  Cu
  F1       1.0000 0.39117  0.16309  0.98649  Biso   1.000  F
  F2       1.0000 0.89117  0.66309  0.98649  Biso   1.000  F
  F3       1.0000 0.60883  0.16309  0.51351  Biso   1.000  F
  F4       1.0000 0.10883  0.66309  0.51351  Biso   1.000  F
  F5       1.0000 0.60883  0.83691  0.01351  Biso   1.000  F
  F6       1.0000 0.10883  0.33691  0.01351  Biso   1.000  F
  F7       1.0000 0.39117  0.83691  0.48649  Biso   1.000  F
  F8       1.0000 0.89117  0.33691  0.48649  Biso   1.000  F
  F9       1.0000 0.40996  0.89034  0.97725  Biso   1.000  F
  F10      1.0000 0.90996  0.39034  0.97725  Biso   1.000  F
  F11      1.0000 0.59004  0.89034  0.52275  Biso   1.000  F
  F12      1.0000 0.09004  0.39034  0.52275  Biso   1.000  F
  F13      1.0000 0.59004  0.10966  0.02275  Biso   1.000  F
  F14      1.0000 0.09004  0.60966  0.02275  Biso   1.000  F
  F15      1.0000 0.40996  0.10966  0.47725  Biso   1.000  F
  F16      1.0000 0.90996  0.60966  0.47725  Biso   1.000  F
  F17      1.0000 0.28051  0.99771  0.95031  Biso   1.000  F
  F18      1.0000 0.78051  0.49771  0.95031  Biso   1.000  F
  F19      1.0000 0.71949  0.99771  0.54969  Biso   1.000  F
  F20      1.0000 0.21949  0.49771  0.54969  Biso   1.000  F
  F21      1.0000 0.71949  0.00229  0.04969  Biso   1.000  F
  F22      1.0000 0.21949  0.50229  0.04969  Biso   1.000  F
  F23      1.0000 0.28051  0.00229  0.45031  Biso   1.000  F
  F24      1.0000 0.78051  0.50229  0.45031  Biso   1.000  F
  F25      1.0000 0.16463  0.96020  0.67977  Biso   1.000  F
  F26      1.0000 0.66463  0.46020  0.67977  Biso   1.000  F
  F27      1.0000 0.83537  0.96020  0.82023  Biso   1.000  F
  F28      1.0000 0.33537  0.46020  0.82023  Biso   1.000  F
  F29      1.0000 0.83537  0.03980  0.32023  Biso   1.000  F
  F30      1.0000 0.33537  0.53980  0.32023  Biso   1.000  F
  F31      1.0000 0.16463  0.03980  0.17977  Biso   1.000  F
  F32      1.0000 0.66463  0.53980  0.17977  Biso   1.000  F
  F33      1.0000 0.25447  0.86481  0.60663  Biso   1.000  F
  F34      1.0000 0.75447  0.36481  0.60663  Biso   1.000  F
  F35      1.0000 0.74553  0.86481  0.89337  Biso   1.000  F
  F36      1.0000 0.24553  0.36481  0.89337  Biso   1.000  F
  F37      1.0000 0.74553  0.13519  0.39337  Biso   1.000  F
  F38      1.0000 0.24553  0.63519  0.39337  Biso   1.000  F
  F39      1.0000 0.25447  0.13519  0.10663  Biso   1.000  F
  F40      1.0000 0.75447  0.63519  0.10663  Biso   1.000  F
  F41      1.0000 0.21944  0.13243  0.60150  Biso   1.000  F
  F42      1.0000 0.71944  0.63243  0.60150  Biso   1.000  F
  F43      1.0000 0.78056  0.13243  0.89850  Biso   1.000  F
  F44      1.0000 0.28056  0.63243  0.89850  Biso   1.000  F
  F45      1.0000 0.78056  0.86757  0.39850  Biso   1.000  F
  F46      1.0000 0.28056  0.36757  0.39850  Biso   1.000  F
  F47      1.0000 0.21944  0.86757  0.10150  Biso   1.000  F
  F48      1.0000 0.71944  0.36757  0.10150  Biso   1.000  F
  O1       1.0000 0.45379  0.08882  0.85067  Biso   1.000  O
  O2       1.0000 0.95379  0.58882  0.85067  Biso   1.000  O
  O3       1.0000 0.54621  0.08882  0.64933  Biso   1.000  O
  O4       1.0000 0.04621  0.58882  0.64933  Biso   1.000  O
  O5       1.0000 0.54621  0.91118  0.14933  Biso   1.000  O
  O6       1.0000 0.04621  0.41118  0.14933  Biso   1.000  O
  O7       1.0000 0.45379  0.91118  0.35067  Biso   1.000  O
  O8       1.0000 0.95379  0.41118  0.35067  Biso   1.000  O
  O9       1.0000 0.38197  0.08373  0.68776  Biso   1.000  O
  O10      1.0000 0.88197  0.58373  0.68776  Biso   1.000  O
  O11      1.0000 0.61803  0.08373  0.81224  Biso   1.000  O
  O12      1.0000 0.11803  0.58373  0.81224  Biso   1.000  O
  O13      1.0000 0.61803  0.91627  0.31224  Biso   1.000  O
  O14      1.0000 0.11803  0.41627  0.31224  Biso   1.000  O
  O15      1.0000 0.38197  0.91627  0.18776  Biso   1.000  O
  O16      1.0000 0.88197  0.41627  0.18776  Biso   1.000  O
  N1       1.0000 0.50000  0.43020  0.75000  Biso   1.000  N
  N2       1.0000 0.00000  0.93020  0.75000  Biso   1.000  N
  N3       1.0000 0.50000  0.56980  0.25000  Biso   1.000  N
  N4       1.0000 0.00000  0.06980  0.25000  Biso   1.000  N
  N5       1.0000 0.50000  0.78870  0.75000  Biso   1.000  N
  N6       1.0000 0.00000  0.28870  0.75000  Biso   1.000  N
  N7       1.0000 0.50000  0.21130  0.25000  Biso   1.000  N
  N8       1.0000 0.00000  0.71130  0.25000  Biso   1.000  N
  C1       1.0000 0.52914  0.52020  0.81702  Biso   1.000  C
  C2       1.0000 0.02914  0.02020  0.81702  Biso   1.000  C
  C3       1.0000 0.47086  0.52020  0.68298  Biso   1.000  C
  C4       1.0000 0.97086  0.02020  0.68298  Biso   1.000  C
  C5       1.0000 0.47086  0.47980  0.18298  Biso   1.000  C
  C6       1.0000 0.97086  0.97980  0.18298  Biso   1.000  C
  C7       1.0000 0.52914  0.47980  0.31702  Biso   1.000  C
  C8       1.0000 0.02914  0.97980  0.31702  Biso   1.000  C
  C9       1.0000 0.52936  0.69910  0.81580  Biso   1.000  C
  C10      1.0000 0.02936  0.19910  0.81580  Biso   1.000  C
  C11      1.0000 0.47064  0.69910  0.68420  Biso   1.000  C
  C12      1.0000 0.97064  0.19910  0.68420  Biso   1.000  C
  C13      1.0000 0.47064  0.30090  0.18420  Biso   1.000  C
  C14      1.0000 0.97064  0.80090  0.18420  Biso   1.000  C
  C15      1.0000 0.52936  0.30090  0.31580  Biso   1.000  C
  C16      1.0000 0.02936  0.80090  0.31580  Biso   1.000  C
  C17      1.0000 0.56095  0.42800  0.89362  Biso   1.000  C
  C18      1.0000 0.06095  0.92800  0.89362  Biso   1.000  C
  C19      1.0000 0.43905  0.42800  0.60638  Biso   1.000  C
  C20      1.0000 0.93905  0.92800  0.60638  Biso   1.000  C
  C21      1.0000 0.43905  0.57200  0.10638  Biso   1.000  C
  C22      1.0000 0.93905  0.07200  0.10638  Biso   1.000  C
  C23      1.0000 0.56095  0.57200  0.39362  Biso   1.000  C
  C24      1.0000 0.06095  0.07200  0.39362  Biso   1.000  C
  C25      1.0000 0.36360  0.02340  0.94378  Biso   1.000  C
  C26      1.0000 0.86360  0.52340  0.94378  Biso   1.000  C
  C27      1.0000 0.63640  0.02340  0.55622  Biso   1.000  C
  C28      1.0000 0.13640  0.52340  0.55622  Biso   1.000  C
  C29      1.0000 0.63640  0.97660  0.05622  Biso   1.000  C
  C30      1.0000 0.13640  0.47660  0.05622  Biso   1.000  C
  C31      1.0000 0.36360  0.97660  0.44378  Biso   1.000  C
  C32      1.0000 0.86360  0.47660  0.44378  Biso   1.000  C
  C33      1.0000 0.37758  0.04490  0.85654  Biso   1.000  C
  C34      1.0000 0.87758  0.54490  0.85654  Biso   1.000  C
  C35      1.0000 0.62242  0.04490  0.64346  Biso   1.000  C
  C36      1.0000 0.12242  0.54490  0.64346  Biso   1.000  C
  C37      1.0000 0.62242  0.95510  0.14346  Biso   1.000  C
  C38      1.0000 0.12242  0.45510  0.14346  Biso   1.000  C
  C39      1.0000 0.37758  0.95510  0.35654  Biso   1.000  C
  C40      1.0000 0.87758  0.45510  0.35654  Biso   1.000  C
  C41      1.0000 0.30702  0.01240  0.79553  Biso   1.000  C
  C42      1.0000 0.80702  0.51240  0.79553  Biso   1.000  C
  C43      1.0000 0.69298  0.01240  0.70447  Biso   1.000  C
  C44      1.0000 0.19298  0.51240  0.70447  Biso   1.000  C
  C45      1.0000 0.69298  0.98760  0.20447  Biso   1.000  C
  C46      1.0000 0.19298  0.48760  0.20447  Biso   1.000  C
  C47      1.0000 0.30702  0.98760  0.29553  Biso   1.000  C
  C48      1.0000 0.80702  0.48760  0.29553  Biso   1.000  C
  C49      1.0000 0.31609  0.03590  0.71572  Biso   1.000  C
  C50      1.0000 0.81609  0.53590  0.71572  Biso   1.000  C
  C51      1.0000 0.68391  0.03590  0.78428  Biso   1.000  C
  C52      1.0000 0.18391  0.53590  0.78428  Biso   1.000  C
  C53      1.0000 0.68391  0.96410  0.28428  Biso   1.000  C
  C54      1.0000 0.18391  0.46410  0.28428  Biso   1.000  C
  C55      1.0000 0.31609  0.96410  0.21572  Biso   1.000  C
  C56      1.0000 0.81609  0.46410  0.21572  Biso   1.000  C
  C57      1.0000 0.23679  0.99900  0.65056  Biso   1.000  C
  C58      1.0000 0.73679  0.49900  0.65056  Biso   1.000  C
  C59      1.0000 0.76321  0.99900  0.84944  Biso   1.000  C
  C60      1.0000 0.26321  0.49900  0.84944  Biso   1.000  C
  C61      1.0000 0.76321  0.00100  0.34944  Biso   1.000  C
  C62      1.0000 0.26321  0.50100  0.34944  Biso   1.000  C
  C63      1.0000 0.23679  0.00100  0.15056  Biso   1.000  C
  C64      1.0000 0.73679  0.50100  0.15056  Biso   1.000  C
  H1       1.0000 0.55130  0.75900  0.86370  Biso   1.000  H
  H2       1.0000 0.05130  0.25900  0.86370  Biso   1.000  H
  H3       1.0000 0.44870  0.75900  0.63630  Biso   1.000  H
  H4       1.0000 0.94870  0.25900  0.63630  Biso   1.000  H
  H5       1.0000 0.44870  0.24100  0.13630  Biso   1.000  H
  H6       1.0000 0.94870  0.74100  0.13630  Biso   1.000  H
  H7       1.0000 0.55130  0.24100  0.36370  Biso   1.000  H
  H8       1.0000 0.05130  0.74100  0.36370  Biso   1.000  H
  H9       1.0000 0.51350  0.41020  0.92150  Biso   1.000  H
  H10      1.0000 0.01350  0.91020  0.92150  Biso   1.000  H
  H11      1.0000 0.48650  0.41020  0.57850  Biso   1.000  H
  H12      1.0000 0.98650  0.91020  0.57850  Biso   1.000  H
  H13      1.0000 0.48650  0.58980  0.07850  Biso   1.000  H
  H14      1.0000 0.98650  0.08980  0.07850  Biso   1.000  H
  H15      1.0000 0.51350  0.58980  0.42150  Biso   1.000  H
  H16      1.0000 0.01350  0.08980  0.42150  Biso   1.000  H
  H17      1.0000 0.60460  0.49450  0.92560  Biso   1.000  H
  H18      1.0000 0.10460  0.99450  0.92560  Biso   1.000  H
  H19      1.0000 0.39540  0.49450  0.57440  Biso   1.000  H
  H20      1.0000 0.89540  0.99450  0.57440  Biso   1.000  H
  H21      1.0000 0.39540  0.50550  0.07440  Biso   1.000  H
  H22      1.0000 0.89540  0.00550  0.07440  Biso   1.000  H
  H23      1.0000 0.60460  0.50550  0.42560  Biso   1.000  H
  H24      1.0000 0.10460  0.00550  0.42560  Biso   1.000  H
  H25      1.0000 0.58490  0.32060  0.88230  Biso   1.000  H
  H26      1.0000 0.08490  0.82060  0.88230  Biso   1.000  H
  H27      1.0000 0.41510  0.32060  0.61770  Biso   1.000  H
  H28      1.0000 0.91510  0.82060  0.61770  Biso   1.000  H
  H29      1.0000 0.41510  0.67940  0.11770  Biso   1.000  H
  H30      1.0000 0.91510  0.17940  0.11770  Biso   1.000  H
  H31      1.0000 0.58490  0.67940  0.38230  Biso   1.000  H
  H32      1.0000 0.08490  0.17940  0.38230  Biso   1.000  H
  H33      1.0000 0.25300  0.97430  0.80830  Biso   1.000  H
  H34      1.0000 0.75300  0.47430  0.80830  Biso   1.000  H
  H35      1.0000 0.74700  0.97430  0.69170  Biso   1.000  H
  H36      1.0000 0.24700  0.47430  0.69170  Biso   1.000  H
  H37      1.0000 0.74700  0.02570  0.19170  Biso   1.000  H
  H38      1.0000 0.24700  0.52570  0.19170  Biso   1.000  H
  H39      1.0000 0.25300  0.02570  0.30830  Biso   1.000  H
  H40      1.0000 0.75300  0.52570  0.30830  Biso   1.000  H
