data_image0
_cell_length_a       12.2399
_cell_length_b       13.9256
_cell_length_c       8.4821
_cell_angle_alpha    98.303
_cell_angle_beta     109.586
_cell_angle_gamma    67.776

_symmetry_space_group_name_H-M    "P 1"
_symmetry_int_tables_number       1

loop_
  _symmetry_equiv_pos_as_xyz
  'x, y, z'

loop_
  _atom_site_label
  _atom_site_occupancy
  _atom_site_fract_x
  _atom_site_fract_y
  _atom_site_fract_z
  _atom_site_thermal_displace_type
  _atom_site_B_iso_or_equiv
  _atom_site_type_symbol
  Cu1      1.0000 0.00000  0.00000  0.00000  Biso   1.000  Cu
  Cu2      1.0000 0.50000  0.50000  0.50000  Biso   1.000  Cu
  F1       1.0000 0.34570  0.07100  0.38190  Biso   1.000  F
  F2       1.0000 0.65430  0.92900  0.61810  Biso   1.000  F
  F3       1.0000 0.38600  0.91140  0.37400  Biso   1.000  F
  F4       1.0000 0.61400  0.08860  0.62600  Biso   1.000  F
  F5       1.0000 0.46050  0.97470  0.24360  Biso   1.000  F
  F6       1.0000 0.53950  0.02530  0.75640  Biso   1.000  F
  F7       1.0000 0.07430  0.12310  0.59010  Biso   1.000  F
  F8       1.0000 0.92570  0.87690  0.40990  Biso   1.000  F
  F9       1.0000 0.16460  0.96430  0.56800  Biso   1.000  F
  F10      1.0000 0.83540  0.03570  0.43200  Biso   1.000  F
  F11      1.0000 0.26900  0.06030  0.68580  Biso   1.000  F
  F12      1.0000 0.73100  0.93970  0.31420  Biso   1.000  F
  F13      1.0000 0.46870  0.30450  0.01760  Biso   1.000  F
  F14      1.0000 0.53130  0.69550  0.98240  Biso   1.000  F
  F15      1.0000 0.42580  0.18910  0.09350  Biso   1.000  F
  F16      1.0000 0.57420  0.81090  0.90650  Biso   1.000  F
  F17      1.0000 0.60190  0.19940  0.18980  Biso   1.000  F
  F18      1.0000 0.39810  0.80060  0.81020  Biso   1.000  F
  F19      1.0000 0.15180  0.44090  0.57100  Biso   1.000  F
  F20      1.0000 0.84820  0.55910  0.42900  Biso   1.000  F
  F21      1.0000 0.28160  0.31160  0.65800  Biso   1.000  F
  F22      1.0000 0.71840  0.68840  0.34200  Biso   1.000  F
  F23      1.0000 0.16730  0.31440  0.43330  Biso   1.000  F
  F24      1.0000 0.83270  0.68560  0.56670  Biso   1.000  F
  F25      1.0000 0.35900  0.98200  0.41100  Biso   1.000  F
  F26      1.0000 0.64100  0.01800  0.58900  Biso   1.000  F
  F27      1.0000 0.45000  0.89100  0.24800  Biso   1.000  F
  F28      1.0000 0.55000  0.10900  0.75200  Biso   1.000  F
  F29      1.0000 0.42800  0.03900  0.28500  Biso   1.000  F
  F30      1.0000 0.57200  0.96100  0.71500  Biso   1.000  F
  O1       1.0000 0.15730  0.99960  0.16760  Biso   1.000  O
  O2       1.0000 0.84270  0.00040  0.83240  Biso   1.000  O
  O3       1.0000 0.04950  0.02510  0.81770  Biso   1.000  O
  O4       1.0000 0.95050  0.97490  0.18230  Biso   1.000  O
  O5       1.0000 0.50990  0.38730  0.32860  Biso   1.000  O
  O6       1.0000 0.49010  0.61270  0.67140  Biso   1.000  O
  O7       1.0000 0.35000  0.45890  0.54840  Biso   1.000  O
  O8       1.0000 0.65000  0.54110  0.45160  Biso   1.000  O
  N1       1.0000 0.10060  0.81440  0.95450  Biso   1.000  N
  N2       1.0000 0.89940  0.18560  0.04550  Biso   1.000  N
  N3       1.0000 0.36900  0.60410  0.31600  Biso   1.000  N
  N4       1.0000 0.63100  0.39590  0.68400  Biso   1.000  N
  C1       1.0000 0.08830  0.78530  0.79610  Biso   1.000  C
  C2       1.0000 0.91170  0.21470  0.20390  Biso   1.000  C
  C3       1.0000 0.16030  0.69170  0.74090  Biso   1.000  C
  C4       1.0000 0.83970  0.30830  0.25910  Biso   1.000  C
  C5       1.0000 0.25230  0.62300  0.85810  Biso   1.000  C
  C6       1.0000 0.74770  0.37700  0.14190  Biso   1.000  C
  C7       1.0000 0.26890  0.65020  0.02800  Biso   1.000  C
  C8       1.0000 0.73110  0.34980  0.97200  Biso   1.000  C
  C9       1.0000 0.35800  0.58200  0.15800  Biso   1.000  C
  C10      1.0000 0.64200  0.41800  0.84200  Biso   1.000  C
  C11      1.0000 0.29050  0.69620  0.35780  Biso   1.000  C
  C12      1.0000 0.70950  0.30380  0.64220  Biso   1.000  C
  C13      1.0000 0.20450  0.76730  0.24330  Biso   1.000  C
  C14      1.0000 0.79550  0.23270  0.75670  Biso   1.000  C
  C15      1.0000 0.18990  0.74520  0.07210  Biso   1.000  C
  C16      1.0000 0.81010  0.25480  0.92790  Biso   1.000  C
  C17      1.0000 0.36360  0.98620  0.28330  Biso   1.000  C
  C18      1.0000 0.63640  0.01380  0.71670  Biso   1.000  C
  C19      1.0000 0.24780  0.00150  0.13180  Biso   1.000  C
  C20      1.0000 0.75220  0.99850  0.86820  Biso   1.000  C
  C21      1.0000 0.25240  0.01580  0.97680  Biso   1.000  C
  C22      1.0000 0.74760  0.98420  0.02320  Biso   1.000  C
  C23      1.0000 0.15410  0.02770  0.83550  Biso   1.000  C
  C24      1.0000 0.84590  0.97230  0.16450  Biso   1.000  C
  C25      1.0000 0.16780  0.04490  0.66950  Biso   1.000  C
  C26      1.0000 0.83220  0.95510  0.33050  Biso   1.000  C
  C27      1.0000 0.48500  0.25200  0.14860  Biso   1.000  C
  C28      1.0000 0.51500  0.74800  0.85140  Biso   1.000  C
  C29      1.0000 0.45040  0.32700  0.28740  Biso   1.000  C
  C30      1.0000 0.54960  0.67300  0.71260  Biso   1.000  C
  C31      1.0000 0.36490  0.31850  0.35310  Biso   1.000  C
  C32      1.0000 0.63510  0.68150  0.64690  Biso   1.000  C
  C33      1.0000 0.32320  0.38390  0.47940  Biso   1.000  C
  C34      1.0000 0.67680  0.61610  0.52060  Biso   1.000  C
  C35      1.0000 0.23300  0.36240  0.53630  Biso   1.000  C
  C36      1.0000 0.76700  0.63760  0.46370  Biso   1.000  C
  C37      1.0000 0.97300  0.38500  0.77100  Biso   1.000  C
  C38      1.0000 0.02700  0.61500  0.22900  Biso   1.000  C
  C39      1.0000 0.06700  0.49800  0.98500  Biso   1.000  C
  C40      1.0000 0.93300  0.50200  0.01500  Biso   1.000  C
  C41      1.0000 0.08300  0.32300  0.92400  Biso   1.000  C
  C42      1.0000 0.91700  0.67700  0.07600  Biso   1.000  C
  C43      1.0000 0.03100  0.41000  0.95000  Biso   1.000  C
  C44      1.0000 0.96900  0.59000  0.05000  Biso   1.000  C
  H1       1.0000 0.01700  0.83600  0.70170  Biso   1.000  H
  H2       1.0000 0.98300  0.16400  0.29830  Biso   1.000  H
  H3       1.0000 0.15380  0.66870  0.60590  Biso   1.000  H
  H4       1.0000 0.84620  0.33130  0.39410  Biso   1.000  H
  H5       1.0000 0.31390  0.55390  0.82530  Biso   1.000  H
  H6       1.0000 0.68610  0.44610  0.17470  Biso   1.000  H
  H7       1.0000 0.41670  0.51190  0.12630  Biso   1.000  H
  H8       1.0000 0.58330  0.48810  0.87370  Biso   1.000  H
  H9       1.0000 0.28540  0.71990  0.48960  Biso   1.000  H
  H10      1.0000 0.71460  0.28010  0.51040  Biso   1.000  H
  H11      1.0000 0.13990  0.82980  0.28670  Biso   1.000  H
  H12      1.0000 0.86010  0.17020  0.71330  Biso   1.000  H
  H13      1.0000 0.32660  0.01860  0.96900  Biso   1.000  H
  H14      1.0000 0.67340  0.98140  0.03100  Biso   1.000  H
  H15      1.0000 0.34740  0.25920  0.32000  Biso   1.000  H
  H16      1.0000 0.65260  0.74080  0.68000  Biso   1.000  H
