data_image0
_cell_length_a       12.6377
_cell_length_b       30.2602
_cell_length_c       11.1072
_cell_angle_alpha    90
_cell_angle_beta     90
_cell_angle_gamma    90

_symmetry_space_group_name_H-M    "P 1"
_symmetry_int_tables_number       1

loop_
  _symmetry_equiv_pos_as_xyz
  'x, y, z'

loop_
  _atom_site_label
  _atom_site_occupancy
  _atom_site_fract_x
  _atom_site_fract_y
  _atom_site_fract_z
  _atom_site_thermal_displace_type
  _atom_site_B_iso_or_equiv
  _atom_site_type_symbol
  Cu1      1.0000 0.10850  0.13405  0.73171  Biso   1.000  Cu
  Cu2      1.0000 0.60850  0.36595  0.26829  Biso   1.000  Cu
  Cu3      1.0000 0.89150  0.63405  0.76829  Biso   1.000  Cu
  Cu4      1.0000 0.39150  0.86595  0.23171  Biso   1.000  Cu
  Cu5      1.0000 0.89150  0.86595  0.26829  Biso   1.000  Cu
  Cu6      1.0000 0.39150  0.63405  0.73171  Biso   1.000  Cu
  Cu7      1.0000 0.10850  0.36595  0.23171  Biso   1.000  Cu
  Cu8      1.0000 0.60850  0.13405  0.76829  Biso   1.000  Cu
  F1       1.0000 0.25040  0.07960  0.37430  Biso   1.000  F
  F2       1.0000 0.75040  0.42040  0.62570  Biso   1.000  F
  F3       1.0000 0.74960  0.57960  0.12570  Biso   1.000  F
  F4       1.0000 0.24960  0.92040  0.87430  Biso   1.000  F
  F5       1.0000 0.74960  0.92040  0.62570  Biso   1.000  F
  F6       1.0000 0.24960  0.57960  0.37430  Biso   1.000  F
  F7       1.0000 0.25040  0.42040  0.87430  Biso   1.000  F
  F8       1.0000 0.75040  0.07960  0.12570  Biso   1.000  F
  F9       1.0000 0.37390  0.07643  0.50090  Biso   1.000  F
  F10      1.0000 0.87390  0.42357  0.49910  Biso   1.000  F
  F11      1.0000 0.62610  0.57643  0.99910  Biso   1.000  F
  F12      1.0000 0.12610  0.92357  0.00090  Biso   1.000  F
  F13      1.0000 0.62610  0.92357  0.49910  Biso   1.000  F
  F14      1.0000 0.12610  0.57643  0.50090  Biso   1.000  F
  F15      1.0000 0.37390  0.42357  0.00090  Biso   1.000  F
  F16      1.0000 0.87390  0.07643  0.99910  Biso   1.000  F
  F17      1.0000 0.29260  0.01874  0.44960  Biso   1.000  F
  F18      1.0000 0.79260  0.48126  0.55040  Biso   1.000  F
  F19      1.0000 0.70740  0.51874  0.05040  Biso   1.000  F
  F20      1.0000 0.20740  0.98126  0.94960  Biso   1.000  F
  F21      1.0000 0.70740  0.98126  0.55040  Biso   1.000  F
  F22      1.0000 0.20740  0.51874  0.44960  Biso   1.000  F
  F23      1.0000 0.29260  0.48126  0.94960  Biso   1.000  F
  F24      1.0000 0.79260  0.01874  0.05040  Biso   1.000  F
  F25      1.0000 0.89390  0.01230  0.70900  Biso   1.000  F
  F26      1.0000 0.39390  0.48770  0.29100  Biso   1.000  F
  F27      1.0000 0.10610  0.51230  0.79100  Biso   1.000  F
  F28      1.0000 0.60610  0.98770  0.20900  Biso   1.000  F
  F29      1.0000 0.10610  0.98770  0.29100  Biso   1.000  F
  F30      1.0000 0.60610  0.51230  0.70900  Biso   1.000  F
  F31      1.0000 0.89390  0.48770  0.20900  Biso   1.000  F
  F32      1.0000 0.39390  0.01230  0.79100  Biso   1.000  F
  F33      1.0000 0.01610  0.96725  0.69220  Biso   1.000  F
  F34      1.0000 0.51610  0.53275  0.30780  Biso   1.000  F
  F35      1.0000 0.98390  0.46725  0.80780  Biso   1.000  F
  F36      1.0000 0.48390  0.03275  0.19220  Biso   1.000  F
  F37      1.0000 0.98390  0.03275  0.30780  Biso   1.000  F
  F38      1.0000 0.48390  0.46725  0.69220  Biso   1.000  F
  F39      1.0000 0.01610  0.53275  0.19220  Biso   1.000  F
  F40      1.0000 0.51610  0.96725  0.80780  Biso   1.000  F
  F41      1.0000 0.98940  0.99766  0.85470  Biso   1.000  F
  F42      1.0000 0.48940  0.50234  0.14530  Biso   1.000  F
  F43      1.0000 0.01060  0.49766  0.64530  Biso   1.000  F
  F44      1.0000 0.51060  0.00234  0.35470  Biso   1.000  F
  F45      1.0000 0.01060  0.00234  0.14530  Biso   1.000  F
  F46      1.0000 0.51060  0.49766  0.85470  Biso   1.000  F
  F47      1.0000 0.98940  0.50234  0.35470  Biso   1.000  F
  F48      1.0000 0.48940  0.99766  0.64530  Biso   1.000  F
  F49      1.0000 0.22550  0.27072  0.60220  Biso   1.000  F
  F50      1.0000 0.72550  0.22928  0.39780  Biso   1.000  F
  F51      1.0000 0.77450  0.77072  0.89780  Biso   1.000  F
  F52      1.0000 0.27450  0.72928  0.10220  Biso   1.000  F
  F53      1.0000 0.77450  0.72928  0.39780  Biso   1.000  F
  F54      1.0000 0.27450  0.77072  0.60220  Biso   1.000  F
  F55      1.0000 0.22550  0.22928  0.10220  Biso   1.000  F
  F56      1.0000 0.72550  0.27072  0.89780  Biso   1.000  F
  F57      1.0000 0.33590  0.25175  0.73610  Biso   1.000  F
  F58      1.0000 0.83590  0.24825  0.26390  Biso   1.000  F
  F59      1.0000 0.66410  0.75175  0.76390  Biso   1.000  F
  F60      1.0000 0.16410  0.74825  0.23610  Biso   1.000  F
  F61      1.0000 0.66410  0.74825  0.26390  Biso   1.000  F
  F62      1.0000 0.16410  0.75175  0.73610  Biso   1.000  F
  F63      1.0000 0.33590  0.24825  0.23610  Biso   1.000  F
  F64      1.0000 0.83590  0.25175  0.76390  Biso   1.000  F
  F65      1.0000 0.21820  0.29980  0.77800  Biso   1.000  F
  F66      1.0000 0.71820  0.20020  0.22200  Biso   1.000  F
  F67      1.0000 0.78180  0.79980  0.72200  Biso   1.000  F
  F68      1.0000 0.28180  0.70020  0.27800  Biso   1.000  F
  F69      1.0000 0.78180  0.70020  0.22200  Biso   1.000  F
  F70      1.0000 0.28180  0.79980  0.77800  Biso   1.000  F
  F71      1.0000 0.21820  0.20020  0.27800  Biso   1.000  F
  F72      1.0000 0.71820  0.29980  0.72200  Biso   1.000  F
  F73      1.0000 0.00100  0.18718  0.10410  Biso   1.000  F
  F74      1.0000 0.50100  0.31282  0.89590  Biso   1.000  F
  F75      1.0000 0.99900  0.68718  0.39590  Biso   1.000  F
  F76      1.0000 0.49900  0.81282  0.60410  Biso   1.000  F
  F77      1.0000 0.99900  0.81282  0.89590  Biso   1.000  F
  F78      1.0000 0.49900  0.68718  0.10410  Biso   1.000  F
  F79      1.0000 0.00100  0.31282  0.60410  Biso   1.000  F
  F80      1.0000 0.50100  0.18718  0.39590  Biso   1.000  F
  F81      1.0000 0.86630  0.19275  0.99270  Biso   1.000  F
  F82      1.0000 0.36630  0.30725  0.00730  Biso   1.000  F
  F83      1.0000 0.13370  0.69275  0.50730  Biso   1.000  F
  F84      1.0000 0.63370  0.80725  0.49270  Biso   1.000  F
  F85      1.0000 0.13370  0.80725  0.00730  Biso   1.000  F
  F86      1.0000 0.63370  0.69275  0.99270  Biso   1.000  F
  F87      1.0000 0.86630  0.30725  0.49270  Biso   1.000  F
  F88      1.0000 0.36630  0.19275  0.50730  Biso   1.000  F
  F89      1.0000 0.95580  0.24958  0.03460  Biso   1.000  F
  F90      1.0000 0.45580  0.25042  0.96540  Biso   1.000  F
  F91      1.0000 0.04420  0.74958  0.46540  Biso   1.000  F
  F92      1.0000 0.54420  0.75042  0.53460  Biso   1.000  F
  F93      1.0000 0.04420  0.75042  0.96540  Biso   1.000  F
  F94      1.0000 0.54420  0.74958  0.03460  Biso   1.000  F
  F95      1.0000 0.95580  0.25042  0.53460  Biso   1.000  F
  F96      1.0000 0.45580  0.24958  0.46540  Biso   1.000  F
  O1       1.0000 0.19790  0.10989  0.60590  Biso   1.000  O
  O2       1.0000 0.69790  0.39011  0.39410  Biso   1.000  O
  O3       1.0000 0.80210  0.60989  0.89410  Biso   1.000  O
  O4       1.0000 0.30210  0.89011  0.10590  Biso   1.000  O
  O5       1.0000 0.80210  0.89011  0.39410  Biso   1.000  O
  O6       1.0000 0.30210  0.60989  0.60590  Biso   1.000  O
  O7       1.0000 0.19790  0.39011  0.10590  Biso   1.000  O
  O8       1.0000 0.69790  0.10989  0.89410  Biso   1.000  O
  O9       1.0000 0.04250  0.07668  0.76100  Biso   1.000  O
  O10      1.0000 0.54250  0.42332  0.23900  Biso   1.000  O
  O11      1.0000 0.95750  0.57668  0.73900  Biso   1.000  O
  O12      1.0000 0.45750  0.92332  0.26100  Biso   1.000  O
  O13      1.0000 0.95750  0.92332  0.23900  Biso   1.000  O
  O14      1.0000 0.45750  0.57668  0.76100  Biso   1.000  O
  O15      1.0000 0.04250  0.42332  0.26100  Biso   1.000  O
  O16      1.0000 0.54250  0.07668  0.73900  Biso   1.000  O
  O17      1.0000 0.17190  0.19111  0.69350  Biso   1.000  O
  O18      1.0000 0.67190  0.30889  0.30650  Biso   1.000  O
  O19      1.0000 0.82810  0.69111  0.80650  Biso   1.000  O
  O20      1.0000 0.32810  0.80889  0.19350  Biso   1.000  O
  O21      1.0000 0.82810  0.80889  0.30650  Biso   1.000  O
  O22      1.0000 0.32810  0.69111  0.69350  Biso   1.000  O
  O23      1.0000 0.17190  0.30889  0.19350  Biso   1.000  O
  O24      1.0000 0.67190  0.19111  0.80650  Biso   1.000  O
  O25      1.0000 0.02200  0.15935  0.85800  Biso   1.000  O
  O26      1.0000 0.52200  0.34065  0.14200  Biso   1.000  O
  O27      1.0000 0.97800  0.65935  0.64200  Biso   1.000  O
  O28      1.0000 0.47800  0.84065  0.35800  Biso   1.000  O
  O29      1.0000 0.97800  0.84065  0.14200  Biso   1.000  O
  O30      1.0000 0.47800  0.65935  0.85800  Biso   1.000  O
  O31      1.0000 0.02200  0.34065  0.35800  Biso   1.000  O
  O32      1.0000 0.52200  0.15935  0.64200  Biso   1.000  O
  N1       1.0000 0.25580  0.12053  0.87800  Biso   1.000  N
  N2       1.0000 0.75580  0.37947  0.12200  Biso   1.000  N
  N3       1.0000 0.74420  0.62053  0.62200  Biso   1.000  N
  N4       1.0000 0.24420  0.87947  0.37800  Biso   1.000  N
  N5       1.0000 0.74420  0.87947  0.12200  Biso   1.000  N
  N6       1.0000 0.24420  0.62053  0.87800  Biso   1.000  N
  N7       1.0000 0.25580  0.37947  0.37800  Biso   1.000  N
  N8       1.0000 0.75580  0.12053  0.62200  Biso   1.000  N
  N9       1.0000 0.43720  0.14132  0.90100  Biso   1.000  N
  N10      1.0000 0.93720  0.35868  0.09900  Biso   1.000  N
  N11      1.0000 0.56280  0.64132  0.59900  Biso   1.000  N
  N12      1.0000 0.06280  0.85868  0.40100  Biso   1.000  N
  N13      1.0000 0.56280  0.85868  0.09900  Biso   1.000  N
  N14      1.0000 0.06280  0.64132  0.90100  Biso   1.000  N
  N15      1.0000 0.43720  0.35868  0.40100  Biso   1.000  N
  N16      1.0000 0.93720  0.14132  0.59900  Biso   1.000  N
  C1       1.0000 0.35060  0.13422  0.83730  Biso   1.000  C
  C2       1.0000 0.85060  0.36578  0.16270  Biso   1.000  C
  C3       1.0000 0.64940  0.63422  0.66270  Biso   1.000  C
  C4       1.0000 0.14940  0.86578  0.33730  Biso   1.000  C
  C5       1.0000 0.64940  0.86578  0.16270  Biso   1.000  C
  C6       1.0000 0.14940  0.63422  0.83730  Biso   1.000  C
  C7       1.0000 0.35060  0.36578  0.33730  Biso   1.000  C
  C8       1.0000 0.85060  0.13422  0.66270  Biso   1.000  C
  C9       1.0000 0.25170  0.11126  0.99650  Biso   1.000  C
  C10      1.0000 0.75170  0.38874  0.00350  Biso   1.000  C
  C11      1.0000 0.74830  0.61126  0.50350  Biso   1.000  C
  C12      1.0000 0.24830  0.88874  0.49650  Biso   1.000  C
  C13      1.0000 0.74830  0.88874  0.00350  Biso   1.000  C
  C14      1.0000 0.24830  0.61126  0.99650  Biso   1.000  C
  C15      1.0000 0.25170  0.38874  0.49650  Biso   1.000  C
  C16      1.0000 0.75170  0.11126  0.50350  Biso   1.000  C
  C17      1.0000 0.33750  0.11879  0.07070  Biso   1.000  C
  C18      1.0000 0.83750  0.38121  0.92930  Biso   1.000  C
  C19      1.0000 0.66250  0.61879  0.42930  Biso   1.000  C
  C20      1.0000 0.16250  0.88121  0.57070  Biso   1.000  C
  C21      1.0000 0.66250  0.88121  0.92930  Biso   1.000  C
  C22      1.0000 0.16250  0.61879  0.07070  Biso   1.000  C
  C23      1.0000 0.33750  0.38121  0.57070  Biso   1.000  C
  C24      1.0000 0.83750  0.11879  0.42930  Biso   1.000  C
  C25      1.0000 0.42780  0.13430  0.02060  Biso   1.000  C
  C26      1.0000 0.92780  0.36570  0.97940  Biso   1.000  C
  C27      1.0000 0.57220  0.63430  0.47940  Biso   1.000  C
  C28      1.0000 0.07220  0.86570  0.52060  Biso   1.000  C
  C29      1.0000 0.57220  0.86570  0.97940  Biso   1.000  C
  C30      1.0000 0.07220  0.63430  0.02060  Biso   1.000  C
  C31      1.0000 0.42780  0.36570  0.52060  Biso   1.000  C
  C32      1.0000 0.92780  0.13430  0.47940  Biso   1.000  C
  C33      1.0000 0.14800  0.09220  0.04470  Biso   1.000  C
  C34      1.0000 0.64800  0.40780  0.95530  Biso   1.000  C
  C35      1.0000 0.85200  0.59220  0.45530  Biso   1.000  C
  C36      1.0000 0.35200  0.90780  0.54470  Biso   1.000  C
  C37      1.0000 0.85200  0.90780  0.95530  Biso   1.000  C
  C38      1.0000 0.35200  0.59220  0.04470  Biso   1.000  C
  C39      1.0000 0.14800  0.40780  0.54470  Biso   1.000  C
  C40      1.0000 0.64800  0.09220  0.45530  Biso   1.000  C
  C41      1.0000 0.52250  0.14490  0.09590  Biso   1.000  C
  C42      1.0000 0.02250  0.35510  0.90410  Biso   1.000  C
  C43      1.0000 0.47750  0.64490  0.40410  Biso   1.000  C
  C44      1.0000 0.97750  0.85510  0.59590  Biso   1.000  C
  C45      1.0000 0.47750  0.85510  0.90410  Biso   1.000  C
  C46      1.0000 0.97750  0.64490  0.09590  Biso   1.000  C
  C47      1.0000 0.52250  0.35510  0.59590  Biso   1.000  C
  C48      1.0000 0.02250  0.14490  0.40410  Biso   1.000  C
  C49      1.0000 0.28120  0.06170  0.47570  Biso   1.000  C
  C50      1.0000 0.78120  0.43830  0.52430  Biso   1.000  C
  C51      1.0000 0.71880  0.56170  0.02430  Biso   1.000  C
  C52      1.0000 0.21880  0.93830  0.97570  Biso   1.000  C
  C53      1.0000 0.71880  0.93830  0.52430  Biso   1.000  C
  C54      1.0000 0.21880  0.56170  0.47570  Biso   1.000  C
  C55      1.0000 0.28120  0.43830  0.97570  Biso   1.000  C
  C56      1.0000 0.78120  0.06170  0.02430  Biso   1.000  C
  C57      1.0000 0.20010  0.07044  0.57390  Biso   1.000  C
  C58      1.0000 0.70010  0.42956  0.42610  Biso   1.000  C
  C59      1.0000 0.79990  0.57044  0.92610  Biso   1.000  C
  C60      1.0000 0.29990  0.92956  0.07390  Biso   1.000  C
  C61      1.0000 0.79990  0.92956  0.42610  Biso   1.000  C
  C62      1.0000 0.29990  0.57044  0.57390  Biso   1.000  C
  C63      1.0000 0.20010  0.42956  0.07390  Biso   1.000  C
  C64      1.0000 0.70010  0.07044  0.92610  Biso   1.000  C
  C65      1.0000 0.13840  0.03618  0.61490  Biso   1.000  C
  C66      1.0000 0.63840  0.46382  0.38510  Biso   1.000  C
  C67      1.0000 0.86160  0.53618  0.88510  Biso   1.000  C
  C68      1.0000 0.36160  0.96382  0.11490  Biso   1.000  C
  C69      1.0000 0.86160  0.96382  0.38510  Biso   1.000  C
  C70      1.0000 0.36160  0.53618  0.61490  Biso   1.000  C
  C71      1.0000 0.13840  0.46382  0.11490  Biso   1.000  C
  C72      1.0000 0.63840  0.03618  0.88510  Biso   1.000  C
  C73      1.0000 0.06310  0.04272  0.70430  Biso   1.000  C
  C74      1.0000 0.56310  0.45728  0.29570  Biso   1.000  C
  C75      1.0000 0.93690  0.54272  0.79570  Biso   1.000  C
  C76      1.0000 0.43690  0.95728  0.20430  Biso   1.000  C
  C77      1.0000 0.93690  0.95728  0.29570  Biso   1.000  C
  C78      1.0000 0.43690  0.54272  0.70430  Biso   1.000  C
  C79      1.0000 0.06310  0.45728  0.20430  Biso   1.000  C
  C80      1.0000 0.56310  0.04272  0.79570  Biso   1.000  C
  C81      1.0000 0.99130  0.00430  0.73860  Biso   1.000  C
  C82      1.0000 0.49130  0.49570  0.26140  Biso   1.000  C
  C83      1.0000 0.00870  0.50430  0.76140  Biso   1.000  C
  C84      1.0000 0.50870  0.99570  0.23860  Biso   1.000  C
  C85      1.0000 0.00870  0.99570  0.26140  Biso   1.000  C
  C86      1.0000 0.50870  0.50430  0.73860  Biso   1.000  C
  C87      1.0000 0.99130  0.49570  0.23860  Biso   1.000  C
  C88      1.0000 0.49130  0.00430  0.76140  Biso   1.000  C
  C89      1.0000 0.23560  0.26240  0.71890  Biso   1.000  C
  C90      1.0000 0.73560  0.23760  0.28110  Biso   1.000  C
  C91      1.0000 0.76440  0.76240  0.78110  Biso   1.000  C
  C92      1.0000 0.26440  0.73760  0.21890  Biso   1.000  C
  C93      1.0000 0.76440  0.73760  0.28110  Biso   1.000  C
  C94      1.0000 0.26440  0.76240  0.71890  Biso   1.000  C
  C95      1.0000 0.23560  0.23760  0.21890  Biso   1.000  C
  C96      1.0000 0.73560  0.26240  0.78110  Biso   1.000  C
  C97      1.0000 0.16330  0.22452  0.75910  Biso   1.000  C
  C98      1.0000 0.66330  0.27548  0.24090  Biso   1.000  C
  C99      1.0000 0.83670  0.72452  0.74090  Biso   1.000  C
  C100     1.0000 0.33670  0.77548  0.25910  Biso   1.000  C
  C101     1.0000 0.83670  0.77548  0.24090  Biso   1.000  C
  C102     1.0000 0.33670  0.72452  0.75910  Biso   1.000  C
  C103     1.0000 0.16330  0.27548  0.25910  Biso   1.000  C
  C104     1.0000 0.66330  0.22452  0.74090  Biso   1.000  C
  C105     1.0000 0.09960  0.23058  0.85840  Biso   1.000  C
  C106     1.0000 0.59960  0.26942  0.14160  Biso   1.000  C
  C107     1.0000 0.90040  0.73058  0.64160  Biso   1.000  C
  C108     1.0000 0.40040  0.76942  0.35840  Biso   1.000  C
  C109     1.0000 0.90040  0.76942  0.14160  Biso   1.000  C
  C110     1.0000 0.40040  0.73058  0.85840  Biso   1.000  C
  C111     1.0000 0.09960  0.26942  0.35840  Biso   1.000  C
  C112     1.0000 0.59960  0.23058  0.64160  Biso   1.000  C
  C113     1.0000 0.03220  0.19755  0.89900  Biso   1.000  C
  C114     1.0000 0.53220  0.30245  0.10100  Biso   1.000  C
  C115     1.0000 0.96780  0.69755  0.60100  Biso   1.000  C
  C116     1.0000 0.46780  0.80245  0.39900  Biso   1.000  C
  C117     1.0000 0.96780  0.80245  0.10100  Biso   1.000  C
  C118     1.0000 0.46780  0.69755  0.89900  Biso   1.000  C
  C119     1.0000 0.03220  0.30245  0.39900  Biso   1.000  C
  C120     1.0000 0.53220  0.19755  0.60100  Biso   1.000  C
  C121     1.0000 0.96230  0.20696  0.00840  Biso   1.000  C
  C122     1.0000 0.46230  0.29304  0.99160  Biso   1.000  C
  C123     1.0000 0.03770  0.70696  0.49160  Biso   1.000  C
  C124     1.0000 0.53770  0.79304  0.50840  Biso   1.000  C
  C125     1.0000 0.03770  0.79304  0.99160  Biso   1.000  C
  C126     1.0000 0.53770  0.70696  0.00840  Biso   1.000  C
  C127     1.0000 0.96230  0.29304  0.50840  Biso   1.000  C
  C128     1.0000 0.46230  0.20696  0.49160  Biso   1.000  C
  H1       1.0000 0.35580  0.13940  0.75320  Biso   1.000  H
  H2       1.0000 0.85580  0.36060  0.24680  Biso   1.000  H
  H3       1.0000 0.64420  0.63940  0.74680  Biso   1.000  H
  H4       1.0000 0.14420  0.86060  0.25320  Biso   1.000  H
  H5       1.0000 0.64420  0.86060  0.24680  Biso   1.000  H
  H6       1.0000 0.14420  0.63940  0.75320  Biso   1.000  H
  H7       1.0000 0.35580  0.36060  0.25320  Biso   1.000  H
  H8       1.0000 0.85580  0.13940  0.74680  Biso   1.000  H
  H9       1.0000 0.33320  0.11320  0.15470  Biso   1.000  H
  H10      1.0000 0.83320  0.38680  0.84530  Biso   1.000  H
  H11      1.0000 0.66680  0.61320  0.34530  Biso   1.000  H
  H12      1.0000 0.16680  0.88680  0.65470  Biso   1.000  H
  H13      1.0000 0.66680  0.88680  0.84530  Biso   1.000  H
  H14      1.0000 0.16680  0.61320  0.15470  Biso   1.000  H
  H15      1.0000 0.33320  0.38680  0.65470  Biso   1.000  H
  H16      1.0000 0.83320  0.11320  0.34530  Biso   1.000  H
  H17      1.0000 0.09180  0.09960  0.99160  Biso   1.000  H
  H18      1.0000 0.59180  0.40040  0.00840  Biso   1.000  H
  H19      1.0000 0.90820  0.59960  0.50840  Biso   1.000  H
  H20      1.0000 0.40820  0.90040  0.49160  Biso   1.000  H
  H21      1.0000 0.90820  0.90040  0.00840  Biso   1.000  H
  H22      1.0000 0.40820  0.59960  0.99160  Biso   1.000  H
  H23      1.0000 0.09180  0.40040  0.49160  Biso   1.000  H
  H24      1.0000 0.59180  0.09960  0.50840  Biso   1.000  H
  H25      1.0000 0.15370  0.06090  0.05030  Biso   1.000  H
  H26      1.0000 0.65370  0.43910  0.94970  Biso   1.000  H
  H27      1.0000 0.84630  0.56090  0.44970  Biso   1.000  H
  H28      1.0000 0.34630  0.93910  0.55030  Biso   1.000  H
  H29      1.0000 0.84630  0.93910  0.94970  Biso   1.000  H
  H30      1.0000 0.34630  0.56090  0.05030  Biso   1.000  H
  H31      1.0000 0.15370  0.43910  0.55030  Biso   1.000  H
  H32      1.0000 0.65370  0.06090  0.44970  Biso   1.000  H
  H33      1.0000 0.13400  0.10410  0.12220  Biso   1.000  H
  H34      1.0000 0.63400  0.39590  0.87780  Biso   1.000  H
  H35      1.0000 0.86600  0.60410  0.37780  Biso   1.000  H
  H36      1.0000 0.36600  0.89590  0.62220  Biso   1.000  H
  H37      1.0000 0.86600  0.89590  0.87780  Biso   1.000  H
  H38      1.0000 0.36600  0.60410  0.12220  Biso   1.000  H
  H39      1.0000 0.13400  0.39590  0.62220  Biso   1.000  H
  H40      1.0000 0.63400  0.10410  0.37780  Biso   1.000  H
  H41      1.0000 0.58330  0.14690  0.04590  Biso   1.000  H
  H42      1.0000 0.08330  0.35310  0.95410  Biso   1.000  H
  H43      1.0000 0.41670  0.64690  0.45410  Biso   1.000  H
  H44      1.0000 0.91670  0.85310  0.54590  Biso   1.000  H
  H45      1.0000 0.41670  0.85310  0.95410  Biso   1.000  H
  H46      1.0000 0.91670  0.64690  0.04590  Biso   1.000  H
  H47      1.0000 0.58330  0.35310  0.54590  Biso   1.000  H
  H48      1.0000 0.08330  0.14690  0.45410  Biso   1.000  H
  H49      1.0000 0.51180  0.17230  0.13570  Biso   1.000  H
  H50      1.0000 0.01180  0.32770  0.86430  Biso   1.000  H
  H51      1.0000 0.48820  0.67230  0.36430  Biso   1.000  H
  H52      1.0000 0.98820  0.82770  0.63570  Biso   1.000  H
  H53      1.0000 0.48820  0.82770  0.86430  Biso   1.000  H
  H54      1.0000 0.98820  0.67230  0.13570  Biso   1.000  H
  H55      1.0000 0.51180  0.32770  0.63570  Biso   1.000  H
  H56      1.0000 0.01180  0.17230  0.36430  Biso   1.000  H
  H57      1.0000 0.53270  0.12220  0.15400  Biso   1.000  H
  H58      1.0000 0.03270  0.37780  0.84600  Biso   1.000  H
  H59      1.0000 0.46730  0.62220  0.34600  Biso   1.000  H
  H60      1.0000 0.96730  0.87780  0.65400  Biso   1.000  H
  H61      1.0000 0.46730  0.87780  0.84600  Biso   1.000  H
  H62      1.0000 0.96730  0.62220  0.15400  Biso   1.000  H
  H63      1.0000 0.53270  0.37780  0.65400  Biso   1.000  H
  H64      1.0000 0.03270  0.12220  0.34600  Biso   1.000  H
  H65      1.0000 0.14750  0.00750  0.58170  Biso   1.000  H
  H66      1.0000 0.64750  0.49250  0.41830  Biso   1.000  H
  H67      1.0000 0.85250  0.50750  0.91830  Biso   1.000  H
  H68      1.0000 0.35250  0.99250  0.08170  Biso   1.000  H
  H69      1.0000 0.85250  0.99250  0.41830  Biso   1.000  H
  H70      1.0000 0.35250  0.50750  0.58170  Biso   1.000  H
  H71      1.0000 0.14750  0.49250  0.08170  Biso   1.000  H
  H72      1.0000 0.64750  0.00750  0.91830  Biso   1.000  H
  H73      1.0000 0.10180  0.25800  0.90000  Biso   1.000  H
  H74      1.0000 0.60180  0.24200  0.10000  Biso   1.000  H
  H75      1.0000 0.89820  0.75800  0.60000  Biso   1.000  H
  H76      1.0000 0.39820  0.74200  0.40000  Biso   1.000  H
  H77      1.0000 0.89820  0.74200  0.10000  Biso   1.000  H
  H78      1.0000 0.39820  0.75800  0.90000  Biso   1.000  H
  H79      1.0000 0.10180  0.24200  0.40000  Biso   1.000  H
  H80      1.0000 0.60180  0.25800  0.60000  Biso   1.000  H
