data_image0
_cell_length_a       15.66
_cell_length_b       8.565
_cell_length_c       9.003
_cell_angle_alpha    90
_cell_angle_beta     91.44
_cell_angle_gamma    90

_symmetry_space_group_name_H-M    "P 1"
_symmetry_int_tables_number       1

loop_
  _symmetry_equiv_pos_as_xyz
  'x, y, z'

loop_
  _atom_site_label
  _atom_site_occupancy
  _atom_site_fract_x
  _atom_site_fract_y
  _atom_site_fract_z
  _atom_site_thermal_displace_type
  _atom_site_B_iso_or_equiv
  _atom_site_type_symbol
  Cu1      1.0000 0.00000  0.00000  0.00000  Biso   1.000  Cu
  Cu2      1.0000 0.50000  0.50000  0.00000  Biso   1.000  Cu
  F1       1.0000 0.08610  0.00000  0.53410  Biso   1.000  F
  F2       1.0000 0.58610  0.50000  0.53410  Biso   1.000  F
  F3       1.0000 0.91390  0.00000  0.46590  Biso   1.000  F
  F4       1.0000 0.41390  0.50000  0.46590  Biso   1.000  F
  F5       1.0000 0.19580  0.87770  0.58740  Biso   1.000  F
  F6       1.0000 0.69580  0.37770  0.58740  Biso   1.000  F
  F7       1.0000 0.80420  0.87770  0.41260  Biso   1.000  F
  F8       1.0000 0.30420  0.37770  0.41260  Biso   1.000  F
  F9       1.0000 0.80420  0.12230  0.41260  Biso   1.000  F
  F10      1.0000 0.30420  0.62230  0.41260  Biso   1.000  F
  F11      1.0000 0.19580  0.12230  0.58740  Biso   1.000  F
  F12      1.0000 0.69580  0.62230  0.58740  Biso   1.000  F
  F13      1.0000 0.23820  0.00000  0.27970  Biso   1.000  F
  F14      1.0000 0.73820  0.50000  0.27970  Biso   1.000  F
  F15      1.0000 0.76180  0.00000  0.72030  Biso   1.000  F
  F16      1.0000 0.26180  0.50000  0.72030  Biso   1.000  F
  F17      1.0000 0.30520  0.11720  0.12440  Biso   1.000  F
  F18      1.0000 0.80520  0.61720  0.12440  Biso   1.000  F
  F19      1.0000 0.69480  0.11720  0.87560  Biso   1.000  F
  F20      1.0000 0.19480  0.61720  0.87560  Biso   1.000  F
  F21      1.0000 0.69480  0.88280  0.87560  Biso   1.000  F
  F22      1.0000 0.19480  0.38280  0.87560  Biso   1.000  F
  F23      1.0000 0.30520  0.88280  0.12440  Biso   1.000  F
  F24      1.0000 0.80520  0.38280  0.12440  Biso   1.000  F
  F25      1.0000 0.22510  0.00000  0.60700  Biso   1.000  F
  F26      1.0000 0.72510  0.50000  0.60700  Biso   1.000  F
  F27      1.0000 0.77490  0.00000  0.39300  Biso   1.000  F
  F28      1.0000 0.27490  0.50000  0.39300  Biso   1.000  F
  F29      1.0000 0.11210  0.89030  0.56260  Biso   1.000  F
  F30      1.0000 0.61210  0.39030  0.56260  Biso   1.000  F
  F31      1.0000 0.88790  0.89030  0.43740  Biso   1.000  F
  F32      1.0000 0.38790  0.39030  0.43740  Biso   1.000  F
  F33      1.0000 0.88790  0.10970  0.43740  Biso   1.000  F
  F34      1.0000 0.38790  0.60970  0.43740  Biso   1.000  F
  F35      1.0000 0.11210  0.10970  0.56260  Biso   1.000  F
  F36      1.0000 0.61210  0.60970  0.56260  Biso   1.000  F
  F37      1.0000 0.32490  0.00000  0.09640  Biso   1.000  F
  F38      1.0000 0.82490  0.50000  0.09640  Biso   1.000  F
  F39      1.0000 0.67510  0.00000  0.90360  Biso   1.000  F
  F40      1.0000 0.17510  0.50000  0.90360  Biso   1.000  F
  F41      1.0000 0.24820  0.11480  0.23950  Biso   1.000  F
  F42      1.0000 0.74820  0.61480  0.23950  Biso   1.000  F
  F43      1.0000 0.75180  0.11480  0.76050  Biso   1.000  F
  F44      1.0000 0.25180  0.61480  0.76050  Biso   1.000  F
  F45      1.0000 0.75180  0.88520  0.76050  Biso   1.000  F
  F46      1.0000 0.25180  0.38520  0.76050  Biso   1.000  F
  F47      1.0000 0.24820  0.88520  0.23950  Biso   1.000  F
  F48      1.0000 0.74820  0.38520  0.23950  Biso   1.000  F
  O1       1.0000 0.05140  0.00000  0.80920  Biso   1.000  O
  O2       1.0000 0.55140  0.50000  0.80920  Biso   1.000  O
  O3       1.0000 0.94860  0.00000  0.19080  Biso   1.000  O
  O4       1.0000 0.44860  0.50000  0.19080  Biso   1.000  O
  O5       1.0000 0.10990  0.00000  0.10020  Biso   1.000  O
  O6       1.0000 0.60990  0.50000  0.10020  Biso   1.000  O
  O7       1.0000 0.89010  0.00000  0.89980  Biso   1.000  O
  O8       1.0000 0.39010  0.50000  0.89980  Biso   1.000  O
  N1       1.0000 0.00000  0.33350  0.00000  Biso   1.000  N
  N2       1.0000 0.50000  0.83350  0.00000  Biso   1.000  N
  N3       1.0000 0.00000  0.66650  0.00000  Biso   1.000  N
  N4       1.0000 0.50000  0.16650  0.00000  Biso   1.000  N
  C1       1.0000 0.02580  0.41680  0.11930  Biso   1.000  C
  C2       1.0000 0.52580  0.91680  0.11930  Biso   1.000  C
  C3       1.0000 0.97420  0.41680  0.88070  Biso   1.000  C
  C4       1.0000 0.47420  0.91680  0.88070  Biso   1.000  C
  C5       1.0000 0.97420  0.58320  0.88070  Biso   1.000  C
  C6       1.0000 0.47420  0.08320  0.88070  Biso   1.000  C
  C7       1.0000 0.02580  0.58320  0.11930  Biso   1.000  C
  C8       1.0000 0.52580  0.08320  0.11930  Biso   1.000  C
  C9       1.0000 0.05490  0.33580  0.24830  Biso   1.000  C
  C10      1.0000 0.55490  0.83580  0.24830  Biso   1.000  C
  C11      1.0000 0.94510  0.33580  0.75170  Biso   1.000  C
  C12      1.0000 0.44510  0.83580  0.75170  Biso   1.000  C
  C13      1.0000 0.94510  0.66420  0.75170  Biso   1.000  C
  C14      1.0000 0.44510  0.16420  0.75170  Biso   1.000  C
  C15      1.0000 0.05490  0.66420  0.24830  Biso   1.000  C
  C16      1.0000 0.55490  0.16420  0.24830  Biso   1.000  C
  C17      1.0000 0.08220  0.41820  0.36950  Biso   1.000  C
  C18      1.0000 0.58220  0.91820  0.36950  Biso   1.000  C
  C19      1.0000 0.91780  0.41820  0.63050  Biso   1.000  C
  C20      1.0000 0.41780  0.91820  0.63050  Biso   1.000  C
  C21      1.0000 0.91780  0.58180  0.63050  Biso   1.000  C
  C22      1.0000 0.41780  0.08180  0.63050  Biso   1.000  C
  C23      1.0000 0.08220  0.58180  0.36950  Biso   1.000  C
  C24      1.0000 0.58220  0.08180  0.36950  Biso   1.000  C
  C25      1.0000 0.15150  0.00000  0.62330  Biso   1.000  C
  C26      1.0000 0.65150  0.50000  0.62330  Biso   1.000  C
  C27      1.0000 0.84850  0.00000  0.37670  Biso   1.000  C
  C28      1.0000 0.34850  0.50000  0.37670  Biso   1.000  C
  C29      1.0000 0.12820  0.00000  0.78700  Biso   1.000  C
  C30      1.0000 0.62820  0.50000  0.78700  Biso   1.000  C
  C31      1.0000 0.87180  0.00000  0.21300  Biso   1.000  C
  C32      1.0000 0.37180  0.50000  0.21300  Biso   1.000  C
  C33      1.0000 0.19520  0.00000  0.89110  Biso   1.000  C
  C34      1.0000 0.69520  0.50000  0.89110  Biso   1.000  C
  C35      1.0000 0.80480  0.00000  0.10890  Biso   1.000  C
  C36      1.0000 0.30480  0.50000  0.10890  Biso   1.000  C
  C37      1.0000 0.17940  0.00000  0.04010  Biso   1.000  C
  C38      1.0000 0.67940  0.50000  0.04010  Biso   1.000  C
  C39      1.0000 0.82060  0.00000  0.95990  Biso   1.000  C
  C40      1.0000 0.32060  0.50000  0.95990  Biso   1.000  C
  C41      1.0000 0.25550  0.00000  0.14740  Biso   1.000  C
  C42      1.0000 0.75550  0.50000  0.14740  Biso   1.000  C
  C43      1.0000 0.74450  0.00000  0.85260  Biso   1.000  C
  C44      1.0000 0.24450  0.50000  0.85260  Biso   1.000  C
  H1       1.0000 0.05660  0.21320  0.25470  Biso   1.000  H
  H2       1.0000 0.55660  0.71320  0.25470  Biso   1.000  H
  H3       1.0000 0.94340  0.21320  0.74530  Biso   1.000  H
  H4       1.0000 0.44340  0.71320  0.74530  Biso   1.000  H
  H5       1.0000 0.94340  0.78680  0.74530  Biso   1.000  H
  H6       1.0000 0.44340  0.28680  0.74530  Biso   1.000  H
  H7       1.0000 0.05660  0.78680  0.25470  Biso   1.000  H
  H8       1.0000 0.55660  0.28680  0.25470  Biso   1.000  H
  H9       1.0000 0.11050  0.36010  0.46450  Biso   1.000  H
  H10      1.0000 0.61050  0.86010  0.46450  Biso   1.000  H
  H11      1.0000 0.88950  0.36010  0.53550  Biso   1.000  H
  H12      1.0000 0.38950  0.86010  0.53550  Biso   1.000  H
  H13      1.0000 0.88950  0.63990  0.53550  Biso   1.000  H
  H14      1.0000 0.38950  0.13990  0.53550  Biso   1.000  H
  H15      1.0000 0.11050  0.63990  0.46450  Biso   1.000  H
  H16      1.0000 0.61050  0.13990  0.46450  Biso   1.000  H
  H17      1.0000 0.25370  0.00000  0.86060  Biso   1.000  H
  H18      1.0000 0.75370  0.50000  0.86060  Biso   1.000  H
  H19      1.0000 0.74630  0.00000  0.13940  Biso   1.000  H
  H20      1.0000 0.24630  0.50000  0.13940  Biso   1.000  H
