data_image0
_cell_length_a       26.9909
_cell_length_b       26.9909
_cell_length_c       6.9875
_cell_angle_alpha    90
_cell_angle_beta     90
_cell_angle_gamma    120

_symmetry_space_group_name_H-M    "P 1"
_symmetry_int_tables_number       1

loop_
  _symmetry_equiv_pos_as_xyz
  'x, y, z'

loop_
  _atom_site_label
  _atom_site_occupancy
  _atom_site_fract_x
  _atom_site_fract_y
  _atom_site_fract_z
  _atom_site_thermal_displace_type
  _atom_site_B_iso_or_equiv
  _atom_site_type_symbol
  O1       1.0000 0.00000  0.00000  0.16800  Biso   1.000  O
  O2       1.0000 0.66667  0.33333  0.50133  Biso   1.000  O
  O3       1.0000 0.33333  0.66667  0.83467  Biso   1.000  O
  O4       1.0000 0.00000  0.00000  0.83200  Biso   1.000  O
  O5       1.0000 0.66667  0.33333  0.16533  Biso   1.000  O
  O6       1.0000 0.33333  0.66667  0.49867  Biso   1.000  O
  C1       1.0000 0.00000  0.00000  0.37700  Biso   1.000  C
  C2       1.0000 0.66667  0.33333  0.71033  Biso   1.000  C
  C3       1.0000 0.33333  0.66667  0.04367  Biso   1.000  C
  C4       1.0000 0.00000  0.00000  0.62300  Biso   1.000  C
  C5       1.0000 0.66667  0.33333  0.95633  Biso   1.000  C
  C6       1.0000 0.33333  0.66667  0.28967  Biso   1.000  C
  Cu1      1.0000 0.12374  0.34577  0.23897  Biso   1.000  Cu
  Cu2      1.0000 0.65423  0.77797  0.23897  Biso   1.000  Cu
  Cu3      1.0000 0.22203  0.87626  0.23897  Biso   1.000  Cu
  Cu4      1.0000 0.79040  0.67910  0.57230  Biso   1.000  Cu
  Cu5      1.0000 0.32090  0.11130  0.57230  Biso   1.000  Cu
  Cu6      1.0000 0.88870  0.20960  0.57230  Biso   1.000  Cu
  Cu7      1.0000 0.45707  0.01244  0.90564  Biso   1.000  Cu
  Cu8      1.0000 0.98756  0.44463  0.90564  Biso   1.000  Cu
  Cu9      1.0000 0.55537  0.54293  0.90564  Biso   1.000  Cu
  Cu10     1.0000 0.87626  0.65423  0.76103  Biso   1.000  Cu
  Cu11     1.0000 0.34577  0.22204  0.76103  Biso   1.000  Cu
  Cu12     1.0000 0.77797  0.12374  0.76103  Biso   1.000  Cu
  Cu13     1.0000 0.54293  0.98756  0.09436  Biso   1.000  Cu
  Cu14     1.0000 0.01244  0.55537  0.09436  Biso   1.000  Cu
  Cu15     1.0000 0.44463  0.45707  0.09436  Biso   1.000  Cu
  Cu16     1.0000 0.20960  0.32090  0.42770  Biso   1.000  Cu
  Cu17     1.0000 0.67910  0.88870  0.42770  Biso   1.000  Cu
  Cu18     1.0000 0.11130  0.79040  0.42770  Biso   1.000  Cu
  O7       1.0000 0.09655  0.39993  0.24720  Biso   1.000  O
  O8       1.0000 0.60007  0.69662  0.24720  Biso   1.000  O
  O9       1.0000 0.30338  0.90345  0.24720  Biso   1.000  O
  O10      1.0000 0.76322  0.73326  0.58053  Biso   1.000  O
  O11      1.0000 0.26674  0.02995  0.58053  Biso   1.000  O
  O12      1.0000 0.97005  0.23678  0.58053  Biso   1.000  O
  O13      1.0000 0.42988  0.06660  0.91387  Biso   1.000  O
  O14      1.0000 0.93340  0.36329  0.91387  Biso   1.000  O
  O15      1.0000 0.63671  0.57012  0.91387  Biso   1.000  O
  O16      1.0000 0.90345  0.60007  0.75280  Biso   1.000  O
  O17      1.0000 0.39993  0.30338  0.75280  Biso   1.000  O
  O18      1.0000 0.69662  0.09655  0.75280  Biso   1.000  O
  O19      1.0000 0.57012  0.93340  0.08613  Biso   1.000  O
  O20      1.0000 0.06660  0.63671  0.08613  Biso   1.000  O
  O21      1.0000 0.36329  0.42988  0.08613  Biso   1.000  O
  O22      1.0000 0.23678  0.26674  0.41947  Biso   1.000  O
  O23      1.0000 0.73326  0.97005  0.41947  Biso   1.000  O
  O24      1.0000 0.02995  0.76322  0.41947  Biso   1.000  O
  O25      1.0000 0.05387  0.43736  0.08120  Biso   1.000  O
  O26      1.0000 0.56264  0.61651  0.08120  Biso   1.000  O
  O27      1.0000 0.38349  0.94613  0.08120  Biso   1.000  O
  O28      1.0000 0.72054  0.77069  0.41453  Biso   1.000  O
  O29      1.0000 0.22931  0.94984  0.41453  Biso   1.000  O
  O30      1.0000 0.05016  0.27946  0.41453  Biso   1.000  O
  O31      1.0000 0.38720  0.10403  0.74787  Biso   1.000  O
  O32      1.0000 0.89597  0.28318  0.74787  Biso   1.000  O
  O33      1.0000 0.71682  0.61280  0.74787  Biso   1.000  O
  O34      1.0000 0.94613  0.56264  0.91880  Biso   1.000  O
  O35      1.0000 0.43736  0.38349  0.91880  Biso   1.000  O
  O36      1.0000 0.61651  0.05387  0.91880  Biso   1.000  O
  O37      1.0000 0.61280  0.89597  0.25213  Biso   1.000  O
  O38      1.0000 0.10403  0.71682  0.25213  Biso   1.000  O
  O39      1.0000 0.28318  0.38720  0.25213  Biso   1.000  O
  O40      1.0000 0.27946  0.22931  0.58547  Biso   1.000  O
  O41      1.0000 0.77069  0.05016  0.58547  Biso   1.000  O
  O42      1.0000 0.94984  0.72054  0.58547  Biso   1.000  O
  O43      1.0000 0.15487  0.29488  0.20910  Biso   1.000  O
  O44      1.0000 0.70512  0.85999  0.20910  Biso   1.000  O
  O45      1.0000 0.14001  0.84513  0.20910  Biso   1.000  O
  O46      1.0000 0.82154  0.62821  0.54243  Biso   1.000  O
  O47      1.0000 0.37179  0.19332  0.54243  Biso   1.000  O
  O48      1.0000 0.80668  0.17846  0.54243  Biso   1.000  O
  O49      1.0000 0.48820  0.96155  0.87577  Biso   1.000  O
  O50      1.0000 0.03845  0.52666  0.87577  Biso   1.000  O
  O51      1.0000 0.47334  0.51180  0.87577  Biso   1.000  O
  O52      1.0000 0.84513  0.70512  0.79090  Biso   1.000  O
  O53      1.0000 0.29488  0.14001  0.79090  Biso   1.000  O
  O54      1.0000 0.85999  0.15487  0.79090  Biso   1.000  O
  O55      1.0000 0.51180  0.03845  0.12423  Biso   1.000  O
  O56      1.0000 0.96155  0.47334  0.12423  Biso   1.000  O
  O57      1.0000 0.52666  0.48820  0.12423  Biso   1.000  O
  O58      1.0000 0.17846  0.37179  0.45757  Biso   1.000  O
  O59      1.0000 0.62821  0.80668  0.45757  Biso   1.000  O
  O60      1.0000 0.19332  0.82154  0.45757  Biso   1.000  O
  N1       1.0000 0.09280  0.33118  0.98340  Biso   1.000  N
  N2       1.0000 0.66882  0.76162  0.98340  Biso   1.000  N
  N3       1.0000 0.23838  0.90720  0.98340  Biso   1.000  N
  N4       1.0000 0.75947  0.66451  0.31673  Biso   1.000  N
  N5       1.0000 0.33549  0.09495  0.31673  Biso   1.000  N
  N6       1.0000 0.90505  0.24053  0.31673  Biso   1.000  N
  N7       1.0000 0.42613  0.99785  0.65007  Biso   1.000  N
  N8       1.0000 0.00215  0.42829  0.65007  Biso   1.000  N
  N9       1.0000 0.57171  0.57387  0.65007  Biso   1.000  N
  N10      1.0000 0.90720  0.66882  0.01660  Biso   1.000  N
  N11      1.0000 0.33118  0.23838  0.01660  Biso   1.000  N
  N12      1.0000 0.76162  0.09280  0.01660  Biso   1.000  N
  N13      1.0000 0.57387  0.00215  0.34993  Biso   1.000  N
  N14      1.0000 0.99785  0.57171  0.34993  Biso   1.000  N
  N15      1.0000 0.42829  0.42613  0.34993  Biso   1.000  N
  N16      1.0000 0.24053  0.33549  0.68327  Biso   1.000  N
  N17      1.0000 0.66451  0.90505  0.68327  Biso   1.000  N
  N18      1.0000 0.09495  0.75947  0.68327  Biso   1.000  N
  C7       1.0000 0.07341  0.40489  0.09610  Biso   1.000  C
  C8       1.0000 0.59511  0.66852  0.09610  Biso   1.000  C
  C9       1.0000 0.33148  0.92659  0.09610  Biso   1.000  C
  C10      1.0000 0.74008  0.73822  0.42943  Biso   1.000  C
  C11      1.0000 0.26178  0.00185  0.42943  Biso   1.000  C
  C12      1.0000 0.99815  0.25992  0.42943  Biso   1.000  C
  C13      1.0000 0.40674  0.07156  0.76277  Biso   1.000  C
  C14      1.0000 0.92844  0.33519  0.76277  Biso   1.000  C
  C15      1.0000 0.66481  0.59326  0.76277  Biso   1.000  C
  C16      1.0000 0.92659  0.59511  0.90390  Biso   1.000  C
  C17      1.0000 0.40489  0.33148  0.90390  Biso   1.000  C
  C18      1.0000 0.66852  0.07341  0.90390  Biso   1.000  C
  C19      1.0000 0.59326  0.92844  0.23723  Biso   1.000  C
  C20      1.0000 0.07156  0.66481  0.23723  Biso   1.000  C
  C21      1.0000 0.33519  0.40674  0.23723  Biso   1.000  C
  C22      1.0000 0.25992  0.26178  0.57057  Biso   1.000  C
  C23      1.0000 0.73822  0.99815  0.57057  Biso   1.000  C
  C24      1.0000 0.00185  0.74008  0.57057  Biso   1.000  C
  C25      1.0000 0.06963  0.36785  0.92750  Biso   1.000  C
  C26      1.0000 0.63215  0.70178  0.92750  Biso   1.000  C
  C27      1.0000 0.29822  0.93037  0.92750  Biso   1.000  C
  C28      1.0000 0.73630  0.70118  0.26083  Biso   1.000  C
  C29      1.0000 0.29882  0.03511  0.26083  Biso   1.000  C
  C30      1.0000 0.96489  0.26370  0.26083  Biso   1.000  C
  C31      1.0000 0.40296  0.03452  0.59417  Biso   1.000  C
  C32      1.0000 0.96548  0.36845  0.59417  Biso   1.000  C
  C33      1.0000 0.63155  0.59704  0.59417  Biso   1.000  C
  C34      1.0000 0.93037  0.63215  0.07250  Biso   1.000  C
  C35      1.0000 0.36785  0.29822  0.07250  Biso   1.000  C
  C36      1.0000 0.70178  0.06963  0.07250  Biso   1.000  C
  C37      1.0000 0.59704  0.96548  0.40583  Biso   1.000  C
  C38      1.0000 0.03452  0.63155  0.40583  Biso   1.000  C
  C39      1.0000 0.36845  0.40296  0.40583  Biso   1.000  C
  C40      1.0000 0.26370  0.29882  0.73917  Biso   1.000  C
  C41      1.0000 0.70118  0.96489  0.73917  Biso   1.000  C
  C42      1.0000 0.03511  0.73630  0.73917  Biso   1.000  C
  H1       1.0000 0.03010  0.34450  0.88800  Biso   1.000  H
  H2       1.0000 0.65550  0.68560  0.88800  Biso   1.000  H
  H3       1.0000 0.31440  0.96990  0.88800  Biso   1.000  H
  H4       1.0000 0.69677  0.67783  0.22133  Biso   1.000  H
  H5       1.0000 0.32217  0.01893  0.22133  Biso   1.000  H
  H6       1.0000 0.98107  0.30323  0.22133  Biso   1.000  H
  H7       1.0000 0.36343  0.01117  0.55467  Biso   1.000  H
  H8       1.0000 0.98883  0.35227  0.55467  Biso   1.000  H
  H9       1.0000 0.64773  0.63657  0.55467  Biso   1.000  H
  H10      1.0000 0.96990  0.65550  0.11200  Biso   1.000  H
  H11      1.0000 0.34450  0.31440  0.11200  Biso   1.000  H
  H12      1.0000 0.68560  0.03010  0.11200  Biso   1.000  H
  H13      1.0000 0.63657  0.98883  0.44533  Biso   1.000  H
  H14      1.0000 0.01117  0.64773  0.44533  Biso   1.000  H
  H15      1.0000 0.35227  0.36343  0.44533  Biso   1.000  H
  H16      1.0000 0.30323  0.32217  0.77867  Biso   1.000  H
  H17      1.0000 0.67783  0.98107  0.77867  Biso   1.000  H
  H18      1.0000 0.01893  0.69677  0.77867  Biso   1.000  H
  H19      1.0000 0.09120  0.39180  0.82050  Biso   1.000  H
  H20      1.0000 0.60820  0.69940  0.82050  Biso   1.000  H
  H21      1.0000 0.30060  0.90880  0.82050  Biso   1.000  H
  H22      1.0000 0.75787  0.72513  0.15383  Biso   1.000  H
  H23      1.0000 0.27487  0.03273  0.15383  Biso   1.000  H
  H24      1.0000 0.96727  0.24213  0.15383  Biso   1.000  H
  H25      1.0000 0.42453  0.05847  0.48717  Biso   1.000  H
  H26      1.0000 0.94153  0.36607  0.48717  Biso   1.000  H
  H27      1.0000 0.63393  0.57547  0.48717  Biso   1.000  H
  H28      1.0000 0.90880  0.60820  0.17950  Biso   1.000  H
  H29      1.0000 0.39180  0.30060  0.17950  Biso   1.000  H
  H30      1.0000 0.69940  0.09120  0.17950  Biso   1.000  H
  H31      1.0000 0.57547  0.94153  0.51283  Biso   1.000  H
  H32      1.0000 0.05847  0.63393  0.51283  Biso   1.000  H
  H33      1.0000 0.36607  0.42453  0.51283  Biso   1.000  H
  H34      1.0000 0.24213  0.27487  0.84617  Biso   1.000  H
  H35      1.0000 0.72513  0.96727  0.84617  Biso   1.000  H
  H36      1.0000 0.03273  0.75787  0.84617  Biso   1.000  H
  C43      1.0000 0.09230  0.29536  0.86370  Biso   1.000  C
  C44      1.0000 0.70464  0.79694  0.86370  Biso   1.000  C
  C45      1.0000 0.20306  0.90770  0.86370  Biso   1.000  C
  C46      1.0000 0.75897  0.62869  0.19703  Biso   1.000  C
  C47      1.0000 0.37131  0.13027  0.19703  Biso   1.000  C
  C48      1.0000 0.86973  0.24103  0.19703  Biso   1.000  C
  C49      1.0000 0.42563  0.96203  0.53037  Biso   1.000  C
  C50      1.0000 0.03797  0.46361  0.53037  Biso   1.000  C
  C51      1.0000 0.53639  0.57437  0.53037  Biso   1.000  C
  C52      1.0000 0.90770  0.70464  0.13630  Biso   1.000  C
  C53      1.0000 0.29536  0.20306  0.13630  Biso   1.000  C
  C54      1.0000 0.79694  0.09230  0.13630  Biso   1.000  C
  C55      1.0000 0.57437  0.03797  0.46963  Biso   1.000  C
  C56      1.0000 0.96203  0.53639  0.46963  Biso   1.000  C
  C57      1.0000 0.46361  0.42563  0.46963  Biso   1.000  C
  C58      1.0000 0.24103  0.37131  0.80297  Biso   1.000  C
  C59      1.0000 0.62869  0.86973  0.80297  Biso   1.000  C
  C60      1.0000 0.13027  0.75897  0.80297  Biso   1.000  C
  H37      1.0000 0.07780  0.29460  0.74230  Biso   1.000  H
  H38      1.0000 0.70540  0.78320  0.74230  Biso   1.000  H
  H39      1.0000 0.21680  0.92220  0.74230  Biso   1.000  H
  H40      1.0000 0.74447  0.62793  0.07563  Biso   1.000  H
  H41      1.0000 0.37207  0.11653  0.07563  Biso   1.000  H
  H42      1.0000 0.88347  0.25553  0.07563  Biso   1.000  H
  H43      1.0000 0.41113  0.96127  0.40897  Biso   1.000  H
  H44      1.0000 0.03873  0.44987  0.40897  Biso   1.000  H
  H45      1.0000 0.55013  0.58887  0.40897  Biso   1.000  H
  H46      1.0000 0.92220  0.70540  0.25770  Biso   1.000  H
  H47      1.0000 0.29460  0.21680  0.25770  Biso   1.000  H
  H48      1.0000 0.78320  0.07780  0.25770  Biso   1.000  H
  H49      1.0000 0.58887  0.03873  0.59103  Biso   1.000  H
  H50      1.0000 0.96127  0.55013  0.59103  Biso   1.000  H
  H51      1.0000 0.44987  0.41113  0.59103  Biso   1.000  H
  H52      1.0000 0.25553  0.37207  0.92437  Biso   1.000  H
  H53      1.0000 0.62793  0.88347  0.92437  Biso   1.000  H
  H54      1.0000 0.11653  0.74447  0.92437  Biso   1.000  H
  C61      1.0000 0.11247  0.25590  0.90180  Biso   1.000  C
  C62      1.0000 0.74410  0.85657  0.90180  Biso   1.000  C
  C63      1.0000 0.14343  0.88753  0.90180  Biso   1.000  C
  C64      1.0000 0.77914  0.58923  0.23513  Biso   1.000  C
  C65      1.0000 0.41077  0.18990  0.23513  Biso   1.000  C
  C66      1.0000 0.81010  0.22086  0.23513  Biso   1.000  C
  C67      1.0000 0.44580  0.92257  0.56847  Biso   1.000  C
  C68      1.0000 0.07743  0.52324  0.56847  Biso   1.000  C
  C69      1.0000 0.47676  0.55420  0.56847  Biso   1.000  C
  C70      1.0000 0.88753  0.74410  0.09820  Biso   1.000  C
  C71      1.0000 0.25590  0.14343  0.09820  Biso   1.000  C
  C72      1.0000 0.85657  0.11247  0.09820  Biso   1.000  C
  C73      1.0000 0.55420  0.07743  0.43153  Biso   1.000  C
  C74      1.0000 0.92257  0.47676  0.43153  Biso   1.000  C
  C75      1.0000 0.52324  0.44580  0.43153  Biso   1.000  C
  C76      1.0000 0.22086  0.41077  0.76487  Biso   1.000  C
  C77      1.0000 0.58923  0.81010  0.76487  Biso   1.000  C
  C78      1.0000 0.18990  0.77914  0.76487  Biso   1.000  C
  C79      1.0000 0.10215  0.21579  0.75650  Biso   1.000  C
  C80      1.0000 0.78421  0.88636  0.75650  Biso   1.000  C
  C81      1.0000 0.11364  0.89785  0.75650  Biso   1.000  C
  C82      1.0000 0.76882  0.54912  0.08983  Biso   1.000  C
  C83      1.0000 0.45088  0.21969  0.08983  Biso   1.000  C
  C84      1.0000 0.78031  0.23118  0.08983  Biso   1.000  C
  C85      1.0000 0.43548  0.88246  0.42317  Biso   1.000  C
  C86      1.0000 0.11754  0.55303  0.42317  Biso   1.000  C
  C87      1.0000 0.44697  0.56452  0.42317  Biso   1.000  C
  C88      1.0000 0.89785  0.78421  0.24350  Biso   1.000  C
  C89      1.0000 0.21579  0.11364  0.24350  Biso   1.000  C
  C90      1.0000 0.88636  0.10215  0.24350  Biso   1.000  C
  C91      1.0000 0.56452  0.11754  0.57683  Biso   1.000  C
  C92      1.0000 0.88246  0.44697  0.57683  Biso   1.000  C
  C93      1.0000 0.55303  0.43548  0.57683  Biso   1.000  C
  C94      1.0000 0.23118  0.45088  0.91017  Biso   1.000  C
  C95      1.0000 0.54912  0.78031  0.91017  Biso   1.000  C
  C96      1.0000 0.21969  0.76882  0.91017  Biso   1.000  C
  H55      1.0000 0.08550  0.21770  0.64240  Biso   1.000  H
  H56      1.0000 0.78230  0.86780  0.64240  Biso   1.000  H
  H57      1.0000 0.13220  0.91450  0.64240  Biso   1.000  H
  H58      1.0000 0.75217  0.55103  0.97573  Biso   1.000  H
  H59      1.0000 0.44897  0.20113  0.97573  Biso   1.000  H
  H60      1.0000 0.79887  0.24783  0.97573  Biso   1.000  H
  H61      1.0000 0.41883  0.88437  0.30907  Biso   1.000  H
  H62      1.0000 0.11563  0.53447  0.30907  Biso   1.000  H
  H63      1.0000 0.46553  0.58117  0.30907  Biso   1.000  H
  H64      1.0000 0.91450  0.78230  0.35760  Biso   1.000  H
  H65      1.0000 0.21770  0.13220  0.35760  Biso   1.000  H
  H66      1.0000 0.86780  0.08550  0.35760  Biso   1.000  H
  H67      1.0000 0.58117  0.11563  0.69093  Biso   1.000  H
  H68      1.0000 0.88437  0.46553  0.69093  Biso   1.000  H
  H69      1.0000 0.53447  0.41883  0.69093  Biso   1.000  H
  H70      1.0000 0.24783  0.44897  0.02427  Biso   1.000  H
  H71      1.0000 0.55103  0.79887  0.02427  Biso   1.000  H
  H72      1.0000 0.20113  0.75217  0.02427  Biso   1.000  H
  C97      1.0000 0.11619  0.17397  0.78020  Biso   1.000  C
  C98      1.0000 0.82603  0.94222  0.78020  Biso   1.000  C
  C99      1.0000 0.05778  0.88381  0.78020  Biso   1.000  C
  C100     1.0000 0.78286  0.50730  0.11353  Biso   1.000  C
  C101     1.0000 0.49270  0.27555  0.11353  Biso   1.000  C
  C102     1.0000 0.72445  0.21714  0.11353  Biso   1.000  C
  C103     1.0000 0.44952  0.84064  0.44687  Biso   1.000  C
  C104     1.0000 0.15936  0.60889  0.44687  Biso   1.000  C
  C105     1.0000 0.39111  0.55048  0.44687  Biso   1.000  C
  C106     1.0000 0.88381  0.82603  0.21980  Biso   1.000  C
  C107     1.0000 0.17397  0.05778  0.21980  Biso   1.000  C
  C108     1.0000 0.94222  0.11619  0.21980  Biso   1.000  C
  C109     1.0000 0.55048  0.15936  0.55313  Biso   1.000  C
  C110     1.0000 0.84064  0.39111  0.55313  Biso   1.000  C
  C111     1.0000 0.60889  0.44952  0.55313  Biso   1.000  C
  C112     1.0000 0.21714  0.49270  0.88647  Biso   1.000  C
  C113     1.0000 0.50730  0.72445  0.88647  Biso   1.000  C
  C114     1.0000 0.27555  0.78286  0.88647  Biso   1.000  C
  H73      1.0000 0.10930  0.14780  0.68300  Biso   1.000  H
  H74      1.0000 0.85220  0.96150  0.68300  Biso   1.000  H
  H75      1.0000 0.03850  0.89070  0.68300  Biso   1.000  H
  H76      1.0000 0.77597  0.48113  0.01633  Biso   1.000  H
  H77      1.0000 0.51887  0.29483  0.01633  Biso   1.000  H
  H78      1.0000 0.70517  0.22403  0.01633  Biso   1.000  H
  H79      1.0000 0.44263  0.81447  0.34967  Biso   1.000  H
  H80      1.0000 0.18553  0.62817  0.34967  Biso   1.000  H
  H81      1.0000 0.37183  0.55737  0.34967  Biso   1.000  H
  H82      1.0000 0.89070  0.85220  0.31700  Biso   1.000  H
  H83      1.0000 0.14780  0.03850  0.31700  Biso   1.000  H
  H84      1.0000 0.96150  0.10930  0.31700  Biso   1.000  H
  H85      1.0000 0.55737  0.18553  0.65033  Biso   1.000  H
  H86      1.0000 0.81447  0.37183  0.65033  Biso   1.000  H
  H87      1.0000 0.62817  0.44263  0.65033  Biso   1.000  H
  H88      1.0000 0.22403  0.51887  0.98367  Biso   1.000  H
  H89      1.0000 0.48113  0.70517  0.98367  Biso   1.000  H
  H90      1.0000 0.29483  0.77597  0.98367  Biso   1.000  H
  C115     1.0000 0.14078  0.17129  0.95130  Biso   1.000  C
  C116     1.0000 0.82871  0.96949  0.95130  Biso   1.000  C
  C117     1.0000 0.03051  0.85922  0.95130  Biso   1.000  C
  C118     1.0000 0.80745  0.50462  0.28463  Biso   1.000  C
  C119     1.0000 0.49538  0.30282  0.28463  Biso   1.000  C
  C120     1.0000 0.69718  0.19255  0.28463  Biso   1.000  C
  C121     1.0000 0.47411  0.83796  0.61797  Biso   1.000  C
  C122     1.0000 0.16204  0.63616  0.61797  Biso   1.000  C
  C123     1.0000 0.36384  0.52589  0.61797  Biso   1.000  C
  C124     1.0000 0.85922  0.82871  0.04870  Biso   1.000  C
  C125     1.0000 0.17129  0.03051  0.04870  Biso   1.000  C
  C126     1.0000 0.96949  0.14078  0.04870  Biso   1.000  C
  C127     1.0000 0.52589  0.16204  0.38203  Biso   1.000  C
  C128     1.0000 0.83796  0.36384  0.38203  Biso   1.000  C
  C129     1.0000 0.63616  0.47411  0.38203  Biso   1.000  C
  C130     1.0000 0.19255  0.49538  0.71537  Biso   1.000  C
  C131     1.0000 0.50462  0.69718  0.71537  Biso   1.000  C
  C132     1.0000 0.30282  0.80745  0.71537  Biso   1.000  C
  H91      1.0000 0.14960  0.14240  0.96930  Biso   1.000  H
  H92      1.0000 0.85760  0.00720  0.96930  Biso   1.000  H
  H93      1.0000 0.99280  0.85040  0.96930  Biso   1.000  H
  H94      1.0000 0.81627  0.47573  0.30263  Biso   1.000  H
  H95      1.0000 0.52427  0.34053  0.30263  Biso   1.000  H
  H96      1.0000 0.65947  0.18373  0.30263  Biso   1.000  H
  H97      1.0000 0.48293  0.80907  0.63597  Biso   1.000  H
  H98      1.0000 0.19093  0.67387  0.63597  Biso   1.000  H
  H99      1.0000 0.32613  0.51707  0.63597  Biso   1.000  H
  H100     1.0000 0.85040  0.85760  0.03070  Biso   1.000  H
  H101     1.0000 0.14240  0.99280  0.03070  Biso   1.000  H
  H102     1.0000 0.00720  0.14960  0.03070  Biso   1.000  H
  H103     1.0000 0.51707  0.19093  0.36403  Biso   1.000  H
  H104     1.0000 0.80907  0.32613  0.36403  Biso   1.000  H
  H105     1.0000 0.67387  0.48293  0.36403  Biso   1.000  H
  H106     1.0000 0.18373  0.52427  0.69737  Biso   1.000  H
  H107     1.0000 0.47573  0.65947  0.69737  Biso   1.000  H
  H108     1.0000 0.34053  0.81627  0.69737  Biso   1.000  H
  C133     1.0000 0.15235  0.21037  0.09450  Biso   1.000  C
  C134     1.0000 0.78963  0.94198  0.09450  Biso   1.000  C
  C135     1.0000 0.05802  0.84765  0.09450  Biso   1.000  C
  C136     1.0000 0.81902  0.54370  0.42783  Biso   1.000  C
  C137     1.0000 0.45630  0.27531  0.42783  Biso   1.000  C
  C138     1.0000 0.72469  0.18098  0.42783  Biso   1.000  C
  C139     1.0000 0.48568  0.87704  0.76117  Biso   1.000  C
  C140     1.0000 0.12296  0.60865  0.76117  Biso   1.000  C
  C141     1.0000 0.39135  0.51432  0.76117  Biso   1.000  C
  C142     1.0000 0.84765  0.78963  0.90550  Biso   1.000  C
  C143     1.0000 0.21037  0.05802  0.90550  Biso   1.000  C
  C144     1.0000 0.94198  0.15235  0.90550  Biso   1.000  C
  C145     1.0000 0.51432  0.12296  0.23883  Biso   1.000  C
  C146     1.0000 0.87704  0.39135  0.23883  Biso   1.000  C
  C147     1.0000 0.60865  0.48568  0.23883  Biso   1.000  C
  C148     1.0000 0.18098  0.45630  0.57217  Biso   1.000  C
  C149     1.0000 0.54370  0.72469  0.57217  Biso   1.000  C
  C150     1.0000 0.27531  0.81902  0.57217  Biso   1.000  C
  H109     1.0000 0.16860  0.20730  0.20800  Biso   1.000  H
  H110     1.0000 0.79270  0.96130  0.20800  Biso   1.000  H
  H111     1.0000 0.03870  0.83140  0.20800  Biso   1.000  H
  H112     1.0000 0.83527  0.54063  0.54133  Biso   1.000  H
  H113     1.0000 0.45937  0.29463  0.54133  Biso   1.000  H
  H114     1.0000 0.70537  0.16473  0.54133  Biso   1.000  H
  H115     1.0000 0.50193  0.87397  0.87467  Biso   1.000  H
  H116     1.0000 0.12603  0.62797  0.87467  Biso   1.000  H
  H117     1.0000 0.37203  0.49807  0.87467  Biso   1.000  H
  H118     1.0000 0.83140  0.79270  0.79200  Biso   1.000  H
  H119     1.0000 0.20730  0.03870  0.79200  Biso   1.000  H
  H120     1.0000 0.96130  0.16860  0.79200  Biso   1.000  H
  H121     1.0000 0.49807  0.12603  0.12533  Biso   1.000  H
  H122     1.0000 0.87397  0.37203  0.12533  Biso   1.000  H
  H123     1.0000 0.62797  0.50193  0.12533  Biso   1.000  H
  H124     1.0000 0.16473  0.45937  0.45867  Biso   1.000  H
  H125     1.0000 0.54063  0.70537  0.45867  Biso   1.000  H
  H126     1.0000 0.29463  0.83527  0.45867  Biso   1.000  H
  C151     1.0000 0.14007  0.25493  0.07300  Biso   1.000  C
  C152     1.0000 0.74507  0.88514  0.07300  Biso   1.000  C
  C153     1.0000 0.11486  0.85993  0.07300  Biso   1.000  C
  C154     1.0000 0.80674  0.58826  0.40633  Biso   1.000  C
  C155     1.0000 0.41174  0.21847  0.40633  Biso   1.000  C
  C156     1.0000 0.78153  0.19326  0.40633  Biso   1.000  C
  C157     1.0000 0.47340  0.92160  0.73967  Biso   1.000  C
  C158     1.0000 0.07840  0.55181  0.73967  Biso   1.000  C
  C159     1.0000 0.44819  0.52660  0.73967  Biso   1.000  C
  C160     1.0000 0.85993  0.74507  0.92700  Biso   1.000  C
  C161     1.0000 0.25493  0.11486  0.92700  Biso   1.000  C
  C162     1.0000 0.88514  0.14007  0.92700  Biso   1.000  C
  C163     1.0000 0.52660  0.07840  0.26033  Biso   1.000  C
  C164     1.0000 0.92160  0.44819  0.26033  Biso   1.000  C
  C165     1.0000 0.55181  0.47340  0.26033  Biso   1.000  C
  C166     1.0000 0.19326  0.41174  0.59367  Biso   1.000  C
  C167     1.0000 0.58826  0.78153  0.59367  Biso   1.000  C
  C168     1.0000 0.21847  0.80674  0.59367  Biso   1.000  C
