data_image0
_cell_length_a       7.0515
_cell_length_b       8.1392
_cell_length_c       16.8642
_cell_angle_alpha    90
_cell_angle_beta     90
_cell_angle_gamma    90

_symmetry_space_group_name_H-M    "P 1"
_symmetry_int_tables_number       1

loop_
  _symmetry_equiv_pos_as_xyz
  'x, y, z'

loop_
  _atom_site_label
  _atom_site_occupancy
  _atom_site_fract_x
  _atom_site_fract_y
  _atom_site_fract_z
  _atom_site_thermal_displace_type
  _atom_site_B_iso_or_equiv
  _atom_site_type_symbol
  C1       1.0000 0.90050  0.84230  0.12705  Biso   1.000  C
  C2       1.0000 0.59950  0.15770  0.62705  Biso   1.000  C
  C3       1.0000 0.09950  0.34230  0.37295  Biso   1.000  C
  C4       1.0000 0.40050  0.65770  0.87295  Biso   1.000  C
  H1       1.0000 0.79920  0.76210  0.12270  Biso   1.000  H
  H2       1.0000 0.70080  0.23790  0.62270  Biso   1.000  H
  H3       1.0000 0.20080  0.26210  0.37730  Biso   1.000  H
  H4       1.0000 0.29920  0.73790  0.87730  Biso   1.000  H
  H5       1.0000 0.96470  0.82480  0.17720  Biso   1.000  H
  H6       1.0000 0.53530  0.17520  0.67720  Biso   1.000  H
  H7       1.0000 0.03530  0.32480  0.32280  Biso   1.000  H
  H8       1.0000 0.46470  0.67520  0.82280  Biso   1.000  H
  C5       1.0000 0.95780  0.13200  0.15719  Biso   1.000  C
  C6       1.0000 0.54220  0.86800  0.65719  Biso   1.000  C
  C7       1.0000 0.04220  0.63200  0.34281  Biso   1.000  C
  C8       1.0000 0.45780  0.36800  0.84281  Biso   1.000  C
  H9       1.0000 0.07340  0.12780  0.12610  Biso   1.000  H
  H10      1.0000 0.42660  0.87220  0.62610  Biso   1.000  H
  H11      1.0000 0.92660  0.62780  0.37390  Biso   1.000  H
  H12      1.0000 0.57340  0.37220  0.87390  Biso   1.000  H
  H13      1.0000 0.98910  0.10280  0.21140  Biso   1.000  H
  H14      1.0000 0.51090  0.89720  0.71140  Biso   1.000  H
  H15      1.0000 0.01090  0.60280  0.28860  Biso   1.000  H
  H16      1.0000 0.48910  0.39720  0.78860  Biso   1.000  H
  C9       1.0000 0.87870  0.30460  0.15534  Biso   1.000  C
  C10      1.0000 0.62130  0.69540  0.65534  Biso   1.000  C
  C11      1.0000 0.12130  0.80460  0.34466  Biso   1.000  C
  C12      1.0000 0.37870  0.19540  0.84466  Biso   1.000  C
  H17      1.0000 0.85740  0.33730  0.10080  Biso   1.000  H
  H18      1.0000 0.64260  0.66270  0.60080  Biso   1.000  H
  H19      1.0000 0.14260  0.83730  0.39920  Biso   1.000  H
  H20      1.0000 0.35740  0.16270  0.89920  Biso   1.000  H
  H21      1.0000 0.97040  0.37970  0.17830  Biso   1.000  H
  H22      1.0000 0.52960  0.62030  0.67830  Biso   1.000  H
  H23      1.0000 0.02960  0.87970  0.32170  Biso   1.000  H
  H24      1.0000 0.47040  0.12030  0.82170  Biso   1.000  H
  C13      1.0000 0.69290  0.31590  0.20126  Biso   1.000  C
  C14      1.0000 0.80710  0.68410  0.70126  Biso   1.000  C
  C15      1.0000 0.30710  0.81590  0.29874  Biso   1.000  C
  C16      1.0000 0.19290  0.18410  0.79874  Biso   1.000  C
  H25      1.0000 0.63810  0.42420  0.19410  Biso   1.000  H
  H26      1.0000 0.86190  0.57580  0.69410  Biso   1.000  H
  H27      1.0000 0.36190  0.92420  0.30590  Biso   1.000  H
  H28      1.0000 0.13810  0.07580  0.80590  Biso   1.000  H
  H29      1.0000 0.71750  0.30060  0.25740  Biso   1.000  H
  H30      1.0000 0.78250  0.69940  0.75740  Biso   1.000  H
  H31      1.0000 0.28250  0.80060  0.24260  Biso   1.000  H
  H32      1.0000 0.21750  0.19940  0.74260  Biso   1.000  H
  C17      1.0000 0.55160  0.18490  0.17263  Biso   1.000  C
  C18      1.0000 0.94840  0.81510  0.67263  Biso   1.000  C
  C19      1.0000 0.44840  0.68490  0.32737  Biso   1.000  C
  C20      1.0000 0.05160  0.31510  0.82737  Biso   1.000  C
  H33      1.0000 0.44630  0.18250  0.21050  Biso   1.000  H
  H34      1.0000 0.05370  0.81750  0.71050  Biso   1.000  H
  H35      1.0000 0.55370  0.68250  0.28950  Biso   1.000  H
  H36      1.0000 0.94630  0.31750  0.78950  Biso   1.000  H
  C21      1.0000 0.64300  0.01570  0.17306  Biso   1.000  C
  C22      1.0000 0.85700  0.98430  0.67306  Biso   1.000  C
  C23      1.0000 0.35700  0.51570  0.32694  Biso   1.000  C
  C24      1.0000 0.14300  0.48430  0.82694  Biso   1.000  C
  H37      1.0000 0.67240  0.98500  0.22720  Biso   1.000  H
  H38      1.0000 0.82760  0.01500  0.72720  Biso   1.000  H
  H39      1.0000 0.32760  0.48500  0.27280  Biso   1.000  H
  H40      1.0000 0.17240  0.51500  0.77280  Biso   1.000  H
  H41      1.0000 0.55360  0.93600  0.15220  Biso   1.000  H
  H42      1.0000 0.94640  0.06400  0.65220  Biso   1.000  H
  H43      1.0000 0.44640  0.43600  0.34780  Biso   1.000  H
  H44      1.0000 0.05360  0.56400  0.84780  Biso   1.000  H
  C25      1.0000 0.47160  0.23690  0.09308  Biso   1.000  C
  C26      1.0000 0.02840  0.76310  0.59308  Biso   1.000  C
  C27      1.0000 0.52840  0.73690  0.40692  Biso   1.000  C
  C28      1.0000 0.97160  0.26310  0.90692  Biso   1.000  C
  Cu1      1.0000 0.77696  0.06657  0.00729  Biso   1.000  Cu
  Cu2      1.0000 0.72304  0.93343  0.50729  Biso   1.000  Cu
  Cu3      1.0000 0.22304  0.56657  0.49271  Biso   1.000  Cu
  Cu4      1.0000 0.27696  0.43343  0.99271  Biso   1.000  Cu
  N1       1.0000 0.81930  0.01110  0.12498  Biso   1.000  N
  N2       1.0000 0.68070  0.98890  0.62498  Biso   1.000  N
  N3       1.0000 0.18070  0.51110  0.37502  Biso   1.000  N
  N4       1.0000 0.31930  0.48890  0.87502  Biso   1.000  N
  O1       1.0000 0.32360  0.32320  0.09494  Biso   1.000  O
  O2       1.0000 0.17640  0.67680  0.59494  Biso   1.000  O
  O3       1.0000 0.67640  0.82320  0.40506  Biso   1.000  O
  O4       1.0000 0.82360  0.17680  0.90506  Biso   1.000  O
  O5       1.0000 0.55400  0.20090  0.02881  Biso   1.000  O
  O6       1.0000 0.94600  0.79910  0.52881  Biso   1.000  O
  O7       1.0000 0.44600  0.70090  0.47119  Biso   1.000  O
  O8       1.0000 0.05400  0.29910  0.97119  Biso   1.000  O
  O9       1.0000 0.99910  0.93030  0.98332  Biso   1.000  O
  O10      1.0000 0.50090  0.06970  0.48332  Biso   1.000  O
  O11      1.0000 0.00090  0.43030  0.51668  Biso   1.000  O
  O12      1.0000 0.49910  0.56970  0.01668  Biso   1.000  O
  O13      1.0000 0.06880  0.63890  0.01957  Biso   1.000  O
  O14      1.0000 0.43120  0.36110  0.51957  Biso   1.000  O
  O15      1.0000 0.93120  0.13890  0.48043  Biso   1.000  O
  O16      1.0000 0.56880  0.86110  0.98043  Biso   1.000  O
  O17      1.0000 0.26070  0.86950  0.08035  Biso   1.000  O
  O18      1.0000 0.23930  0.13050  0.58035  Biso   1.000  O
  O19      1.0000 0.73930  0.36950  0.41965  Biso   1.000  O
  O20      1.0000 0.76070  0.63050  0.91965  Biso   1.000  O
  H45      1.0000 0.35830  0.88850  0.05220  Biso   1.000  H
  H46      1.0000 0.14170  0.11150  0.55220  Biso   1.000  H
  H47      1.0000 0.64170  0.38850  0.44780  Biso   1.000  H
  H48      1.0000 0.85830  0.61150  0.94780  Biso   1.000  H
  P1       1.0000 0.06708  0.81439  0.04604  Biso   1.000  P
  P2       1.0000 0.43292  0.18561  0.54604  Biso   1.000  P
  P3       1.0000 0.93292  0.31439  0.45396  Biso   1.000  P
  P4       1.0000 0.56708  0.68561  0.95396  Biso   1.000  P
