data_image0
_cell_length_a       6.7846
_cell_length_b       11.3724
_cell_length_c       14.25
_cell_angle_alpha    90
_cell_angle_beta     90
_cell_angle_gamma    90

_symmetry_space_group_name_H-M    "P 1"
_symmetry_int_tables_number       1

loop_
  _symmetry_equiv_pos_as_xyz
  'x, y, z'

loop_
  _atom_site_label
  _atom_site_occupancy
  _atom_site_fract_x
  _atom_site_fract_y
  _atom_site_fract_z
  _atom_site_thermal_displace_type
  _atom_site_B_iso_or_equiv
  _atom_site_type_symbol
  C1       1.0000 0.87290  0.42080  0.80960  Biso   1.000  C
  C2       1.0000 0.62710  0.57920  0.30960  Biso   1.000  C
  C3       1.0000 0.12710  0.92080  0.69040  Biso   1.000  C
  C4       1.0000 0.37290  0.07920  0.19040  Biso   1.000  C
  H1       1.0000 0.87760  0.45760  0.74820  Biso   1.000  H
  H2       1.0000 0.62240  0.54240  0.24820  Biso   1.000  H
  H3       1.0000 0.12240  0.95760  0.75180  Biso   1.000  H
  H4       1.0000 0.37760  0.04240  0.25180  Biso   1.000  H
  H5       1.0000 0.99800  0.43500  0.84050  Biso   1.000  H
  H6       1.0000 0.50200  0.56500  0.34050  Biso   1.000  H
  H7       1.0000 0.00200  0.93500  0.65950  Biso   1.000  H
  H8       1.0000 0.49800  0.06500  0.15950  Biso   1.000  H
  C5       1.0000 0.84200  0.29080  0.79840  Biso   1.000  C
  C6       1.0000 0.65800  0.70920  0.29840  Biso   1.000  C
  C7       1.0000 0.15800  0.79080  0.70160  Biso   1.000  C
  C8       1.0000 0.34200  0.20920  0.20160  Biso   1.000  C
  H9       1.0000 0.84860  0.25320  0.85940  Biso   1.000  H
  H10      1.0000 0.65140  0.74680  0.35940  Biso   1.000  H
  H11      1.0000 0.15140  0.75320  0.64060  Biso   1.000  H
  H12      1.0000 0.34860  0.24680  0.14060  Biso   1.000  H
  H13      1.0000 0.94640  0.25840  0.75970  Biso   1.000  H
  H14      1.0000 0.55360  0.74160  0.25970  Biso   1.000  H
  H15      1.0000 0.05360  0.75840  0.74030  Biso   1.000  H
  H16      1.0000 0.44640  0.24160  0.24030  Biso   1.000  H
  C9       1.0000 0.64490  0.26460  0.75370  Biso   1.000  C
  C10      1.0000 0.85510  0.73540  0.25370  Biso   1.000  C
  C11      1.0000 0.35510  0.76460  0.74630  Biso   1.000  C
  C12      1.0000 0.14490  0.23540  0.24630  Biso   1.000  C
  H17      1.0000 0.62340  0.18020  0.75350  Biso   1.000  H
  H18      1.0000 0.87660  0.81980  0.25350  Biso   1.000  H
  H19      1.0000 0.37660  0.68020  0.74650  Biso   1.000  H
  H20      1.0000 0.12340  0.31980  0.24650  Biso   1.000  H
  H21      1.0000 0.64640  0.29120  0.68910  Biso   1.000  H
  H22      1.0000 0.85360  0.70880  0.18910  Biso   1.000  H
  H23      1.0000 0.35360  0.79120  0.81090  Biso   1.000  H
  H24      1.0000 0.14640  0.20880  0.31090  Biso   1.000  H
  C13      1.0000 0.47560  0.32450  0.80570  Biso   1.000  C
  C14      1.0000 0.02440  0.67550  0.30570  Biso   1.000  C
  C15      1.0000 0.52440  0.82450  0.69430  Biso   1.000  C
  C16      1.0000 0.97560  0.17550  0.19430  Biso   1.000  C
  H25      1.0000 0.35890  0.31880  0.76540  Biso   1.000  H
  H26      1.0000 0.14110  0.68120  0.26540  Biso   1.000  H
  H27      1.0000 0.64110  0.81880  0.73460  Biso   1.000  H
  H28      1.0000 0.85890  0.18120  0.23460  Biso   1.000  H
  C17      1.0000 0.52000  0.45410  0.81830  Biso   1.000  C
  C18      1.0000 0.98000  0.54590  0.31830  Biso   1.000  C
  C19      1.0000 0.48000  0.95410  0.68170  Biso   1.000  C
  C20      1.0000 0.02000  0.04590  0.18170  Biso   1.000  C
  H29      1.0000 0.52250  0.49180  0.75720  Biso   1.000  H
  H30      1.0000 0.97750  0.50820  0.25720  Biso   1.000  H
  H31      1.0000 0.47750  0.99180  0.74280  Biso   1.000  H
  H32      1.0000 0.02250  0.00820  0.24280  Biso   1.000  H
  H33      1.0000 0.41530  0.49000  0.85470  Biso   1.000  H
  H34      1.0000 0.08470  0.51000  0.35470  Biso   1.000  H
  H35      1.0000 0.58470  0.99000  0.64530  Biso   1.000  H
  H36      1.0000 0.91530  0.01000  0.14530  Biso   1.000  H
  C21      1.0000 0.42770  0.26150  0.89570  Biso   1.000  C
  C22      1.0000 0.07230  0.73850  0.39570  Biso   1.000  C
  C23      1.0000 0.57230  0.76150  0.60430  Biso   1.000  C
  C24      1.0000 0.92770  0.23850  0.10430  Biso   1.000  C
  C25      1.0000 0.74450  0.60380  0.87440  Biso   1.000  C
  C26      1.0000 0.75550  0.39620  0.37440  Biso   1.000  C
  C27      1.0000 0.25550  0.10380  0.62560  Biso   1.000  C
  C28      1.0000 0.24450  0.89620  0.12560  Biso   1.000  C
  H37      1.0000 0.62170  0.64290  0.89010  Biso   1.000  H
  H38      1.0000 0.87830  0.35710  0.39010  Biso   1.000  H
  H39      1.0000 0.37830  0.14290  0.60990  Biso   1.000  H
  H40      1.0000 0.12170  0.85710  0.10990  Biso   1.000  H
  H41      1.0000 0.79070  0.63480  0.81500  Biso   1.000  H
  H42      1.0000 0.70930  0.36520  0.31500  Biso   1.000  H
  H43      1.0000 0.20930  0.13480  0.68500  Biso   1.000  H
  H44      1.0000 0.29070  0.86520  0.18500  Biso   1.000  H
  C29      1.0000 0.32950  0.49340  0.10760  Biso   1.000  C
  C30      1.0000 0.17050  0.50660  0.60760  Biso   1.000  C
  C31      1.0000 0.67050  0.99340  0.39240  Biso   1.000  C
  C32      1.0000 0.82950  0.00660  0.89240  Biso   1.000  C
  H45      1.0000 0.36860  0.45370  0.16410  Biso   1.000  H
  H46      1.0000 0.13140  0.54630  0.66410  Biso   1.000  H
  H47      1.0000 0.63140  0.95370  0.33590  Biso   1.000  H
  H48      1.0000 0.86860  0.04630  0.83590  Biso   1.000  H
  H49      1.0000 0.25060  0.44160  0.07000  Biso   1.000  H
  H50      1.0000 0.24940  0.55840  0.57000  Biso   1.000  H
  H51      1.0000 0.74940  0.94160  0.43000  Biso   1.000  H
  H52      1.0000 0.75060  0.05840  0.93000  Biso   1.000  H
  H53      1.0000 0.25410  0.56210  0.12350  Biso   1.000  H
  H54      1.0000 0.24590  0.43790  0.62350  Biso   1.000  H
  H55      1.0000 0.74590  0.06210  0.37650  Biso   1.000  H
  H56      1.0000 0.75410  0.93790  0.87650  Biso   1.000  H
  Cu1      1.0000 0.71882  0.40476  0.99792  Biso   1.000  Cu
  Cu2      1.0000 0.78118  0.59524  0.49792  Biso   1.000  Cu
  Cu3      1.0000 0.28118  0.90476  0.50208  Biso   1.000  Cu
  Cu4      1.0000 0.21882  0.09524  0.00208  Biso   1.000  Cu
  N1       1.0000 0.71060  0.47440  0.86600  Biso   1.000  N
  N2       1.0000 0.78940  0.52560  0.36600  Biso   1.000  N
  N3       1.0000 0.28940  0.97440  0.63400  Biso   1.000  N
  N4       1.0000 0.21060  0.02560  0.13400  Biso   1.000  N
  O1       1.0000 0.13100  0.62820  0.91420  Biso   1.000  O
  O2       1.0000 0.36900  0.37180  0.41420  Biso   1.000  O
  O3       1.0000 0.86900  0.12820  0.58580  Biso   1.000  O
  O4       1.0000 0.63100  0.87180  0.08580  Biso   1.000  O
  H57      1.0000 0.21860  0.67070  0.94010  Biso   1.000  H
  H58      1.0000 0.28140  0.32930  0.44010  Biso   1.000  H
  H59      1.0000 0.78140  0.17070  0.55990  Biso   1.000  H
  H60      1.0000 0.71860  0.82930  0.05990  Biso   1.000  H
  O5       1.0000 0.89650  0.75210  0.00530  Biso   1.000  O
  O6       1.0000 0.60350  0.24790  0.50530  Biso   1.000  O
  O7       1.0000 0.10350  0.25210  0.49470  Biso   1.000  O
  O8       1.0000 0.39650  0.74790  0.99470  Biso   1.000  O
  O9       1.0000 0.90250  0.53050  0.03080  Biso   1.000  O
  O10      1.0000 0.59750  0.46950  0.53080  Biso   1.000  O
  O11      1.0000 0.09750  0.03050  0.46920  Biso   1.000  O
  O12      1.0000 0.40250  0.96950  0.96920  Biso   1.000  O
  O13      1.0000 0.51980  0.28390  0.97100  Biso   1.000  O
  O14      1.0000 0.98020  0.71610  0.47100  Biso   1.000  O
  O15      1.0000 0.48020  0.78390  0.52900  Biso   1.000  O
  O16      1.0000 0.01980  0.21610  0.02900  Biso   1.000  O
  O17      1.0000 0.29640  0.18480  0.89104  Biso   1.000  O
  O18      1.0000 0.20360  0.81520  0.39104  Biso   1.000  O
  O19      1.0000 0.70360  0.68480  0.60896  Biso   1.000  O
  O20      1.0000 0.79640  0.31520  0.10896  Biso   1.000  O
  O21      1.0000 0.47230  0.52190  0.06470  Biso   1.000  O
  O22      1.0000 0.02770  0.47810  0.56470  Biso   1.000  O
  O23      1.0000 0.52770  0.02190  0.43530  Biso   1.000  O
  O24      1.0000 0.97230  0.97810  0.93530  Biso   1.000  O
  H61      1.0000 0.49840  0.58420  0.03420  Biso   1.000  H
  H62      1.0000 0.00160  0.41580  0.53420  Biso   1.000  H
  H63      1.0000 0.50160  0.08420  0.46580  Biso   1.000  H
  H64      1.0000 0.99840  0.91580  0.96580  Biso   1.000  H
  P1       1.0000 0.92542  0.63188  0.96477  Biso   1.000  P
  P2       1.0000 0.57458  0.36812  0.46477  Biso   1.000  P
  P3       1.0000 0.07458  0.13188  0.53523  Biso   1.000  P
  P4       1.0000 0.42542  0.86812  0.03523  Biso   1.000  P
