data_image0
_cell_length_a       15.541
_cell_length_b       7.5256
_cell_length_c       21.261
_cell_angle_alpha    90
_cell_angle_beta     101.81
_cell_angle_gamma    90

_symmetry_space_group_name_H-M    "P 1"
_symmetry_int_tables_number       1

loop_
  _symmetry_equiv_pos_as_xyz
  'x, y, z'

loop_
  _atom_site_label
  _atom_site_occupancy
  _atom_site_fract_x
  _atom_site_fract_y
  _atom_site_fract_z
  _atom_site_thermal_displace_type
  _atom_site_B_iso_or_equiv
  _atom_site_type_symbol
  Cu1      1.0000 0.00000  0.00000  0.00000  Biso   1.000  Cu
  Cu2      1.0000 0.50000  0.50000  0.50000  Biso   1.000  Cu
  C1       1.0000 0.88497  0.01020  0.10255  Biso   1.000  C
  C2       1.0000 0.61503  0.51020  0.39745  Biso   1.000  C
  C3       1.0000 0.11503  0.98980  0.89745  Biso   1.000  C
  C4       1.0000 0.38497  0.48980  0.60255  Biso   1.000  C
  C5       1.0000 0.76873  0.07560  0.14843  Biso   1.000  C
  C6       1.0000 0.73127  0.57560  0.35157  Biso   1.000  C
  C7       1.0000 0.23127  0.92440  0.85157  Biso   1.000  C
  C8       1.0000 0.26873  0.42440  0.64843  Biso   1.000  C
  N1       1.0000 0.93050  0.01440  0.06698  Biso   1.000  N
  N2       1.0000 0.56950  0.51440  0.43302  Biso   1.000  N
  N3       1.0000 0.06950  0.98560  0.93302  Biso   1.000  N
  N4       1.0000 0.43050  0.48560  0.56698  Biso   1.000  N
  N5       1.0000 0.70502  0.13810  0.15473  Biso   1.000  N
  N6       1.0000 0.79498  0.63810  0.34527  Biso   1.000  N
  N7       1.0000 0.29498  0.86190  0.84527  Biso   1.000  N
  N8       1.0000 0.20502  0.36190  0.65473  Biso   1.000  N
  N9       1.0000 0.84097  0.99030  0.14769  Biso   1.000  N
  N10      1.0000 0.65903  0.49030  0.35231  Biso   1.000  N
  N11      1.0000 0.15903  0.00970  0.85231  Biso   1.000  N
  N12      1.0000 0.34097  0.50970  0.64769  Biso   1.000  N
  C9       1.0000 0.10403  0.34490  0.04938  Biso   1.000  C
  C10      1.0000 0.39597  0.84490  0.45062  Biso   1.000  C
  C11      1.0000 0.89597  0.65510  0.95062  Biso   1.000  C
  C12      1.0000 0.60403  0.15510  0.54938  Biso   1.000  C
  C13      1.0000 0.12655  0.64160  0.06727  Biso   1.000  C
  C14      1.0000 0.37345  0.14160  0.43273  Biso   1.000  C
  C15      1.0000 0.87345  0.35840  0.93273  Biso   1.000  C
  C16      1.0000 0.62655  0.85840  0.56727  Biso   1.000  C
  N13      1.0000 0.06800  0.21510  0.03485  Biso   1.000  N
  N14      1.0000 0.43200  0.71510  0.46515  Biso   1.000  N
  N15      1.0000 0.93200  0.78490  0.96515  Biso   1.000  N
  N16      1.0000 0.56800  0.28490  0.53485  Biso   1.000  N
  N17      1.0000 0.10961  0.78720  0.06907  Biso   1.000  N
  N18      1.0000 0.39039  0.28720  0.43093  Biso   1.000  N
  N19      1.0000 0.89039  0.21280  0.93093  Biso   1.000  N
  N20      1.0000 0.60961  0.71280  0.56907  Biso   1.000  N
  N21      1.0000 0.15463  0.47840  0.06749  Biso   1.000  N
  N22      1.0000 0.34537  0.97840  0.43251  Biso   1.000  N
  N23      1.0000 0.84537  0.52160  0.93251  Biso   1.000  N
  N24      1.0000 0.65463  0.02160  0.56749  Biso   1.000  N
  P1       1.0000 0.48254  0.31326  0.18176  Biso   1.000  P
  P2       1.0000 0.01746  0.81326  0.31824  Biso   1.000  P
  P3       1.0000 0.51746  0.68674  0.81824  Biso   1.000  P
  P4       1.0000 0.98254  0.18674  0.68176  Biso   1.000  P
  C17      1.0000 0.40975  0.45840  0.21304  Biso   1.000  C
  C18      1.0000 0.09025  0.95840  0.28696  Biso   1.000  C
  C19      1.0000 0.59025  0.54160  0.78696  Biso   1.000  C
  C20      1.0000 0.90975  0.04160  0.71304  Biso   1.000  C
  C21      1.0000 0.40687  0.45780  0.27772  Biso   1.000  C
  C22      1.0000 0.09313  0.95780  0.22228  Biso   1.000  C
  C23      1.0000 0.59313  0.54220  0.72228  Biso   1.000  C
  C24      1.0000 0.90687  0.04220  0.77772  Biso   1.000  C
  H1       1.0000 0.44000  0.37600  0.30530  Biso   1.000  H
  H2       1.0000 0.06000  0.87600  0.19470  Biso   1.000  H
  H3       1.0000 0.56000  0.62400  0.69470  Biso   1.000  H
  H4       1.0000 0.94000  0.12400  0.80530  Biso   1.000  H
  C25      1.0000 0.35424  0.58020  0.30105  Biso   1.000  C
  C26      1.0000 0.14576  0.08020  0.19895  Biso   1.000  C
  C27      1.0000 0.64576  0.41980  0.69895  Biso   1.000  C
  C28      1.0000 0.85424  0.91980  0.80105  Biso   1.000  C
  H5       1.0000 0.35200  0.58020  0.34440  Biso   1.000  H
  H6       1.0000 0.14800  0.08020  0.15560  Biso   1.000  H
  H7       1.0000 0.64800  0.41980  0.65560  Biso   1.000  H
  H8       1.0000 0.85200  0.91980  0.84440  Biso   1.000  H
  C29      1.0000 0.30528  0.70170  0.26020  Biso   1.000  C
  C30      1.0000 0.19472  0.20170  0.23980  Biso   1.000  C
  C31      1.0000 0.69472  0.29830  0.73980  Biso   1.000  C
  C32      1.0000 0.80528  0.79830  0.76020  Biso   1.000  C
  H9       1.0000 0.27050  0.78380  0.27620  Biso   1.000  H
  H10      1.0000 0.22950  0.28380  0.22380  Biso   1.000  H
  H11      1.0000 0.72950  0.21620  0.72380  Biso   1.000  H
  H12      1.0000 0.77050  0.71620  0.77620  Biso   1.000  H
  C33      1.0000 0.30765  0.70200  0.19568  Biso   1.000  C
  C34      1.0000 0.19235  0.20200  0.30432  Biso   1.000  C
  C35      1.0000 0.69235  0.29800  0.80432  Biso   1.000  C
  C36      1.0000 0.80765  0.79800  0.69568  Biso   1.000  C
  H13      1.0000 0.27390  0.78320  0.16810  Biso   1.000  H
  H14      1.0000 0.22610  0.28320  0.33190  Biso   1.000  H
  H15      1.0000 0.72610  0.21680  0.83190  Biso   1.000  H
  H16      1.0000 0.77390  0.71680  0.66810  Biso   1.000  H
  C37      1.0000 0.36001  0.58210  0.17227  Biso   1.000  C
  C38      1.0000 0.13999  0.08210  0.32773  Biso   1.000  C
  C39      1.0000 0.63999  0.41790  0.82773  Biso   1.000  C
  C40      1.0000 0.86001  0.91790  0.67227  Biso   1.000  C
  H17      1.0000 0.36220  0.58360  0.12890  Biso   1.000  H
  H18      1.0000 0.13780  0.08360  0.37110  Biso   1.000  H
  H19      1.0000 0.63780  0.41640  0.87110  Biso   1.000  H
  H20      1.0000 0.86220  0.91640  0.62890  Biso   1.000  H
  C41      1.0000 0.55461  0.45210  0.14696  Biso   1.000  C
  C42      1.0000 0.94539  0.95210  0.35304  Biso   1.000  C
  C43      1.0000 0.44539  0.54790  0.85304  Biso   1.000  C
  C44      1.0000 0.05461  0.04790  0.64696  Biso   1.000  C
  C45      1.0000 0.56029  0.44100  0.08287  Biso   1.000  C
  C46      1.0000 0.93971  0.94100  0.41713  Biso   1.000  C
  C47      1.0000 0.43971  0.55900  0.91713  Biso   1.000  C
  C48      1.0000 0.06029  0.05900  0.58287  Biso   1.000  C
  H21      1.0000 0.52480  0.36180  0.05560  Biso   1.000  H
  H22      1.0000 0.97520  0.86180  0.44440  Biso   1.000  H
  H23      1.0000 0.47520  0.63820  0.94440  Biso   1.000  H
  H24      1.0000 0.02480  0.13820  0.55560  Biso   1.000  H
  C49      1.0000 0.61954  0.54920  0.05968  Biso   1.000  C
  C50      1.0000 0.88046  0.04920  0.44032  Biso   1.000  C
  C51      1.0000 0.38046  0.45080  0.94032  Biso   1.000  C
  C52      1.0000 0.11954  0.95080  0.55968  Biso   1.000  C
  H25      1.0000 0.62410  0.54100  0.01680  Biso   1.000  H
  H26      1.0000 0.87590  0.04100  0.48320  Biso   1.000  H
  H27      1.0000 0.37590  0.45900  0.98320  Biso   1.000  H
  H28      1.0000 0.12410  0.95900  0.51680  Biso   1.000  H
  C53      1.0000 0.67030  0.66550  0.09881  Biso   1.000  C
  C54      1.0000 0.82970  0.16550  0.40119  Biso   1.000  C
  C55      1.0000 0.32970  0.33450  0.90119  Biso   1.000  C
  C56      1.0000 0.17030  0.83450  0.59881  Biso   1.000  C
  H29      1.0000 0.70900  0.73820  0.08260  Biso   1.000  H
  H30      1.0000 0.79100  0.23820  0.41740  Biso   1.000  H
  H31      1.0000 0.29100  0.26180  0.91740  Biso   1.000  H
  H32      1.0000 0.20900  0.76180  0.58260  Biso   1.000  H
  C57      1.0000 0.66540  0.67780  0.16232  Biso   1.000  C
  C58      1.0000 0.83460  0.17780  0.33768  Biso   1.000  C
  C59      1.0000 0.33460  0.32220  0.83768  Biso   1.000  C
  C60      1.0000 0.16540  0.82220  0.66232  Biso   1.000  C
  H33      1.0000 0.70130  0.75710  0.18930  Biso   1.000  H
  H34      1.0000 0.79870  0.25710  0.31070  Biso   1.000  H
  H35      1.0000 0.29870  0.24290  0.81070  Biso   1.000  H
  H36      1.0000 0.20130  0.74290  0.68930  Biso   1.000  H
  C61      1.0000 0.60656  0.57120  0.18603  Biso   1.000  C
  C62      1.0000 0.89344  0.07120  0.31397  Biso   1.000  C
  C63      1.0000 0.39344  0.42880  0.81397  Biso   1.000  C
  C64      1.0000 0.10656  0.92880  0.68603  Biso   1.000  C
  H37      1.0000 0.60240  0.58080  0.22890  Biso   1.000  H
  H38      1.0000 0.89760  0.08080  0.27110  Biso   1.000  H
  H39      1.0000 0.39760  0.41920  0.77110  Biso   1.000  H
  H40      1.0000 0.10240  0.91920  0.72890  Biso   1.000  H
  C65      1.0000 0.42391  0.16640  0.12155  Biso   1.000  C
  C66      1.0000 0.07609  0.66640  0.37845  Biso   1.000  C
  C67      1.0000 0.57609  0.83360  0.87845  Biso   1.000  C
  C68      1.0000 0.92391  0.33360  0.62155  Biso   1.000  C
  C69      1.0000 0.33372  0.17510  0.09916  Biso   1.000  C
  C70      1.0000 0.16628  0.67510  0.40084  Biso   1.000  C
  C71      1.0000 0.66628  0.82490  0.90084  Biso   1.000  C
  C72      1.0000 0.83372  0.32490  0.59916  Biso   1.000  C
  H41      1.0000 0.30090  0.26220  0.11460  Biso   1.000  H
  H42      1.0000 0.19910  0.76220  0.38540  Biso   1.000  H
  H43      1.0000 0.69910  0.73780  0.88540  Biso   1.000  H
  H44      1.0000 0.80090  0.23780  0.61460  Biso   1.000  H
  C73      1.0000 0.29253  0.05430  0.05387  Biso   1.000  C
  C74      1.0000 0.20747  0.55430  0.44613  Biso   1.000  C
  C75      1.0000 0.70747  0.94570  0.94613  Biso   1.000  C
  C76      1.0000 0.79253  0.44570  0.55387  Biso   1.000  C
  H45      1.0000 0.23210  0.06070  0.03860  Biso   1.000  H
  H46      1.0000 0.26790  0.56070  0.46140  Biso   1.000  H
  H47      1.0000 0.76790  0.93930  0.96140  Biso   1.000  H
  H48      1.0000 0.73210  0.43930  0.53860  Biso   1.000  H
  C77      1.0000 0.34042  0.92540  0.03147  Biso   1.000  C
  C78      1.0000 0.15958  0.42540  0.46853  Biso   1.000  C
  C79      1.0000 0.65958  0.07460  0.96853  Biso   1.000  C
  C80      1.0000 0.84042  0.57460  0.53147  Biso   1.000  C
  H49      1.0000 0.31240  0.84410  0.00110  Biso   1.000  H
  H50      1.0000 0.18760  0.34410  0.49890  Biso   1.000  H
  H51      1.0000 0.68760  0.15590  0.99890  Biso   1.000  H
  H52      1.0000 0.81240  0.65590  0.50110  Biso   1.000  H
  C81      1.0000 0.42958  0.91530  0.05355  Biso   1.000  C
  C82      1.0000 0.07042  0.41530  0.44645  Biso   1.000  C
  C83      1.0000 0.57042  0.08470  0.94645  Biso   1.000  C
  C84      1.0000 0.92958  0.58470  0.55355  Biso   1.000  C
  H53      1.0000 0.46160  0.82710  0.03800  Biso   1.000  H
  H54      1.0000 0.03840  0.32710  0.46200  Biso   1.000  H
  H55      1.0000 0.53840  0.17290  0.96200  Biso   1.000  H
  H56      1.0000 0.96160  0.67290  0.53800  Biso   1.000  H
  C85      1.0000 0.47214  0.03360  0.09834  Biso   1.000  C
  C86      1.0000 0.02786  0.53360  0.40166  Biso   1.000  C
  C87      1.0000 0.52786  0.96640  0.90166  Biso   1.000  C
  C88      1.0000 0.97214  0.46640  0.59834  Biso   1.000  C
  H57      1.0000 0.53260  0.02560  0.11320  Biso   1.000  H
  H58      1.0000 0.96740  0.52560  0.38680  Biso   1.000  H
  H59      1.0000 0.46740  0.97440  0.88680  Biso   1.000  H
  H60      1.0000 0.03260  0.47440  0.61320  Biso   1.000  H
  C89      1.0000 0.54652  0.18030  0.24413  Biso   1.000  C
  C90      1.0000 0.95348  0.68030  0.25587  Biso   1.000  C
  C91      1.0000 0.45348  0.81970  0.75587  Biso   1.000  C
  C92      1.0000 0.04652  0.31970  0.74413  Biso   1.000  C
  H61      1.0000 0.59560  0.13020  0.22830  Biso   1.000  H
  H62      1.0000 0.90440  0.63020  0.27170  Biso   1.000  H
  H63      1.0000 0.40440  0.86980  0.77170  Biso   1.000  H
  H64      1.0000 0.09560  0.36980  0.72830  Biso   1.000  H
  H65      1.0000 0.57060  0.25700  0.28010  Biso   1.000  H
  H66      1.0000 0.92940  0.75700  0.21990  Biso   1.000  H
  H67      1.0000 0.42940  0.74300  0.71990  Biso   1.000  H
  H68      1.0000 0.07060  0.24300  0.78010  Biso   1.000  H
  C93      1.0000 0.49661  0.02900  0.26844  Biso   1.000  C
  C94      1.0000 0.00339  0.52900  0.23156  Biso   1.000  C
  C95      1.0000 0.50339  0.97100  0.73156  Biso   1.000  C
  C96      1.0000 0.99661  0.47100  0.76844  Biso   1.000  C
  H69      1.0000 0.47080  0.95350  0.23260  Biso   1.000  H
  H70      1.0000 0.02920  0.45350  0.26740  Biso   1.000  H
  H71      1.0000 0.52920  0.04650  0.76740  Biso   1.000  H
  H72      1.0000 0.97080  0.54650  0.73260  Biso   1.000  H
  H73      1.0000 0.44910  0.07830  0.28630  Biso   1.000  H
  H74      1.0000 0.05090  0.57830  0.21370  Biso   1.000  H
  H75      1.0000 0.55090  0.92170  0.71370  Biso   1.000  H
  H76      1.0000 0.94910  0.42170  0.78630  Biso   1.000  H
  C97      1.0000 0.55589  0.91700  0.31955  Biso   1.000  C
  C98      1.0000 0.94411  0.41700  0.18045  Biso   1.000  C
  C99      1.0000 0.44411  0.08300  0.68045  Biso   1.000  C
  C100     1.0000 0.05589  0.58300  0.81955  Biso   1.000  C
  H77      1.0000 0.52320  0.81340  0.32830  Biso   1.000  H
  H78      1.0000 0.97680  0.31340  0.17170  Biso   1.000  H
  H79      1.0000 0.47680  0.18660  0.67170  Biso   1.000  H
  H80      1.0000 0.02320  0.68660  0.82830  Biso   1.000  H
  H81      1.0000 0.60530  0.87530  0.30220  Biso   1.000  H
  H82      1.0000 0.89470  0.37530  0.19780  Biso   1.000  H
  H83      1.0000 0.39470  0.12470  0.69780  Biso   1.000  H
  H84      1.0000 0.10530  0.62470  0.80220  Biso   1.000  H
  C101     1.0000 0.59010  0.00880  0.38055  Biso   1.000  C
  C102     1.0000 0.90990  0.50880  0.11945  Biso   1.000  C
  C103     1.0000 0.40990  0.99120  0.61945  Biso   1.000  C
  C104     1.0000 0.09010  0.49120  0.88055  Biso   1.000  C
  H85      1.0000 0.62720  0.92950  0.40940  Biso   1.000  H
  H86      1.0000 0.87280  0.42950  0.09060  Biso   1.000  H
  H87      1.0000 0.37280  0.07050  0.59060  Biso   1.000  H
  H88      1.0000 0.12720  0.57050  0.90940  Biso   1.000  H
  H89      1.0000 0.54190  0.04600  0.39940  Biso   1.000  H
  H90      1.0000 0.95810  0.54600  0.10060  Biso   1.000  H
  H91      1.0000 0.45810  0.95400  0.60060  Biso   1.000  H
  H92      1.0000 0.04190  0.45400  0.89940  Biso   1.000  H
  H93      1.0000 0.62340  0.11090  0.37270  Biso   1.000  H
  H94      1.0000 0.87660  0.61090  0.12730  Biso   1.000  H
  H95      1.0000 0.37660  0.88910  0.62730  Biso   1.000  H
  H96      1.0000 0.12340  0.38910  0.87270  Biso   1.000  H
