data_image0
_cell_length_a       15.466
_cell_length_b       7.46
_cell_length_c       21.153
_cell_angle_alpha    90
_cell_angle_beta     102.079
_cell_angle_gamma    90

_symmetry_space_group_name_H-M    "P 1"
_symmetry_int_tables_number       1

loop_
  _symmetry_equiv_pos_as_xyz
  'x, y, z'

loop_
  _atom_site_label
  _atom_site_occupancy
  _atom_site_fract_x
  _atom_site_fract_y
  _atom_site_fract_z
  _atom_site_thermal_displace_type
  _atom_site_B_iso_or_equiv
  _atom_site_type_symbol
  Cu1      1.0000 0.00000  0.00000  0.00000  Biso   1.000  Cu
  Cu2      1.0000 0.50000  0.50000  0.50000  Biso   1.000  Cu
  C1       1.0000 0.88357  0.01400  0.10282  Biso   1.000  C
  C2       1.0000 0.61643  0.51400  0.39718  Biso   1.000  C
  C3       1.0000 0.11643  0.98600  0.89718  Biso   1.000  C
  C4       1.0000 0.38357  0.48600  0.60282  Biso   1.000  C
  C5       1.0000 0.76722  0.08380  0.14925  Biso   1.000  C
  C6       1.0000 0.73278  0.58380  0.35075  Biso   1.000  C
  C7       1.0000 0.23278  0.91620  0.85075  Biso   1.000  C
  C8       1.0000 0.26722  0.41620  0.64925  Biso   1.000  C
  N1       1.0000 0.92832  0.01780  0.06616  Biso   1.000  N
  N2       1.0000 0.57168  0.51780  0.43384  Biso   1.000  N
  N3       1.0000 0.07168  0.98220  0.93384  Biso   1.000  N
  N4       1.0000 0.42832  0.48220  0.56616  Biso   1.000  N
  N5       1.0000 0.70261  0.15020  0.15489  Biso   1.000  N
  N6       1.0000 0.79739  0.65020  0.34511  Biso   1.000  N
  N7       1.0000 0.29739  0.84980  0.84511  Biso   1.000  N
  N8       1.0000 0.20261  0.34980  0.65489  Biso   1.000  N
  N9       1.0000 0.84009  0.99430  0.14875  Biso   1.000  N
  N10      1.0000 0.65991  0.49430  0.35125  Biso   1.000  N
  N11      1.0000 0.15991  0.00570  0.85125  Biso   1.000  N
  N12      1.0000 0.34009  0.50570  0.64875  Biso   1.000  N
  C9       1.0000 0.12652  0.65040  0.06924  Biso   1.000  C
  C10      1.0000 0.37348  0.15040  0.43076  Biso   1.000  C
  C11      1.0000 0.87348  0.34960  0.93076  Biso   1.000  C
  C12      1.0000 0.62652  0.84960  0.56924  Biso   1.000  C
  C13      1.0000 0.10406  0.35160  0.04976  Biso   1.000  C
  C14      1.0000 0.39594  0.85160  0.45024  Biso   1.000  C
  C15      1.0000 0.89594  0.64840  0.95024  Biso   1.000  C
  C16      1.0000 0.60406  0.14840  0.54976  Biso   1.000  C
  N13      1.0000 0.06657  0.22069  0.03429  Biso   1.000  N
  N14      1.0000 0.43343  0.72069  0.46571  Biso   1.000  N
  N15      1.0000 0.93343  0.77931  0.96571  Biso   1.000  N
  N16      1.0000 0.56657  0.27931  0.53429  Biso   1.000  N
  N17      1.0000 0.10810  0.79910  0.07144  Biso   1.000  N
  N18      1.0000 0.39190  0.29910  0.42856  Biso   1.000  N
  N19      1.0000 0.89190  0.20090  0.92856  Biso   1.000  N
  N20      1.0000 0.60810  0.70090  0.57144  Biso   1.000  N
  N21      1.0000 0.15629  0.48600  0.06893  Biso   1.000  N
  N22      1.0000 0.34371  0.98600  0.43107  Biso   1.000  N
  N23      1.0000 0.84371  0.51400  0.93107  Biso   1.000  N
  N24      1.0000 0.65629  0.01400  0.56893  Biso   1.000  N
  P1       1.0000 0.48180  0.31880  0.18169  Biso   1.000  P
  P2       1.0000 0.01820  0.81880  0.31831  Biso   1.000  P
  P3       1.0000 0.51820  0.68120  0.81831  Biso   1.000  P
  P4       1.0000 0.98180  0.18120  0.68169  Biso   1.000  P
  C17      1.0000 0.40907  0.46540  0.21307  Biso   1.000  C
  C18      1.0000 0.09093  0.96540  0.28693  Biso   1.000  C
  C19      1.0000 0.59093  0.53460  0.78693  Biso   1.000  C
  C20      1.0000 0.90907  0.03460  0.71307  Biso   1.000  C
  C21      1.0000 0.40644  0.46500  0.27862  Biso   1.000  C
  C22      1.0000 0.09356  0.96500  0.22138  Biso   1.000  C
  C23      1.0000 0.59356  0.53500  0.72138  Biso   1.000  C
  C24      1.0000 0.90644  0.03500  0.77862  Biso   1.000  C
  H1       1.0000 0.44030  0.38040  0.30700  Biso   1.000  H
  H2       1.0000 0.05970  0.88040  0.19300  Biso   1.000  H
  H3       1.0000 0.55970  0.61960  0.69300  Biso   1.000  H
  H4       1.0000 0.94030  0.11960  0.80700  Biso   1.000  H
  C25      1.0000 0.35394  0.58920  0.30210  Biso   1.000  C
  C26      1.0000 0.14606  0.08920  0.19790  Biso   1.000  C
  C27      1.0000 0.64606  0.41080  0.69790  Biso   1.000  C
  C28      1.0000 0.85394  0.91080  0.80210  Biso   1.000  C
  H5       1.0000 0.35210  0.58960  0.34670  Biso   1.000  H
  H6       1.0000 0.14790  0.08960  0.15330  Biso   1.000  H
  H7       1.0000 0.64790  0.41040  0.65330  Biso   1.000  H
  H8       1.0000 0.85210  0.91040  0.84670  Biso   1.000  H
  C29      1.0000 0.30419  0.71250  0.26062  Biso   1.000  C
  C30      1.0000 0.19581  0.21250  0.23938  Biso   1.000  C
  C31      1.0000 0.69581  0.28750  0.73938  Biso   1.000  C
  C32      1.0000 0.80419  0.78750  0.76062  Biso   1.000  C
  H9       1.0000 0.26860  0.79720  0.27710  Biso   1.000  H
  H10      1.0000 0.23140  0.29720  0.22290  Biso   1.000  H
  H11      1.0000 0.73140  0.20280  0.72290  Biso   1.000  H
  H12      1.0000 0.76860  0.70280  0.77710  Biso   1.000  H
  C33      1.0000 0.30601  0.71310  0.19523  Biso   1.000  C
  C34      1.0000 0.19399  0.21310  0.30477  Biso   1.000  C
  C35      1.0000 0.69399  0.28690  0.80477  Biso   1.000  C
  C36      1.0000 0.80601  0.78690  0.69523  Biso   1.000  C
  H13      1.0000 0.27140  0.79710  0.16690  Biso   1.000  H
  H14      1.0000 0.22860  0.29710  0.33310  Biso   1.000  H
  H15      1.0000 0.72860  0.20290  0.83310  Biso   1.000  H
  H16      1.0000 0.77140  0.70290  0.66690  Biso   1.000  H
  C37      1.0000 0.35853  0.59060  0.17158  Biso   1.000  C
  C38      1.0000 0.14147  0.09060  0.32842  Biso   1.000  C
  C39      1.0000 0.64147  0.40940  0.82842  Biso   1.000  C
  C40      1.0000 0.85853  0.90940  0.67158  Biso   1.000  C
  H17      1.0000 0.36030  0.59130  0.12700  Biso   1.000  H
  H18      1.0000 0.13970  0.09130  0.37300  Biso   1.000  H
  H19      1.0000 0.63970  0.40870  0.87300  Biso   1.000  H
  H20      1.0000 0.86030  0.90870  0.62700  Biso   1.000  H
  C41      1.0000 0.55405  0.45970  0.14691  Biso   1.000  C
  C42      1.0000 0.94595  0.95970  0.35309  Biso   1.000  C
  C43      1.0000 0.44595  0.54030  0.85309  Biso   1.000  C
  C44      1.0000 0.05405  0.04030  0.64691  Biso   1.000  C
  C45      1.0000 0.56034  0.44710  0.08254  Biso   1.000  C
  C46      1.0000 0.93966  0.94710  0.41746  Biso   1.000  C
  C47      1.0000 0.43966  0.55290  0.91746  Biso   1.000  C
  C48      1.0000 0.06034  0.05290  0.58254  Biso   1.000  C
  H21      1.0000 0.52420  0.36470  0.05450  Biso   1.000  H
  H22      1.0000 0.97580  0.86470  0.44550  Biso   1.000  H
  H23      1.0000 0.47580  0.63530  0.94550  Biso   1.000  H
  H24      1.0000 0.02420  0.13530  0.55450  Biso   1.000  H
  C49      1.0000 0.61987  0.55580  0.05926  Biso   1.000  C
  C50      1.0000 0.88013  0.05580  0.44074  Biso   1.000  C
  C51      1.0000 0.38013  0.44420  0.94074  Biso   1.000  C
  C52      1.0000 0.11987  0.94420  0.55926  Biso   1.000  C
  H25      1.0000 0.62460  0.54710  0.01530  Biso   1.000  H
  H26      1.0000 0.87540  0.04710  0.48470  Biso   1.000  H
  H27      1.0000 0.37540  0.45290  0.98470  Biso   1.000  H
  H28      1.0000 0.12460  0.95290  0.51530  Biso   1.000  H
  C53      1.0000 0.67156  0.67500  0.09944  Biso   1.000  C
  C54      1.0000 0.82844  0.17500  0.40056  Biso   1.000  C
  C55      1.0000 0.32844  0.32500  0.90056  Biso   1.000  C
  C56      1.0000 0.17156  0.82500  0.59944  Biso   1.000  C
  H29      1.0000 0.71150  0.74980  0.08310  Biso   1.000  H
  H30      1.0000 0.78850  0.24980  0.41690  Biso   1.000  H
  H31      1.0000 0.28850  0.25020  0.91690  Biso   1.000  H
  H32      1.0000 0.21150  0.75020  0.58310  Biso   1.000  H
  C57      1.0000 0.66620  0.68750  0.16359  Biso   1.000  C
  C58      1.0000 0.83380  0.18750  0.33641  Biso   1.000  C
  C59      1.0000 0.33380  0.31250  0.83641  Biso   1.000  C
  C60      1.0000 0.16620  0.81250  0.66359  Biso   1.000  C
  H33      1.0000 0.70320  0.76880  0.19150  Biso   1.000  H
  H34      1.0000 0.79680  0.26880  0.30850  Biso   1.000  H
  H35      1.0000 0.29680  0.23120  0.80850  Biso   1.000  H
  H36      1.0000 0.20320  0.73120  0.69150  Biso   1.000  H
  C61      1.0000 0.60652  0.58090  0.18740  Biso   1.000  C
  C62      1.0000 0.89348  0.08090  0.31260  Biso   1.000  C
  C63      1.0000 0.39348  0.41910  0.81260  Biso   1.000  C
  C64      1.0000 0.10652  0.91910  0.68740  Biso   1.000  C
  H37      1.0000 0.60170  0.59110  0.23130  Biso   1.000  H
  H38      1.0000 0.89830  0.09110  0.26870  Biso   1.000  H
  H39      1.0000 0.39830  0.40890  0.76870  Biso   1.000  H
  H40      1.0000 0.10170  0.90890  0.73130  Biso   1.000  H
  C65      1.0000 0.42292  0.17050  0.12078  Biso   1.000  C
  C66      1.0000 0.07708  0.67050  0.37922  Biso   1.000  C
  C67      1.0000 0.57708  0.82950  0.87922  Biso   1.000  C
  C68      1.0000 0.92292  0.32950  0.62078  Biso   1.000  C
  C69      1.0000 0.33165  0.17940  0.09797  Biso   1.000  C
  C70      1.0000 0.16835  0.67940  0.40203  Biso   1.000  C
  C71      1.0000 0.66835  0.82060  0.90203  Biso   1.000  C
  C72      1.0000 0.83165  0.32060  0.59797  Biso   1.000  C
  H41      1.0000 0.29800  0.26950  0.11350  Biso   1.000  H
  H42      1.0000 0.20200  0.76950  0.38650  Biso   1.000  H
  H43      1.0000 0.70200  0.73050  0.88650  Biso   1.000  H
  H44      1.0000 0.79800  0.23050  0.61350  Biso   1.000  H
  C73      1.0000 0.29006  0.05580  0.05244  Biso   1.000  C
  C74      1.0000 0.20994  0.55580  0.44756  Biso   1.000  C
  C75      1.0000 0.70994  0.94420  0.94756  Biso   1.000  C
  C76      1.0000 0.79006  0.44420  0.55244  Biso   1.000  C
  H45      1.0000 0.22790  0.06140  0.03680  Biso   1.000  H
  H46      1.0000 0.27210  0.56140  0.46320  Biso   1.000  H
  H47      1.0000 0.77210  0.93860  0.96320  Biso   1.000  H
  H48      1.0000 0.72790  0.43860  0.53680  Biso   1.000  H
  C77      1.0000 0.33906  0.92470  0.02980  Biso   1.000  C
  C78      1.0000 0.16094  0.42470  0.47020  Biso   1.000  C
  C79      1.0000 0.66094  0.07530  0.97020  Biso   1.000  C
  C80      1.0000 0.83906  0.57530  0.52980  Biso   1.000  C
  H49      1.0000 0.31040  0.84060  0.99860  Biso   1.000  H
  H50      1.0000 0.18960  0.34060  0.50140  Biso   1.000  H
  H51      1.0000 0.68960  0.15940  0.00140  Biso   1.000  H
  H52      1.0000 0.81040  0.65940  0.49860  Biso   1.000  H
  C81      1.0000 0.42984  0.91530  0.05235  Biso   1.000  C
  C82      1.0000 0.07016  0.41530  0.44765  Biso   1.000  C
  C83      1.0000 0.57016  0.08470  0.94765  Biso   1.000  C
  C84      1.0000 0.92984  0.58470  0.55235  Biso   1.000  C
  H53      1.0000 0.46300  0.82480  0.03660  Biso   1.000  H
  H54      1.0000 0.03700  0.32480  0.46340  Biso   1.000  H
  H55      1.0000 0.53700  0.17520  0.96340  Biso   1.000  H
  H56      1.0000 0.96300  0.67520  0.53660  Biso   1.000  H
  C85      1.0000 0.47228  0.03690  0.09767  Biso   1.000  C
  C86      1.0000 0.02772  0.53690  0.40233  Biso   1.000  C
  C87      1.0000 0.52772  0.96310  0.90233  Biso   1.000  C
  C88      1.0000 0.97228  0.46310  0.59767  Biso   1.000  C
  H57      1.0000 0.53450  0.03010  0.11310  Biso   1.000  H
  H58      1.0000 0.96550  0.53010  0.38690  Biso   1.000  H
  H59      1.0000 0.46550  0.96990  0.88690  Biso   1.000  H
  H60      1.0000 0.03450  0.46990  0.61310  Biso   1.000  H
  C89      1.0000 0.54641  0.18400  0.24466  Biso   1.000  C
  C90      1.0000 0.95359  0.68400  0.25534  Biso   1.000  C
  C91      1.0000 0.45359  0.81600  0.75534  Biso   1.000  C
  C92      1.0000 0.04641  0.31600  0.74466  Biso   1.000  C
  H61      1.0000 0.59670  0.13220  0.22860  Biso   1.000  H
  H62      1.0000 0.90330  0.63220  0.27140  Biso   1.000  H
  H63      1.0000 0.40330  0.86780  0.77140  Biso   1.000  H
  H64      1.0000 0.09670  0.36780  0.72860  Biso   1.000  H
  H65      1.0000 0.57120  0.26260  0.28170  Biso   1.000  H
  H66      1.0000 0.92880  0.76260  0.21830  Biso   1.000  H
  H67      1.0000 0.42880  0.73740  0.71830  Biso   1.000  H
  H68      1.0000 0.07120  0.23740  0.78170  Biso   1.000  H
  C93      1.0000 0.49545  0.03090  0.26872  Biso   1.000  C
  C94      1.0000 0.00455  0.53090  0.23128  Biso   1.000  C
  C95      1.0000 0.50455  0.96910  0.73128  Biso   1.000  C
  C96      1.0000 0.99545  0.46910  0.76872  Biso   1.000  C
  H69      1.0000 0.46920  0.95290  0.23180  Biso   1.000  H
  H70      1.0000 0.03080  0.45290  0.26820  Biso   1.000  H
  H71      1.0000 0.53080  0.04710  0.76820  Biso   1.000  H
  H72      1.0000 0.96920  0.54710  0.73180  Biso   1.000  H
  H73      1.0000 0.44660  0.08150  0.28680  Biso   1.000  H
  H74      1.0000 0.05340  0.58150  0.21320  Biso   1.000  H
  H75      1.0000 0.55340  0.91850  0.71320  Biso   1.000  H
  H76      1.0000 0.94660  0.41850  0.78680  Biso   1.000  H
  C97      1.0000 0.55568  0.91820  0.32066  Biso   1.000  C
  C98      1.0000 0.94432  0.41820  0.17934  Biso   1.000  C
  C99      1.0000 0.44432  0.08180  0.67934  Biso   1.000  C
  C100     1.0000 0.05568  0.58180  0.82066  Biso   1.000  C
  H77      1.0000 0.52240  0.81160  0.33010  Biso   1.000  H
  H78      1.0000 0.97760  0.31160  0.16990  Biso   1.000  H
  H79      1.0000 0.47760  0.18840  0.66990  Biso   1.000  H
  H80      1.0000 0.02240  0.68840  0.83010  Biso   1.000  H
  H81      1.0000 0.60660  0.87530  0.30320  Biso   1.000  H
  H82      1.0000 0.89340  0.37530  0.19680  Biso   1.000  H
  H83      1.0000 0.39340  0.12470  0.69680  Biso   1.000  H
  H84      1.0000 0.10660  0.62470  0.80320  Biso   1.000  H
  C101     1.0000 0.59020  0.01690  0.38293  Biso   1.000  C
  C102     1.0000 0.90980  0.51690  0.11707  Biso   1.000  C
  C103     1.0000 0.40980  0.98310  0.61707  Biso   1.000  C
  C104     1.0000 0.09020  0.48310  0.88293  Biso   1.000  C
  H85      1.0000 0.62870  0.93730  0.41330  Biso   1.000  H
  H86      1.0000 0.87130  0.43730  0.08670  Biso   1.000  H
  H87      1.0000 0.37130  0.06270  0.58670  Biso   1.000  H
  H88      1.0000 0.12870  0.56270  0.91330  Biso   1.000  H
  H89      1.0000 0.54040  0.05560  0.40170  Biso   1.000  H
  H90      1.0000 0.95960  0.55560  0.09830  Biso   1.000  H
  H91      1.0000 0.45960  0.94440  0.59830  Biso   1.000  H
  H92      1.0000 0.04040  0.44440  0.90170  Biso   1.000  H
  H93      1.0000 0.62390  0.12200  0.37430  Biso   1.000  H
  H94      1.0000 0.87610  0.62200  0.12570  Biso   1.000  H
  H95      1.0000 0.37610  0.87800  0.62570  Biso   1.000  H
  H96      1.0000 0.12390  0.37800  0.87430  Biso   1.000  H
