data_image0
_cell_length_a       7.4094
_cell_length_b       23.526
_cell_length_c       8.9951
_cell_angle_alpha    90
_cell_angle_beta     111.938
_cell_angle_gamma    90

_symmetry_space_group_name_H-M    "P 1"
_symmetry_int_tables_number       1

loop_
  _symmetry_equiv_pos_as_xyz
  'x, y, z'

loop_
  _atom_site_label
  _atom_site_occupancy
  _atom_site_fract_x
  _atom_site_fract_y
  _atom_site_fract_z
  _atom_site_thermal_displace_type
  _atom_site_B_iso_or_equiv
  _atom_site_type_symbol
  Cu1      1.0000 0.76161  0.25415  0.78926  Biso   1.000  Cu
  Cu2      1.0000 0.23839  0.75415  0.21074  Biso   1.000  Cu
  O1       1.0000 0.96860  0.31003  0.80370  Biso   1.000  O
  O2       1.0000 0.03140  0.81003  0.19630  Biso   1.000  O
  H1       1.0000 0.05700  0.31310  0.88500  Biso   1.000  H
  H2       1.0000 0.94300  0.81310  0.11500  Biso   1.000  H
  H3       1.0000 0.00100  0.30670  0.72700  Biso   1.000  H
  H4       1.0000 0.99900  0.80670  0.27300  Biso   1.000  H
  N1       1.0000 0.87930  0.24148  0.02220  Biso   1.000  N
  N2       1.0000 0.12070  0.74148  0.97780  Biso   1.000  N
  N3       1.0000 0.06830  0.29946  0.52860  Biso   1.000  N
  N4       1.0000 0.93170  0.79946  0.47140  Biso   1.000  N
  N5       1.0000 0.02720  0.23272  0.31050  Biso   1.000  N
  N6       1.0000 0.97280  0.73272  0.68950  Biso   1.000  N
  N7       1.0000 0.62910  0.28663  0.57510  Biso   1.000  N
  N8       1.0000 0.37090  0.78663  0.42490  Biso   1.000  N
  N9       1.0000 0.23770  0.33828  0.09660  Biso   1.000  N
  N10      1.0000 0.76230  0.83828  0.90340  Biso   1.000  N
  N11      1.0000 0.52570  0.34380  0.33480  Biso   1.000  N
  N12      1.0000 0.47430  0.84380  0.66520  Biso   1.000  N
  N13      1.0000 0.52090  0.21316  0.77290  Biso   1.000  N
  N14      1.0000 0.47910  0.71316  0.22710  Biso   1.000  N
  N15      1.0000 0.91810  0.18296  0.71770  Biso   1.000  N
  N16      1.0000 0.08190  0.68296  0.28230  Biso   1.000  N
  N17      1.0000 0.22860  0.15670  0.70250  Biso   1.000  N
  N18      1.0000 0.77140  0.65670  0.29750  Biso   1.000  N
  C1       1.0000 0.94550  0.24061  0.15870  Biso   1.000  C
  C2       1.0000 0.05450  0.74061  0.84130  Biso   1.000  C
  C3       1.0000 0.04480  0.27110  0.42120  Biso   1.000  C
  C4       1.0000 0.95520  0.77110  0.57880  Biso   1.000  C
  C5       1.0000 0.57200  0.31184  0.45990  Biso   1.000  C
  C6       1.0000 0.42800  0.81184  0.54010  Biso   1.000  C
  C7       1.0000 0.36830  0.33798  0.21150  Biso   1.000  C
  C8       1.0000 0.63170  0.83798  0.78850  Biso   1.000  C
  C9       1.0000 0.37870  0.18970  0.74220  Biso   1.000  C
  C10      1.0000 0.62130  0.68970  0.25780  Biso   1.000  C
  C11      1.0000 0.06730  0.17318  0.71450  Biso   1.000  C
  C12      1.0000 0.93270  0.67318  0.28550  Biso   1.000  C
  P1       1.0000 0.14475  0.01320  0.20214  Biso   1.000  P
  P2       1.0000 0.85525  0.51320  0.79786  Biso   1.000  P
  C13      1.0000 0.28210  0.95397  0.17590  Biso   1.000  C
  C14      1.0000 0.71790  0.45397  0.82410  Biso   1.000  C
  C15      1.0000 0.46500  0.94428  0.29540  Biso   1.000  C
  C16      1.0000 0.53500  0.44428  0.70460  Biso   1.000  C
  H5       1.0000 0.51230  0.96810  0.38410  Biso   1.000  H
  H6       1.0000 0.48770  0.46810  0.61590  Biso   1.000  H
  C17      1.0000 0.57470  0.89855  0.27980  Biso   1.000  C
  C18      1.0000 0.42530  0.39855  0.72020  Biso   1.000  C
  H7       1.0000 0.69550  0.89120  0.35950  Biso   1.000  H
  H8       1.0000 0.30450  0.39120  0.64050  Biso   1.000  H
  C19      1.0000 0.50640  0.86415  0.14780  Biso   1.000  C
  C20      1.0000 0.49360  0.36415  0.85220  Biso   1.000  C
  H9       1.0000 0.58120  0.83370  0.13800  Biso   1.000  H
  H10      1.0000 0.41880  0.33370  0.86200  Biso   1.000  H
  C21      1.0000 0.32740  0.87441  0.02940  Biso   1.000  C
  C22      1.0000 0.67260  0.37441  0.97060  Biso   1.000  C
  H11      1.0000 0.28330  0.85110  0.93950  Biso   1.000  H
  H12      1.0000 0.71670  0.35110  0.06050  Biso   1.000  H
  C23      1.0000 0.21220  0.91893  0.04250  Biso   1.000  C
  C24      1.0000 0.78780  0.41893  0.95750  Biso   1.000  C
  H13      1.0000 0.09030  0.92520  0.96330  Biso   1.000  H
  H14      1.0000 0.90970  0.42520  0.03670  Biso   1.000  H
  C25      1.0000 0.07980  0.00220  0.37310  Biso   1.000  C
  C26      1.0000 0.92020  0.50220  0.62690  Biso   1.000  C
  C27      1.0000 0.96440  0.04309  0.40680  Biso   1.000  C
  C28      1.0000 0.03560  0.54309  0.59320  Biso   1.000  C
  H15      1.0000 0.92920  0.07580  0.34450  Biso   1.000  H
  H16      1.0000 0.07080  0.57580  0.65550  Biso   1.000  H
  C29      1.0000 0.90250  0.03538  0.53160  Biso   1.000  C
  C30      1.0000 0.09750  0.53538  0.46840  Biso   1.000  C
  H17      1.0000 0.82770  0.06310  0.55530  Biso   1.000  H
  H18      1.0000 0.17230  0.56310  0.44470  Biso   1.000  H
  C31      1.0000 0.95220  0.98622  0.62160  Biso   1.000  C
  C32      1.0000 0.04780  0.48622  0.37840  Biso   1.000  C
  H19      1.0000 0.90980  0.98090  0.70570  Biso   1.000  H
  H20      1.0000 0.09020  0.48090  0.29430  Biso   1.000  H
  C33      1.0000 0.06280  0.94525  0.58870  Biso   1.000  C
  C34      1.0000 0.93720  0.44525  0.41130  Biso   1.000  C
  H21      1.0000 0.09370  0.91220  0.64980  Biso   1.000  H
  H22      1.0000 0.90630  0.41220  0.35020  Biso   1.000  H
  C35      1.0000 0.12950  0.95260  0.46430  Biso   1.000  C
  C36      1.0000 0.87050  0.45260  0.53570  Biso   1.000  C
  H23      1.0000 0.20580  0.92490  0.44240  Biso   1.000  H
  H24      1.0000 0.79420  0.42490  0.55760  Biso   1.000  H
  C37      1.0000 0.29700  0.07495  0.22760  Biso   1.000  C
  C38      1.0000 0.70300  0.57495  0.77240  Biso   1.000  C
  C39      1.0000 0.38390  0.08377  0.11890  Biso   1.000  C
  C40      1.0000 0.61610  0.58377  0.88110  Biso   1.000  C
  H25      1.0000 0.36090  0.05860  0.03400  Biso   1.000  H
  H26      1.0000 0.63910  0.55860  0.96600  Biso   1.000  H
  C41      1.0000 0.50500  0.12969  0.13500  Biso   1.000  C
  C42      1.0000 0.49500  0.62969  0.86500  Biso   1.000  C
  H27      1.0000 0.56150  0.13590  0.05990  Biso   1.000  H
  H28      1.0000 0.43850  0.63590  0.94010  Biso   1.000  H
  C43      1.0000 0.54210  0.16620  0.26190  Biso   1.000  C
  C44      1.0000 0.45790  0.66620  0.73810  Biso   1.000  C
  H29      1.0000 0.62620  0.19670  0.27420  Biso   1.000  H
  H30      1.0000 0.37380  0.69670  0.72580  Biso   1.000  H
  C45      1.0000 0.45500  0.15764  0.37080  Biso   1.000  C
  C46      1.0000 0.54500  0.65764  0.62920  Biso   1.000  C
  H31      1.0000 0.47960  0.18270  0.45610  Biso   1.000  H
  H32      1.0000 0.52040  0.68270  0.54390  Biso   1.000  H
  C47      1.0000 0.33220  0.11245  0.35480  Biso   1.000  C
  C48      1.0000 0.66780  0.61245  0.64520  Biso   1.000  C
  H33      1.0000 0.27310  0.10690  0.42850  Biso   1.000  H
  H34      1.0000 0.72690  0.60690  0.57150  Biso   1.000  H
  C49      1.0000 0.91830  0.02130  0.03430  Biso   1.000  C
  C50      1.0000 0.08170  0.52130  0.96570  Biso   1.000  C
  C51      1.0000 0.78070  0.97811  0.00470  Biso   1.000  C
  C52      1.0000 0.21930  0.47811  0.99530  Biso   1.000  C
  H35      1.0000 0.80910  0.94570  0.06830  Biso   1.000  H
  H36      1.0000 0.19090  0.44570  0.93170  Biso   1.000  H
  C53      1.0000 0.60230  0.98349  0.88100  Biso   1.000  C
  C54      1.0000 0.39770  0.48349  0.11900  Biso   1.000  C
  H37      1.0000 0.51090  0.95450  0.86070  Biso   1.000  H
  H38      1.0000 0.48910  0.45450  0.13930  Biso   1.000  H
  C55      1.0000 0.55890  0.03236  0.78630  Biso   1.000  C
  C56      1.0000 0.44110  0.53236  0.21370  Biso   1.000  C
  H39      1.0000 0.43820  0.03610  0.70350  Biso   1.000  H
  H40      1.0000 0.56180  0.53610  0.29650  Biso   1.000  H
  C57      1.0000 0.69430  0.07498  0.81540  Biso   1.000  C
  C58      1.0000 0.30570  0.57498  0.18460  Biso   1.000  C
  H41      1.0000 0.66490  0.10750  0.75190  Biso   1.000  H
  H42      1.0000 0.33510  0.60750  0.24810  Biso   1.000  H
  C59      1.0000 0.87450  0.06992  0.93880  Biso   1.000  C
  C60      1.0000 0.12550  0.56992  0.06120  Biso   1.000  C
  H43      1.0000 0.96590  0.09890  0.95790  Biso   1.000  H
  H44      1.0000 0.03410  0.59890  0.04210  Biso   1.000  H
