data_image0
_cell_length_a       8.808
_cell_length_b       6.4149
_cell_length_c       5.3418
_cell_angle_alpha    90
_cell_angle_beta     105.75
_cell_angle_gamma    90

_symmetry_space_group_name_H-M    "P 1"
_symmetry_int_tables_number       1

loop_
  _symmetry_equiv_pos_as_xyz
  'x, y, z'

loop_
  _atom_site_label
  _atom_site_occupancy
  _atom_site_fract_x
  _atom_site_fract_y
  _atom_site_fract_z
  _atom_site_thermal_displace_type
  _atom_site_B_iso_or_equiv
  _atom_site_type_symbol
  Cu1      1.0000 0.82670  0.25000  0.52400  Biso   1.000  Cu
  Cu2      1.0000 0.17330  0.75000  0.47600  Biso   1.000  Cu
  P1       1.0000 0.18550  0.25000  0.59450  Biso   1.000  P
  P2       1.0000 0.81450  0.75000  0.40550  Biso   1.000  P
  Na1      1.0000 0.00000  0.00000  0.00000  Biso   1.000  Na
  Na2      1.0000 0.00000  0.50000  0.00000  Biso   1.000  Na
  O1       1.0000 0.63600  0.25000  0.22500  Biso   1.000  O
  O2       1.0000 0.36400  0.75000  0.77500  Biso   1.000  O
  O3       1.0000 0.79930  0.25000  0.97900  Biso   1.000  O
  O4       1.0000 0.20070  0.75000  0.02100  Biso   1.000  O
  O5       1.0000 0.17770  0.06130  0.42100  Biso   1.000  O
  O6       1.0000 0.82230  0.56130  0.57900  Biso   1.000  O
  O7       1.0000 0.82230  0.93870  0.57900  Biso   1.000  O
  O8       1.0000 0.17770  0.43870  0.42100  Biso   1.000  O
  O9       1.0000 0.05460  0.25000  0.73100  Biso   1.000  O
  O10      1.0000 0.94540  0.75000  0.26900  Biso   1.000  O
  C1       1.0000 0.35840  0.25000  0.87500  Biso   1.000  C
  C2       1.0000 0.64160  0.75000  0.12500  Biso   1.000  C
  C3       1.0000 0.51100  0.25000  0.76600  Biso   1.000  C
  C4       1.0000 0.48900  0.75000  0.23400  Biso   1.000  C
  C5       1.0000 0.66600  0.25000  0.00100  Biso   1.000  C
  C6       1.0000 0.33400  0.75000  0.99900  Biso   1.000  C
