data_image0
_cell_length_a       8.7558
_cell_length_b       16.6604
_cell_length_c       21.5919
_cell_angle_alpha    90
_cell_angle_beta     99.6544
_cell_angle_gamma    90

_symmetry_space_group_name_H-M    "P 1"
_symmetry_int_tables_number       1

loop_
  _symmetry_equiv_pos_as_xyz
  'x, y, z'

loop_
  _atom_site_label
  _atom_site_occupancy
  _atom_site_fract_x
  _atom_site_fract_y
  _atom_site_fract_z
  _atom_site_thermal_displace_type
  _atom_site_B_iso_or_equiv
  _atom_site_type_symbol
  Cu1      1.0000 0.43908  0.07243  0.89321  Biso   1.000  Cu
  Cu2      1.0000 0.93908  0.57243  0.89321  Biso   1.000  Cu
  Cu3      1.0000 0.56092  0.07243  0.60679  Biso   1.000  Cu
  Cu4      1.0000 0.06092  0.57243  0.60679  Biso   1.000  Cu
  Cu5      1.0000 0.56092  0.92757  0.10679  Biso   1.000  Cu
  Cu6      1.0000 0.06092  0.42757  0.10679  Biso   1.000  Cu
  Cu7      1.0000 0.43908  0.92757  0.39321  Biso   1.000  Cu
  Cu8      1.0000 0.93908  0.42757  0.39321  Biso   1.000  Cu
  Cu9      1.0000 0.42938  0.43157  0.89279  Biso   1.000  Cu
  Cu10     1.0000 0.92938  0.93157  0.89279  Biso   1.000  Cu
  Cu11     1.0000 0.57062  0.43157  0.60721  Biso   1.000  Cu
  Cu12     1.0000 0.07062  0.93157  0.60721  Biso   1.000  Cu
  Cu13     1.0000 0.57062  0.56843  0.10721  Biso   1.000  Cu
  Cu14     1.0000 0.07062  0.06843  0.10721  Biso   1.000  Cu
  Cu15     1.0000 0.42938  0.56843  0.39279  Biso   1.000  Cu
  Cu16     1.0000 0.92938  0.06843  0.39279  Biso   1.000  Cu
  Na1      1.0000 0.25000  0.25000  0.00000  Biso   1.000  Na
  Na2      1.0000 0.75000  0.75000  0.00000  Biso   1.000  Na
  Na3      1.0000 0.75000  0.25000  0.50000  Biso   1.000  Na
  Na4      1.0000 0.25000  0.75000  0.50000  Biso   1.000  Na
  Na5      1.0000 0.25000  0.75000  0.00000  Biso   1.000  Na
  Na6      1.0000 0.75000  0.25000  0.00000  Biso   1.000  Na
  Na7      1.0000 0.75000  0.75000  0.50000  Biso   1.000  Na
  Na8      1.0000 0.25000  0.25000  0.50000  Biso   1.000  Na
  Na9      1.0000 0.00316  0.33871  0.84074  Biso   1.000  Na
  Na10     1.0000 0.50316  0.83871  0.84074  Biso   1.000  Na
  Na11     1.0000 0.99684  0.33871  0.65926  Biso   1.000  Na
  Na12     1.0000 0.49684  0.83871  0.65926  Biso   1.000  Na
  Na13     1.0000 0.99684  0.66129  0.15926  Biso   1.000  Na
  Na14     1.0000 0.49684  0.16129  0.15926  Biso   1.000  Na
  Na15     1.0000 0.00316  0.66129  0.34074  Biso   1.000  Na
  Na16     1.0000 0.50316  0.16129  0.34074  Biso   1.000  Na
  C1       1.0000 0.62800  0.14490  0.81671  Biso   1.000  C
  C2       1.0000 0.12800  0.64490  0.81671  Biso   1.000  C
  C3       1.0000 0.37200  0.14490  0.68329  Biso   1.000  C
  C4       1.0000 0.87200  0.64490  0.68329  Biso   1.000  C
  C5       1.0000 0.37200  0.85510  0.18329  Biso   1.000  C
  C6       1.0000 0.87200  0.35510  0.18329  Biso   1.000  C
  C7       1.0000 0.62800  0.85510  0.31671  Biso   1.000  C
  C8       1.0000 0.12800  0.35510  0.31671  Biso   1.000  C
  C9       1.0000 0.56370  0.21240  0.85047  Biso   1.000  C
  C10      1.0000 0.06370  0.71240  0.85047  Biso   1.000  C
  C11      1.0000 0.43630  0.21240  0.64953  Biso   1.000  C
  C12      1.0000 0.93630  0.71240  0.64953  Biso   1.000  C
  C13      1.0000 0.43630  0.78760  0.14953  Biso   1.000  C
  C14      1.0000 0.93630  0.28760  0.14953  Biso   1.000  C
  C15      1.0000 0.56370  0.78760  0.35047  Biso   1.000  C
  C16      1.0000 0.06370  0.28760  0.35047  Biso   1.000  C
  C17      1.0000 0.56050  0.29500  0.85034  Biso   1.000  C
  C18      1.0000 0.06050  0.79500  0.85034  Biso   1.000  C
  C19      1.0000 0.43950  0.29500  0.64966  Biso   1.000  C
  C20      1.0000 0.93950  0.79500  0.64966  Biso   1.000  C
  C21      1.0000 0.43950  0.70500  0.14966  Biso   1.000  C
  C22      1.0000 0.93950  0.20500  0.14966  Biso   1.000  C
  C23      1.0000 0.56050  0.70500  0.35034  Biso   1.000  C
  C24      1.0000 0.06050  0.20500  0.35034  Biso   1.000  C
  C25      1.0000 0.62740  0.36280  0.81916  Biso   1.000  C
  C26      1.0000 0.12740  0.86280  0.81916  Biso   1.000  C
  C27      1.0000 0.37260  0.36280  0.68084  Biso   1.000  C
  C28      1.0000 0.87260  0.86280  0.68084  Biso   1.000  C
  C29      1.0000 0.37260  0.63720  0.18084  Biso   1.000  C
  C30      1.0000 0.87260  0.13720  0.18084  Biso   1.000  C
  C31      1.0000 0.62740  0.63720  0.31916  Biso   1.000  C
  C32      1.0000 0.12740  0.13720  0.31916  Biso   1.000  C
  C33      1.0000 0.36590  0.58000  0.94013  Biso   1.000  C
  C34      1.0000 0.86590  0.08000  0.94013  Biso   1.000  C
  C35      1.0000 0.63410  0.58000  0.55987  Biso   1.000  C
  C36      1.0000 0.13410  0.08000  0.55987  Biso   1.000  C
  C37      1.0000 0.63410  0.42000  0.05987  Biso   1.000  C
  C38      1.0000 0.13410  0.92000  0.05987  Biso   1.000  C
  C39      1.0000 0.36590  0.42000  0.44013  Biso   1.000  C
  C40      1.0000 0.86590  0.92000  0.44013  Biso   1.000  C
  C41      1.0000 0.29030  0.52070  0.97683  Biso   1.000  C
  C42      1.0000 0.79030  0.02070  0.97683  Biso   1.000  C
  C43      1.0000 0.70970  0.52070  0.52317  Biso   1.000  C
  C44      1.0000 0.20970  0.02070  0.52317  Biso   1.000  C
  C45      1.0000 0.70970  0.47930  0.02317  Biso   1.000  C
  C46      1.0000 0.20970  0.97930  0.02317  Biso   1.000  C
  C47      1.0000 0.29030  0.47930  0.47683  Biso   1.000  C
  C48      1.0000 0.79030  0.97930  0.47683  Biso   1.000  C
  C49      1.0000 0.20010  0.52040  0.02386  Biso   1.000  C
  C50      1.0000 0.70010  0.02040  0.02386  Biso   1.000  C
  C51      1.0000 0.79990  0.52040  0.47614  Biso   1.000  C
  C52      1.0000 0.29990  0.02040  0.47614  Biso   1.000  C
  C53      1.0000 0.79990  0.47960  0.97614  Biso   1.000  C
  C54      1.0000 0.29990  0.97960  0.97614  Biso   1.000  C
  C55      1.0000 0.20010  0.47960  0.52386  Biso   1.000  C
  C56      1.0000 0.70010  0.97960  0.52386  Biso   1.000  C
  C57      1.0000 0.13230  0.57910  0.06360  Biso   1.000  C
  C58      1.0000 0.63230  0.07910  0.06360  Biso   1.000  C
  C59      1.0000 0.86770  0.57910  0.43640  Biso   1.000  C
  C60      1.0000 0.36770  0.07910  0.43640  Biso   1.000  C
  C61      1.0000 0.86770  0.42090  0.93640  Biso   1.000  C
  C62      1.0000 0.36770  0.92090  0.93640  Biso   1.000  C
  C63      1.0000 0.13230  0.42090  0.56360  Biso   1.000  C
  C64      1.0000 0.63230  0.92090  0.56360  Biso   1.000  C
  N1       1.0000 0.47920  0.18868  0.89394  Biso   1.000  N
  N2       1.0000 0.97920  0.68868  0.89394  Biso   1.000  N
  N3       1.0000 0.52080  0.18868  0.60606  Biso   1.000  N
  N4       1.0000 0.02080  0.68868  0.60606  Biso   1.000  N
  N5       1.0000 0.52080  0.81132  0.10606  Biso   1.000  N
  N6       1.0000 0.02080  0.31132  0.10606  Biso   1.000  N
  N7       1.0000 0.47920  0.81132  0.39394  Biso   1.000  N
  N8       1.0000 0.97920  0.31132  0.39394  Biso   1.000  N
  N9       1.0000 0.42520  0.25213  0.92077  Biso   1.000  N
  N10      1.0000 0.92520  0.75213  0.92077  Biso   1.000  N
  N11      1.0000 0.57480  0.25213  0.57923  Biso   1.000  N
  N12      1.0000 0.07480  0.75213  0.57923  Biso   1.000  N
  N13      1.0000 0.57480  0.74787  0.07923  Biso   1.000  N
  N14      1.0000 0.07480  0.24787  0.07923  Biso   1.000  N
  N15      1.0000 0.42520  0.74787  0.42077  Biso   1.000  N
  N16      1.0000 0.92520  0.24787  0.42077  Biso   1.000  N
  N17      1.0000 0.47340  0.31612  0.89345  Biso   1.000  N
  N18      1.0000 0.97340  0.81612  0.89345  Biso   1.000  N
  N19      1.0000 0.52660  0.31612  0.60655  Biso   1.000  N
  N20      1.0000 0.02660  0.81612  0.60655  Biso   1.000  N
  N21      1.0000 0.52660  0.68388  0.10655  Biso   1.000  N
  N22      1.0000 0.02660  0.18388  0.10655  Biso   1.000  N
  N23      1.0000 0.47340  0.68388  0.39345  Biso   1.000  N
  N24      1.0000 0.97340  0.18388  0.39345  Biso   1.000  N
  N25      1.0000 0.30990  0.44305  0.96238  Biso   1.000  N
  N26      1.0000 0.80990  0.94305  0.96238  Biso   1.000  N
  N27      1.0000 0.69010  0.44305  0.53762  Biso   1.000  N
  N28      1.0000 0.19010  0.94305  0.53762  Biso   1.000  N
  N29      1.0000 0.69010  0.55695  0.03762  Biso   1.000  N
  N30      1.0000 0.19010  0.05695  0.03762  Biso   1.000  N
  N31      1.0000 0.30990  0.55695  0.46238  Biso   1.000  N
  N32      1.0000 0.80990  0.05695  0.46238  Biso   1.000  N
  N33      1.0000 0.23920  0.39546  0.99755  Biso   1.000  N
  N34      1.0000 0.73920  0.89546  0.99755  Biso   1.000  N
  N35      1.0000 0.76080  0.39546  0.50245  Biso   1.000  N
  N36      1.0000 0.26080  0.89546  0.50245  Biso   1.000  N
  N37      1.0000 0.76080  0.60454  0.00245  Biso   1.000  N
  N38      1.0000 0.26080  0.10454  0.00245  Biso   1.000  N
  N39      1.0000 0.23920  0.60454  0.49755  Biso   1.000  N
  N40      1.0000 0.73920  0.10454  0.49755  Biso   1.000  N
  N41      1.0000 0.17250  0.44177  0.03511  Biso   1.000  N
  N42      1.0000 0.67250  0.94177  0.03511  Biso   1.000  N
  N43      1.0000 0.82750  0.44177  0.46489  Biso   1.000  N
  N44      1.0000 0.32750  0.94177  0.46489  Biso   1.000  N
  N45      1.0000 0.82750  0.55823  0.96489  Biso   1.000  N
  N46      1.0000 0.32750  0.05823  0.96489  Biso   1.000  N
  N47      1.0000 0.17250  0.55823  0.53511  Biso   1.000  N
  N48      1.0000 0.67250  0.05823  0.53511  Biso   1.000  N
  O1       1.0000 0.58340  0.07530  0.83197  Biso   1.000  O
  O2       1.0000 0.08340  0.57530  0.83197  Biso   1.000  O
  O3       1.0000 0.41660  0.07530  0.66803  Biso   1.000  O
  O4       1.0000 0.91660  0.57530  0.66803  Biso   1.000  O
  O5       1.0000 0.41660  0.92470  0.16803  Biso   1.000  O
  O6       1.0000 0.91660  0.42470  0.16803  Biso   1.000  O
  O7       1.0000 0.58340  0.92470  0.33197  Biso   1.000  O
  O8       1.0000 0.08340  0.42470  0.33197  Biso   1.000  O
  O9       1.0000 0.21560  0.08458  0.82447  Biso   1.000  O
  O10      1.0000 0.71560  0.58458  0.82447  Biso   1.000  O
  O11      1.0000 0.78440  0.08458  0.67553  Biso   1.000  O
  O12      1.0000 0.28440  0.58458  0.67553  Biso   1.000  O
  O13      1.0000 0.78440  0.91542  0.17553  Biso   1.000  O
  O14      1.0000 0.28440  0.41542  0.17553  Biso   1.000  O
  O15      1.0000 0.21560  0.91542  0.32447  Biso   1.000  O
  O16      1.0000 0.71560  0.41542  0.32447  Biso   1.000  O
  O17      1.0000 0.71650  0.15849  0.77903  Biso   1.000  O
  O18      1.0000 0.21650  0.65849  0.77903  Biso   1.000  O
  O19      1.0000 0.28350  0.15849  0.72097  Biso   1.000  O
  O20      1.0000 0.78350  0.65849  0.72097  Biso   1.000  O
  O21      1.0000 0.28350  0.84151  0.22097  Biso   1.000  O
  O22      1.0000 0.78350  0.34151  0.22097  Biso   1.000  O
  O23      1.0000 0.71650  0.84151  0.27903  Biso   1.000  O
  O24      1.0000 0.21650  0.34151  0.27903  Biso   1.000  O
  O25      1.0000 0.20820  0.42672  0.81815  Biso   1.000  O
  O26      1.0000 0.70820  0.92672  0.81815  Biso   1.000  O
  O27      1.0000 0.79180  0.42672  0.68185  Biso   1.000  O
  O28      1.0000 0.29180  0.92672  0.68185  Biso   1.000  O
  O29      1.0000 0.79180  0.57328  0.18185  Biso   1.000  O
  O30      1.0000 0.29180  0.07328  0.18185  Biso   1.000  O
  O31      1.0000 0.20820  0.57328  0.31815  Biso   1.000  O
  O32      1.0000 0.70820  0.07328  0.31815  Biso   1.000  O
  O33      1.0000 0.72760  0.35157  0.78574  Biso   1.000  O
  O34      1.0000 0.22760  0.85157  0.78574  Biso   1.000  O
  O35      1.0000 0.27240  0.35157  0.71426  Biso   1.000  O
  O36      1.0000 0.77240  0.85157  0.71426  Biso   1.000  O
  O37      1.0000 0.27240  0.64843  0.21426  Biso   1.000  O
  O38      1.0000 0.77240  0.14843  0.21426  Biso   1.000  O
  O39      1.0000 0.72760  0.64843  0.28574  Biso   1.000  O
  O40      1.0000 0.22760  0.14843  0.28574  Biso   1.000  O
  O41      1.0000 0.08420  0.22128  0.89620  Biso   1.000  O
  O42      1.0000 0.58420  0.72128  0.89620  Biso   1.000  O
  O43      1.0000 0.91580  0.22128  0.60380  Biso   1.000  O
  O44      1.0000 0.41580  0.72128  0.60380  Biso   1.000  O
  O45      1.0000 0.91580  0.77872  0.10380  Biso   1.000  O
  O46      1.0000 0.41580  0.27872  0.10380  Biso   1.000  O
  O47      1.0000 0.08420  0.77872  0.39620  Biso   1.000  O
  O48      1.0000 0.58420  0.27872  0.39620  Biso   1.000  O
  O49      1.0000 0.57470  0.43194  0.83238  Biso   1.000  O
  O50      1.0000 0.07470  0.93194  0.83238  Biso   1.000  O
  O51      1.0000 0.42530  0.43194  0.66762  Biso   1.000  O
  O52      1.0000 0.92530  0.93194  0.66762  Biso   1.000  O
  O53      1.0000 0.42530  0.56806  0.16762  Biso   1.000  O
  O54      1.0000 0.92530  0.06806  0.16762  Biso   1.000  O
  O55      1.0000 0.57470  0.56806  0.33238  Biso   1.000  O
  O56      1.0000 0.07470  0.06806  0.33238  Biso   1.000  O
  O57      1.0000 0.00000  0.25580  0.75000  Biso   1.000  O
  O58      1.0000 0.50000  0.75580  0.75000  Biso   1.000  O
  O59      1.0000 0.00000  0.74420  0.25000  Biso   1.000  O
  O60      1.0000 0.50000  0.24420  0.25000  Biso   1.000  O
  O61      1.0000 0.44040  0.54881  0.90029  Biso   1.000  O
  O62      1.0000 0.94040  0.04881  0.90029  Biso   1.000  O
  O63      1.0000 0.55960  0.54881  0.59971  Biso   1.000  O
  O64      1.0000 0.05960  0.04881  0.59971  Biso   1.000  O
  O65      1.0000 0.55960  0.45119  0.09971  Biso   1.000  O
  O66      1.0000 0.05960  0.95119  0.09971  Biso   1.000  O
  O67      1.0000 0.44040  0.45119  0.40029  Biso   1.000  O
  O68      1.0000 0.94040  0.95119  0.40029  Biso   1.000  O
  O69      1.0000 0.35310  0.65310  0.94875  Biso   1.000  O
  O70      1.0000 0.85310  0.15310  0.94875  Biso   1.000  O
  O71      1.0000 0.64690  0.65310  0.55125  Biso   1.000  O
  O72      1.0000 0.14690  0.15310  0.55125  Biso   1.000  O
  O73      1.0000 0.64690  0.34690  0.05125  Biso   1.000  O
  O74      1.0000 0.14690  0.84690  0.05125  Biso   1.000  O
  O75      1.0000 0.35310  0.34690  0.44875  Biso   1.000  O
  O76      1.0000 0.85310  0.84690  0.44875  Biso   1.000  O
  O77      1.0000 0.14530  0.65200  0.05747  Biso   1.000  O
  O78      1.0000 0.64530  0.15200  0.05747  Biso   1.000  O
  O79      1.0000 0.85470  0.65200  0.44253  Biso   1.000  O
  O80      1.0000 0.35470  0.15200  0.44253  Biso   1.000  O
  O81      1.0000 0.85470  0.34800  0.94253  Biso   1.000  O
  O82      1.0000 0.35470  0.84800  0.94253  Biso   1.000  O
  O83      1.0000 0.14530  0.34800  0.55747  Biso   1.000  O
  O84      1.0000 0.64530  0.84800  0.55747  Biso   1.000  O
  O85      1.0000 0.05700  0.54566  0.10305  Biso   1.000  O
  O86      1.0000 0.55700  0.04566  0.10305  Biso   1.000  O
  O87      1.0000 0.94300  0.54566  0.39695  Biso   1.000  O
  O88      1.0000 0.44300  0.04566  0.39695  Biso   1.000  O
  O89      1.0000 0.94300  0.45434  0.89695  Biso   1.000  O
  O90      1.0000 0.44300  0.95434  0.89695  Biso   1.000  O
  O91      1.0000 0.05700  0.45434  0.60305  Biso   1.000  O
  O92      1.0000 0.55700  0.95434  0.60305  Biso   1.000  O
