data_image0
_cell_length_a       9.2606
_cell_length_b       12.637
_cell_length_c       17.69
_cell_angle_alpha    90
_cell_angle_beta     90.756
_cell_angle_gamma    90

_symmetry_space_group_name_H-M    "P 1"
_symmetry_int_tables_number       1

loop_
  _symmetry_equiv_pos_as_xyz
  'x, y, z'

loop_
  _atom_site_label
  _atom_site_occupancy
  _atom_site_fract_x
  _atom_site_fract_y
  _atom_site_fract_z
  _atom_site_thermal_displace_type
  _atom_site_B_iso_or_equiv
  _atom_site_type_symbol
  Cu1      1.0000 0.10426  0.76844  0.81460  Biso   1.000  Cu
  Cu2      1.0000 0.89574  0.26844  0.18540  Biso   1.000  Cu
  Cu3      1.0000 0.60264  0.73043  0.77854  Biso   1.000  Cu
  Cu4      1.0000 0.39736  0.23043  0.22146  Biso   1.000  Cu
  C1       1.0000 0.85780  0.47860  0.41530  Biso   1.000  C
  C2       1.0000 0.14220  0.97860  0.58470  Biso   1.000  C
  H1       1.0000 0.77510  0.43280  0.41630  Biso   1.000  H
  H2       1.0000 0.22490  0.93280  0.58370  Biso   1.000  H
  H3       1.0000 0.92240  0.45540  0.37670  Biso   1.000  H
  H4       1.0000 0.07760  0.95540  0.62330  Biso   1.000  H
  H5       1.0000 0.82700  0.54970  0.40470  Biso   1.000  H
  H6       1.0000 0.17300  0.04970  0.59530  Biso   1.000  H
  C3       1.0000 0.84630  0.47990  0.54840  Biso   1.000  C
  C4       1.0000 0.15370  0.97990  0.45160  Biso   1.000  C
  C5       1.0000 0.93400  0.48140  0.61690  Biso   1.000  C
  C6       1.0000 0.06600  0.98140  0.38310  Biso   1.000  C
  H7       1.0000 0.03430  0.48000  0.61500  Biso   1.000  H
  H8       1.0000 0.96570  0.98000  0.38500  Biso   1.000  H
  C7       1.0000 0.86500  0.48510  0.68280  Biso   1.000  C
  C8       1.0000 0.13500  0.98510  0.31720  Biso   1.000  C
  H9       1.0000 0.92020  0.48350  0.72710  Biso   1.000  H
  H10      1.0000 0.07980  0.98350  0.27290  Biso   1.000  H
  C9       1.0000 0.71160  0.49120  0.68930  Biso   1.000  C
  C10      1.0000 0.28840  0.99120  0.31070  Biso   1.000  C
  C11      1.0000 0.63000  0.48850  0.62240  Biso   1.000  C
  C12      1.0000 0.37000  0.98850  0.37760  Biso   1.000  C
  C13      1.0000 0.70360  0.48390  0.55000  Biso   1.000  C
  C14      1.0000 0.29640  0.98390  0.45000  Biso   1.000  C
  H11      1.0000 0.65020  0.48380  0.50510  Biso   1.000  H
  H12      1.0000 0.34980  0.98380  0.49490  Biso   1.000  H
  C15      1.0000 0.64220  0.50160  0.75900  Biso   1.000  C
  C16      1.0000 0.35780  0.00160  0.24100  Biso   1.000  C
  H13      1.0000 0.69690  0.50090  0.80350  Biso   1.000  H
  H14      1.0000 0.30310  0.00090  0.19650  Biso   1.000  H
  C17      1.0000 0.49330  0.51300  0.76270  Biso   1.000  C
  C18      1.0000 0.50670  0.01300  0.23730  Biso   1.000  C
  C19      1.0000 0.41390  0.50820  0.69580  Biso   1.000  C
  C20      1.0000 0.58610  0.00820  0.30420  Biso   1.000  C
  H15      1.0000 0.31380  0.51270  0.69770  Biso   1.000  H
  H16      1.0000 0.68620  0.01270  0.30230  Biso   1.000  H
  C21      1.0000 0.47860  0.49700  0.62680  Biso   1.000  C
  C22      1.0000 0.52140  0.99700  0.37320  Biso   1.000  C
  H17      1.0000 0.42240  0.49510  0.58290  Biso   1.000  H
  H18      1.0000 0.57760  0.99510  0.41710  Biso   1.000  H
  C23      1.0000 0.41970  0.53410  0.83620  Biso   1.000  C
  C24      1.0000 0.58030  0.03410  0.16380  Biso   1.000  C
  H19      1.0000 0.49300  0.54300  0.88300  Biso   1.000  H
  H20      1.0000 0.50700  0.04300  0.11700  Biso   1.000  H
  C25      1.0000 0.33060  0.44040  0.86500  Biso   1.000  C
  C26      1.0000 0.66940  0.94040  0.13500  Biso   1.000  C
  H21      1.0000 0.26340  0.46490  0.90190  Biso   1.000  H
  H22      1.0000 0.73660  0.96490  0.09810  Biso   1.000  H
  H23      1.0000 0.39390  0.38880  0.88750  Biso   1.000  H
  H24      1.0000 0.60610  0.88880  0.11250  Biso   1.000  H
  H25      1.0000 0.27860  0.40880  0.82340  Biso   1.000  H
  H26      1.0000 0.72140  0.90880  0.17660  Biso   1.000  H
  C27      1.0000 0.33100  0.63400  0.82930  Biso   1.000  C
  C28      1.0000 0.66900  0.13400  0.17070  Biso   1.000  C
  C29      1.0000 0.35670  0.89860  0.79720  Biso   1.000  C
  C30      1.0000 0.64330  0.39860  0.20280  Biso   1.000  C
  H27      1.0000 0.45640  0.90440  0.79320  Biso   1.000  H
  H28      1.0000 0.54360  0.40440  0.20680  Biso   1.000  H
  C31      1.0000 0.27150  0.99460  0.78790  Biso   1.000  C
  C32      1.0000 0.72850  0.49460  0.21210  Biso   1.000  C
  C33      1.0000 0.34410  0.08960  0.77460  Biso   1.000  C
  C34      1.0000 0.65590  0.58960  0.22540  Biso   1.000  C
  H29      1.0000 0.44440  0.09100  0.77810  Biso   1.000  H
  H30      1.0000 0.55560  0.59100  0.22190  Biso   1.000  H
  C35      1.0000 0.27230  0.17950  0.75670  Biso   1.000  C
  C36      1.0000 0.72770  0.67950  0.24330  Biso   1.000  C
  H31      1.0000 0.32270  0.24240  0.75000  Biso   1.000  H
  H32      1.0000 0.67730  0.74240  0.25000  Biso   1.000  H
  C37      1.0000 0.12180  0.17740  0.74830  Biso   1.000  C
  C38      1.0000 0.87820  0.67740  0.25170  Biso   1.000  C
  H33      1.0000 0.07210  0.23720  0.73190  Biso   1.000  H
  H34      1.0000 0.92790  0.73720  0.26810  Biso   1.000  H
  C39      1.0000 0.04870  0.08620  0.76450  Biso   1.000  C
  C40      1.0000 0.95130  0.58620  0.23550  Biso   1.000  C
  H35      1.0000 0.94830  0.08800  0.76360  Biso   1.000  H
  H36      1.0000 0.05170  0.58800  0.23640  Biso   1.000  H
  C41      1.0000 0.11700  0.99030  0.78240  Biso   1.000  C
  C42      1.0000 0.88300  0.49030  0.21760  Biso   1.000  C
  C43      1.0000 0.74350  0.98760  0.90680  Biso   1.000  C
  C44      1.0000 0.25650  0.48760  0.09320  Biso   1.000  C
  H37      1.0000 0.77860  0.02380  0.86310  Biso   1.000  H
  H38      1.0000 0.22140  0.52380  0.13690  Biso   1.000  H
  H39      1.0000 0.69810  0.92260  0.89160  Biso   1.000  H
  H40      1.0000 0.30190  0.42260  0.10840  Biso   1.000  H
  H41      1.0000 0.82280  0.97240  0.94060  Biso   1.000  H
  H42      1.0000 0.17720  0.47240  0.05940  Biso   1.000  H
  C45      1.0000 0.67790  0.15820  0.95010  Biso   1.000  C
  C46      1.0000 0.32210  0.65820  0.04990  Biso   1.000  C
  C47      1.0000 0.58530  0.21480  0.99430  Biso   1.000  C
  C48      1.0000 0.41470  0.71480  0.00570  Biso   1.000  C
  H43      1.0000 0.50760  0.18110  0.01680  Biso   1.000  H
  H44      1.0000 0.49240  0.68110  0.98320  Biso   1.000  H
  C49      1.0000 0.60680  0.32000  0.00540  Biso   1.000  C
  C50      1.0000 0.39320  0.82000  0.99460  Biso   1.000  C
  H45      1.0000 0.54540  0.35730  0.03690  Biso   1.000  H
  H46      1.0000 0.45460  0.85730  0.96310  Biso   1.000  H
  C51      1.0000 0.72320  0.37490  0.96890  Biso   1.000  C
  C52      1.0000 0.27680  0.87490  0.03110  Biso   1.000  C
  C53      1.0000 0.81230  0.31410  0.92000  Biso   1.000  C
  C54      1.0000 0.18770  0.81410  0.08000  Biso   1.000  C
  C55      1.0000 0.78860  0.20580  0.91280  Biso   1.000  C
  C56      1.0000 0.21140  0.70580  0.08720  Biso   1.000  C
  H47      1.0000 0.84870  0.16550  0.88250  Biso   1.000  H
  H48      1.0000 0.15130  0.66550  0.11750  Biso   1.000  H
  C57      1.0000 0.74850  0.48260  0.98050  Biso   1.000  C
  C58      1.0000 0.25150  0.98260  0.01950  Biso   1.000  C
  H49      1.0000 0.68870  0.52080  0.01230  Biso   1.000  H
  H50      1.0000 0.31130  0.02080  0.98770  Biso   1.000  H
  C59      1.0000 0.86420  0.53420  0.94440  Biso   1.000  C
  C60      1.0000 0.13580  0.03420  0.05560  Biso   1.000  C
  C61      1.0000 0.95130  0.47190  0.89700  Biso   1.000  C
  C62      1.0000 0.04870  0.97190  0.10300  Biso   1.000  C
  H51      1.0000 0.02710  0.50400  0.87180  Biso   1.000  H
  H52      1.0000 0.97290  0.00400  0.12820  Biso   1.000  H
  C63      1.0000 0.92850  0.36770  0.88700  Biso   1.000  C
  C64      1.0000 0.07150  0.86770  0.11300  Biso   1.000  C
  H53      1.0000 0.99200  0.32960  0.85710  Biso   1.000  H
  H54      1.0000 0.00800  0.82960  0.14290  Biso   1.000  H
  C65      1.0000 0.89090  0.65260  0.94840  Biso   1.000  C
  C66      1.0000 0.10910  0.15260  0.05160  Biso   1.000  C
  H55      1.0000 0.99300  0.68100  0.93900  Biso   1.000  H
  H56      1.0000 0.00700  0.18100  0.06100  Biso   1.000  H
  C67      1.0000 0.83420  0.70580  0.02030  Biso   1.000  C
  C68      1.0000 0.16580  0.20580  0.97970  Biso   1.000  C
  H57      1.0000 0.73110  0.69840  0.02190  Biso   1.000  H
  H58      1.0000 0.26890  0.19840  0.97810  Biso   1.000  H
  H59      1.0000 0.85900  0.77960  0.01980  Biso   1.000  H
  H60      1.0000 0.14100  0.27960  0.98020  Biso   1.000  H
  H61      1.0000 0.87700  0.67270  0.06400  Biso   1.000  H
  H62      1.0000 0.12300  0.17270  0.93600  Biso   1.000  H
  C69      1.0000 0.81900  0.69730  0.87590  Biso   1.000  C
  C70      1.0000 0.18100  0.19730  0.12410  Biso   1.000  C
  C71      1.0000 0.85950  0.74900  0.68940  Biso   1.000  C
  C72      1.0000 0.14050  0.24900  0.31060  Biso   1.000  C
  H63      1.0000 0.95940  0.74650  0.68530  Biso   1.000  H
  H64      1.0000 0.04060  0.24650  0.31470  Biso   1.000  H
  C73      1.0000 0.77640  0.76170  0.62180  Biso   1.000  C
  C74      1.0000 0.22360  0.26170  0.37820  Biso   1.000  C
  C75      1.0000 0.85190  0.76710  0.55350  Biso   1.000  C
  C76      1.0000 0.14810  0.26710  0.44650  Biso   1.000  C
  H65      1.0000 0.95230  0.76940  0.55520  Biso   1.000  H
  H66      1.0000 0.04770  0.26940  0.44480  Biso   1.000  H
  C77      1.0000 0.78420  0.76920  0.48600  Biso   1.000  C
  C78      1.0000 0.21580  0.26920  0.51400  Biso   1.000  C
  H67      1.0000 0.83710  0.76690  0.44170  Biso   1.000  H
  H68      1.0000 0.16290  0.26690  0.55830  Biso   1.000  H
  C79      1.0000 0.63360  0.77480  0.48270  Biso   1.000  C
  C80      1.0000 0.36640  0.27480  0.51730  Biso   1.000  C
  H69      1.0000 0.58600  0.78080  0.43630  Biso   1.000  H
  H70      1.0000 0.41400  0.28080  0.56370  Biso   1.000  H
  C81      1.0000 0.55570  0.77140  0.54850  Biso   1.000  C
  C82      1.0000 0.44430  0.27140  0.45150  Biso   1.000  C
  H71      1.0000 0.45540  0.77200  0.54550  Biso   1.000  H
  H72      1.0000 0.54460  0.27200  0.45450  Biso   1.000  H
  C83      1.0000 0.62280  0.76690  0.61880  Biso   1.000  C
  C84      1.0000 0.37720  0.26690  0.38120  Biso   1.000  C
  C85      1.0000 0.67400  0.02890  0.61220  Biso   1.000  C
  C86      1.0000 0.32600  0.52890  0.38780  Biso   1.000  C
  H73      1.0000 0.58780  0.01790  0.58280  Biso   1.000  H
  H74      1.0000 0.41220  0.51790  0.41720  Biso   1.000  H
  H75      1.0000 0.65680  0.01110  0.66400  Biso   1.000  H
  H76      1.0000 0.34320  0.51110  0.33600  Biso   1.000  H
  H77      1.0000 0.75000  0.98470  0.59310  Biso   1.000  H
  H78      1.0000 0.25000  0.48470  0.40690  Biso   1.000  H
  C87      1.0000 0.69700  0.20800  0.67120  Biso   1.000  C
  C88      1.0000 0.30300  0.70800  0.32880  Biso   1.000  C
  H79      1.0000 0.78210  0.25060  0.67850  Biso   1.000  H
  H80      1.0000 0.21790  0.75060  0.32150  Biso   1.000  H
  H81      1.0000 0.68090  0.16640  0.71570  Biso   1.000  H
  H82      1.0000 0.31910  0.66640  0.28430  Biso   1.000  H
  H83      1.0000 0.61540  0.25300  0.66180  Biso   1.000  H
  H84      1.0000 0.38460  0.75300  0.33820  Biso   1.000  H
  C89      1.0000 0.79600  0.18610  0.54680  Biso   1.000  C
  C90      1.0000 0.20400  0.68610  0.45320  Biso   1.000  C
  O1       1.0000 0.79070  0.12910  0.48450  Biso   1.000  O
  O2       1.0000 0.20930  0.62910  0.51550  Biso   1.000  O
  N1       1.0000 0.71700  0.13860  0.60720  Biso   1.000  N
  N2       1.0000 0.28300  0.63860  0.39280  Biso   1.000  N
  O3       1.0000 0.80200  0.22500  0.51100  Biso   1.000  O
  O4       1.0000 0.19800  0.72500  0.48900  Biso   1.000  O
  C91      1.0000 0.77500  0.12800  0.53610  Biso   1.000  C
  C92      1.0000 0.22500  0.62800  0.46390  Biso   1.000  C
  C93      1.0000 0.72500  0.22600  0.66000  Biso   1.000  C
  C94      1.0000 0.27500  0.72600  0.34000  Biso   1.000  C
  H85      1.0000 0.78140  0.28100  0.63710  Biso   1.000  H
  H86      1.0000 0.21860  0.78100  0.36290  Biso   1.000  H
  H87      1.0000 0.76170  0.21240  0.71010  Biso   1.000  H
  H88      1.0000 0.23830  0.71240  0.28990  Biso   1.000  H
  H89      1.0000 0.62630  0.24760  0.66240  Biso   1.000  H
  H90      1.0000 0.37370  0.74760  0.33760  Biso   1.000  H
  C95      1.0000 0.69900  0.03700  0.65800  Biso   1.000  C
  C96      1.0000 0.30100  0.53700  0.34200  Biso   1.000  C
  H91      1.0000 0.60020  0.01740  0.64720  Biso   1.000  H
  H92      1.0000 0.39980  0.51740  0.35280  Biso   1.000  H
  H93      1.0000 0.70940  0.05150  0.71120  Biso   1.000  H
  H94      1.0000 0.29060  0.55150  0.28880  Biso   1.000  H
  H95      1.0000 0.76120  0.97960  0.64460  Biso   1.000  H
  H96      1.0000 0.23880  0.47960  0.35540  Biso   1.000  H
  N3       1.0000 0.73600  0.13000  0.61500  Biso   1.000  N
  N4       1.0000 0.26400  0.63000  0.38500  Biso   1.000  N
  N5       1.0000 0.40010  0.72330  0.81600  Biso   1.000  N
  N6       1.0000 0.59990  0.22330  0.18400  Biso   1.000  N
  N7       1.0000 0.30570  0.80850  0.81020  Biso   1.000  N
  N8       1.0000 0.69430  0.30850  0.18980  Biso   1.000  N
  N9       1.0000 0.89780  0.71940  0.81920  Biso   1.000  N
  N10      1.0000 0.10220  0.21940  0.18080  Biso   1.000  N
  N11      1.0000 0.80530  0.74060  0.75620  Biso   1.000  N
  N12      1.0000 0.19470  0.24060  0.24380  Biso   1.000  N
  O5       1.0000 0.92920  0.47570  0.48580  Biso   1.000  O
  O6       1.0000 0.07080  0.97570  0.51420  Biso   1.000  O
  O7       1.0000 0.19330  0.63180  0.83630  Biso   1.000  O
  O8       1.0000 0.80670  0.13180  0.16370  Biso   1.000  O
  O9       1.0000 0.03970  0.90920  0.79700  Biso   1.000  O
  O10      1.0000 0.96030  0.40920  0.20300  Biso   1.000  O
  O11      1.0000 0.64490  0.05040  0.94290  Biso   1.000  O
  O12      1.0000 0.35510  0.55040  0.05710  Biso   1.000  O
  O13      1.0000 0.68160  0.70150  0.87710  Biso   1.000  O
  O14      1.0000 0.31840  0.20150  0.12290  Biso   1.000  O
  O15      1.0000 0.54020  0.76330  0.67920  Biso   1.000  O
  O16      1.0000 0.45980  0.26330  0.32080  Biso   1.000  O
  O17      1.0000 0.21680  0.72180  0.65620  Biso   1.000  O
  O18      1.0000 0.78320  0.22180  0.34380  Biso   1.000  O
  H97      1.0000 0.21900  0.70900  0.61060  Biso   1.000  H
  H98      1.0000 0.78100  0.20900  0.38940  Biso   1.000  H
  H99      1.0000 0.29800  0.73600  0.67200  Biso   1.000  H
  H100     1.0000 0.70200  0.23600  0.32800  Biso   1.000  H
