data_image0
_cell_length_a       6.2854
_cell_length_b       16.4373
_cell_length_c       7.0129
_cell_angle_alpha    90
_cell_angle_beta     92.594
_cell_angle_gamma    90

_symmetry_space_group_name_H-M    "P 1"
_symmetry_int_tables_number       1

loop_
  _symmetry_equiv_pos_as_xyz
  'x, y, z'

loop_
  _atom_site_label
  _atom_site_occupancy
  _atom_site_fract_x
  _atom_site_fract_y
  _atom_site_fract_z
  _atom_site_thermal_displace_type
  _atom_site_B_iso_or_equiv
  _atom_site_type_symbol
  Cu1      1.0000 0.18444  0.31124  0.96194  Biso   1.000  Cu
  Cu2      1.0000 0.31556  0.81124  0.53806  Biso   1.000  Cu
  Cu3      1.0000 0.81556  0.68876  0.03806  Biso   1.000  Cu
  Cu4      1.0000 0.68444  0.18876  0.46194  Biso   1.000  Cu
  O1       1.0000 0.01250  0.36151  0.75390  Biso   1.000  O
  O2       1.0000 0.48750  0.86151  0.74610  Biso   1.000  O
  O3       1.0000 0.98750  0.63849  0.24610  Biso   1.000  O
  O4       1.0000 0.51250  0.13849  0.25390  Biso   1.000  O
  O5       1.0000 0.99890  0.35304  0.15640  Biso   1.000  O
  O6       1.0000 0.50110  0.85304  0.34360  Biso   1.000  O
  O7       1.0000 0.00110  0.64696  0.84360  Biso   1.000  O
  O8       1.0000 0.49890  0.14696  0.65640  Biso   1.000  O
  O9       1.0000 0.85240  0.24777  0.65960  Biso   1.000  O
  O10      1.0000 0.64760  0.74777  0.84040  Biso   1.000  O
  O11      1.0000 0.14760  0.75223  0.34040  Biso   1.000  O
  O12      1.0000 0.35240  0.25223  0.15960  Biso   1.000  O
  O13      1.0000 0.85690  0.24004  0.26760  Biso   1.000  O
  O14      1.0000 0.64310  0.74004  0.23240  Biso   1.000  O
  O15      1.0000 0.14310  0.75996  0.73240  Biso   1.000  O
  O16      1.0000 0.35690  0.25996  0.76760  Biso   1.000  O
  C1       1.0000 0.90140  0.31454  0.27820  Biso   1.000  C
  C2       1.0000 0.59860  0.81454  0.22180  Biso   1.000  C
  C3       1.0000 0.09860  0.68546  0.72180  Biso   1.000  C
  C4       1.0000 0.40140  0.18546  0.77820  Biso   1.000  C
  C5       1.0000 0.90490  0.32054  0.63350  Biso   1.000  C
  C6       1.0000 0.59510  0.82054  0.86650  Biso   1.000  C
  C7       1.0000 0.09510  0.67946  0.36650  Biso   1.000  C
  C8       1.0000 0.40490  0.17946  0.13350  Biso   1.000  C
  C9       1.0000 0.30120  0.49891  0.05580  Biso   1.000  C
  C10      1.0000 0.19880  0.99891  0.44420  Biso   1.000  C
  C11      1.0000 0.69880  0.50109  0.94420  Biso   1.000  C
  C12      1.0000 0.80120  0.00109  0.55580  Biso   1.000  C
  N1       1.0000 0.37910  0.42879  0.99330  Biso   1.000  N
  N2       1.0000 0.12090  0.92879  0.50670  Biso   1.000  N
  N3       1.0000 0.62090  0.57121  0.00670  Biso   1.000  N
  N4       1.0000 0.87910  0.07121  0.49330  Biso   1.000  N
  C13      1.0000 0.42090  0.56920  0.06210  Biso   1.000  C
  C14      1.0000 0.07910  0.06920  0.43790  Biso   1.000  C
  C15      1.0000 0.57910  0.43080  0.93790  Biso   1.000  C
  C16      1.0000 0.92090  0.93080  0.56210  Biso   1.000  C
  H1       1.0000 0.15500  0.49500  0.09900  Biso   1.000  H
  H2       1.0000 0.34500  0.99500  0.40100  Biso   1.000  H
  H3       1.0000 0.84500  0.50500  0.90100  Biso   1.000  H
  H4       1.0000 0.65500  0.00500  0.59900  Biso   1.000  H
  H5       1.0000 0.35700  0.61600  0.08900  Biso   1.000  H
  H6       1.0000 0.14300  0.11600  0.41100  Biso   1.000  H
  H7       1.0000 0.64300  0.38400  0.91100  Biso   1.000  H
  H8       1.0000 0.85700  0.88400  0.58900  Biso   1.000  H
  C17      1.0000 0.81300  0.36000  0.44810  Biso   1.000  C
  C18      1.0000 0.68700  0.86000  0.05190  Biso   1.000  C
  C19      1.0000 0.18700  0.64000  0.55190  Biso   1.000  C
  C20      1.0000 0.31300  0.14000  0.94810  Biso   1.000  C
  H9       1.0000 0.89530  0.41060  0.44600  Biso   1.000  H
  H10      1.0000 0.60470  0.91060  0.05400  Biso   1.000  H
  H11      1.0000 0.10470  0.58940  0.55400  Biso   1.000  H
  H12      1.0000 0.39530  0.08940  0.94600  Biso   1.000  H
  C21      1.0000 0.61270  0.38910  0.44640  Biso   1.000  C
  C22      1.0000 0.88730  0.88910  0.05360  Biso   1.000  C
  C23      1.0000 0.38730  0.61090  0.55360  Biso   1.000  C
  C24      1.0000 0.11270  0.11090  0.94640  Biso   1.000  C
  H13      1.0000 0.54370  0.37940  0.32360  Biso   1.000  H
  H14      1.0000 0.95630  0.87940  0.17640  Biso   1.000  H
  H15      1.0000 0.45630  0.62060  0.67640  Biso   1.000  H
  H16      1.0000 0.04370  0.12060  0.82360  Biso   1.000  H
  H17      1.0000 0.61630  0.44660  0.47130  Biso   1.000  H
  H18      1.0000 0.88370  0.94660  0.02870  Biso   1.000  H
  H19      1.0000 0.38370  0.55340  0.52870  Biso   1.000  H
  H20      1.0000 0.11630  0.05340  0.97130  Biso   1.000  H
  H21      1.0000 0.53530  0.36220  0.54300  Biso   1.000  H
  H22      1.0000 0.96470  0.86220  0.95700  Biso   1.000  H
  H23      1.0000 0.46470  0.63780  0.45700  Biso   1.000  H
  H24      1.0000 0.03530  0.13780  0.04300  Biso   1.000  H
  C25      1.0000 0.85490  0.36780  0.45080  Biso   1.000  C
  C26      1.0000 0.64510  0.86780  0.04920  Biso   1.000  C
  C27      1.0000 0.14510  0.63220  0.54920  Biso   1.000  C
  C28      1.0000 0.35490  0.13220  0.95080  Biso   1.000  C
  H25      1.0000 0.70020  0.35990  0.44660  Biso   1.000  H
  H26      1.0000 0.79980  0.85990  0.05340  Biso   1.000  H
  H27      1.0000 0.29980  0.64010  0.55340  Biso   1.000  H
  H28      1.0000 0.20020  0.14010  0.94660  Biso   1.000  H
  C29      1.0000 0.85330  0.44810  0.43970  Biso   1.000  C
  C30      1.0000 0.64670  0.94810  0.06030  Biso   1.000  C
  C31      1.0000 0.14670  0.55190  0.56030  Biso   1.000  C
  C32      1.0000 0.35330  0.05190  0.93970  Biso   1.000  C
  H29      1.0000 0.87480  0.46440  0.31050  Biso   1.000  H
  H30      1.0000 0.62520  0.96440  0.18950  Biso   1.000  H
  H31      1.0000 0.12520  0.53560  0.68950  Biso   1.000  H
  H32      1.0000 0.37480  0.03560  0.81050  Biso   1.000  H
  H33      1.0000 0.96530  0.46990  0.52220  Biso   1.000  H
  H34      1.0000 0.53470  0.96990  0.97780  Biso   1.000  H
  H35      1.0000 0.03470  0.53010  0.47780  Biso   1.000  H
  H36      1.0000 0.46530  0.03010  0.02220  Biso   1.000  H
  H37      1.0000 0.71850  0.46830  0.47830  Biso   1.000  H
  H38      1.0000 0.78150  0.96830  0.02170  Biso   1.000  H
  H39      1.0000 0.28150  0.53170  0.52170  Biso   1.000  H
  H40      1.0000 0.21850  0.03170  0.97830  Biso   1.000  H
