data_image0
_cell_length_a       7.2395
_cell_length_b       19.4035
_cell_length_c       7.3889
_cell_angle_alpha    90
_cell_angle_beta     91.844
_cell_angle_gamma    90

_symmetry_space_group_name_H-M    "P 1"
_symmetry_int_tables_number       1

loop_
  _symmetry_equiv_pos_as_xyz
  'x, y, z'

loop_
  _atom_site_label
  _atom_site_occupancy
  _atom_site_fract_x
  _atom_site_fract_y
  _atom_site_fract_z
  _atom_site_thermal_displace_type
  _atom_site_B_iso_or_equiv
  _atom_site_type_symbol
  C1       1.0000 0.80310  0.17780  0.23420  Biso   1.000  C
  C2       1.0000 0.69690  0.67780  0.26580  Biso   1.000  C
  C3       1.0000 0.19690  0.82220  0.76580  Biso   1.000  C
  C4       1.0000 0.30310  0.32220  0.73420  Biso   1.000  C
  C5       1.0000 0.97450  0.13560  0.19000  Biso   1.000  C
  C6       1.0000 0.52550  0.63560  0.31000  Biso   1.000  C
  C7       1.0000 0.02550  0.86440  0.81000  Biso   1.000  C
  C8       1.0000 0.47450  0.36440  0.69000  Biso   1.000  C
  C9       1.0000 0.14690  0.17800  0.23740  Biso   1.000  C
  C10      1.0000 0.35310  0.67800  0.26260  Biso   1.000  C
  C11      1.0000 0.85310  0.82200  0.76260  Biso   1.000  C
  C12      1.0000 0.64690  0.32200  0.73740  Biso   1.000  C
  C13      1.0000 0.97860  0.06500  0.27560  Biso   1.000  C
  C14      1.0000 0.52140  0.56500  0.22440  Biso   1.000  C
  C15      1.0000 0.02140  0.93500  0.72440  Biso   1.000  C
  C16      1.0000 0.47860  0.43500  0.77560  Biso   1.000  C
  C17      1.0000 0.53100  0.07390  0.63740  Biso   1.000  C
  C18      1.0000 0.96900  0.57390  0.86260  Biso   1.000  C
  C19      1.0000 0.46900  0.92610  0.36260  Biso   1.000  C
  C20      1.0000 0.03100  0.42610  0.13740  Biso   1.000  C
  H1       1.0000 0.55900  0.06580  0.51740  Biso   1.000  H
  H2       1.0000 0.94100  0.56580  0.98260  Biso   1.000  H
  H3       1.0000 0.44100  0.93420  0.48260  Biso   1.000  H
  H4       1.0000 0.05900  0.43420  0.01740  Biso   1.000  H
  C21      1.0000 0.53800  0.01880  0.75420  Biso   1.000  C
  C22      1.0000 0.96200  0.51880  0.74580  Biso   1.000  C
  C23      1.0000 0.46200  0.98120  0.24580  Biso   1.000  C
  C24      1.0000 0.03800  0.48120  0.25420  Biso   1.000  C
  H5       1.0000 0.56990  0.97530  0.71270  Biso   1.000  H
  H6       1.0000 0.93010  0.47530  0.78730  Biso   1.000  H
  H7       1.0000 0.43010  0.02470  0.28730  Biso   1.000  H
  H8       1.0000 0.06990  0.52470  0.21270  Biso   1.000  H
  C25      1.0000 0.49790  0.02860  0.93310  Biso   1.000  C
  C26      1.0000 0.00210  0.52860  0.56690  Biso   1.000  C
  C27      1.0000 0.50210  0.97140  0.06690  Biso   1.000  C
  C28      1.0000 0.99790  0.47140  0.43310  Biso   1.000  C
  C29      1.0000 0.46670  0.09510  0.98300  Biso   1.000  C
  C30      1.0000 0.03330  0.59510  0.51700  Biso   1.000  C
  C31      1.0000 0.53330  0.90490  0.01700  Biso   1.000  C
  C32      1.0000 0.96670  0.40490  0.48300  Biso   1.000  C
  H9       1.0000 0.44960  0.10580  0.10400  Biso   1.000  H
  H10      1.0000 0.05040  0.60580  0.39600  Biso   1.000  H
  H11      1.0000 0.55040  0.89420  0.89600  Biso   1.000  H
  H12      1.0000 0.94960  0.39420  0.60400  Biso   1.000  H
  C33      1.0000 0.46060  0.14650  0.85440  Biso   1.000  C
  C34      1.0000 0.03940  0.64650  0.64560  Biso   1.000  C
  C35      1.0000 0.53940  0.85350  0.14560  Biso   1.000  C
  C36      1.0000 0.96060  0.35350  0.35440  Biso   1.000  C
  H13      1.0000 0.43620  0.19120  0.89250  Biso   1.000  H
  H14      1.0000 0.06380  0.69120  0.60750  Biso   1.000  H
  H15      1.0000 0.56380  0.80880  0.10750  Biso   1.000  H
  H16      1.0000 0.93620  0.30880  0.39250  Biso   1.000  H
  Cu1      1.0000 0.47499  0.21292  0.49562  Biso   1.000  Cu
  Cu2      1.0000 0.02501  0.71292  0.00438  Biso   1.000  Cu
  Cu3      1.0000 0.52501  0.78708  0.50438  Biso   1.000  Cu
  Cu4      1.0000 0.97499  0.28708  0.99562  Biso   1.000  Cu
  N1       1.0000 0.48680  0.13640  0.68220  Biso   1.000  N
  N2       1.0000 0.01320  0.63640  0.81780  Biso   1.000  N
  N3       1.0000 0.51320  0.86360  0.31780  Biso   1.000  N
  N4       1.0000 0.98680  0.36360  0.18220  Biso   1.000  N
  O1       1.0000 0.69890  0.15690  0.35560  Biso   1.000  O
  O2       1.0000 0.80110  0.65690  0.14440  Biso   1.000  O
  O3       1.0000 0.30110  0.84310  0.64440  Biso   1.000  O
  O4       1.0000 0.19890  0.34310  0.85560  Biso   1.000  O
  O5       1.0000 0.77140  0.23300  0.14510  Biso   1.000  O
  O6       1.0000 0.72860  0.73300  0.35490  Biso   1.000  O
  O7       1.0000 0.22860  0.76700  0.85490  Biso   1.000  O
  O8       1.0000 0.27140  0.26700  0.64510  Biso   1.000  O
  O9       1.0000 0.47650  0.28430  0.30410  Biso   1.000  O
  O10      1.0000 0.02350  0.78430  0.19590  Biso   1.000  O
  O11      1.0000 0.52350  0.71570  0.69590  Biso   1.000  O
  O12      1.0000 0.97650  0.21570  0.80410  Biso   1.000  O
  O13      1.0000 0.25810  0.15570  0.35720  Biso   1.000  O
  O14      1.0000 0.24190  0.65570  0.14280  Biso   1.000  O
  O15      1.0000 0.74190  0.84430  0.64280  Biso   1.000  O
  O16      1.0000 0.75810  0.34430  0.85720  Biso   1.000  O
  O17      1.0000 0.17190  0.23349  0.15100  Biso   1.000  O
  O18      1.0000 0.32810  0.73349  0.34900  Biso   1.000  O
  O19      1.0000 0.82810  0.76651  0.84900  Biso   1.000  O
  O20      1.0000 0.67190  0.26651  0.65100  Biso   1.000  O
  H17      1.0000 0.56300  0.27600  0.25200  Biso   1.000  H
  H18      1.0000 0.93700  0.77600  0.24800  Biso   1.000  H
  H19      1.0000 0.43700  0.72400  0.74800  Biso   1.000  H
  H20      1.0000 0.06300  0.22400  0.75200  Biso   1.000  H
  H21      1.0000 0.39800  0.28300  0.25900  Biso   1.000  H
  H22      1.0000 0.10200  0.78300  0.24100  Biso   1.000  H
  H23      1.0000 0.60200  0.71700  0.74100  Biso   1.000  H
  H24      1.0000 0.89800  0.21700  0.75900  Biso   1.000  H
  H25      1.0000 0.05700  0.03300  0.21800  Biso   1.000  H
  H26      1.0000 0.44300  0.53300  0.28200  Biso   1.000  H
  H27      1.0000 0.94300  0.96700  0.78200  Biso   1.000  H
  H28      1.0000 0.55700  0.46700  0.71800  Biso   1.000  H
  H29      1.0000 0.86500  0.04000  0.23500  Biso   1.000  H
  H30      1.0000 0.63500  0.54000  0.26500  Biso   1.000  H
  H31      1.0000 0.13500  0.96000  0.76500  Biso   1.000  H
  H32      1.0000 0.36500  0.46000  0.73500  Biso   1.000  H
  H33      1.0000 0.98100  0.06800  0.40900  Biso   1.000  H
  H34      1.0000 0.51900  0.56800  0.09100  Biso   1.000  H
  H35      1.0000 0.01900  0.93200  0.59100  Biso   1.000  H
  H36      1.0000 0.48100  0.43200  0.90900  Biso   1.000  H
  H37      1.0000 0.97000  0.12900  0.07700  Biso   1.000  H
  H38      1.0000 0.53000  0.62900  0.42300  Biso   1.000  H
  H39      1.0000 0.03000  0.87100  0.92300  Biso   1.000  H
  H40      1.0000 0.47000  0.37100  0.57700  Biso   1.000  H
