data_image0
_cell_length_a       13.941
_cell_length_b       15.075
_cell_length_c       15.075
_cell_angle_alpha    82.15
_cell_angle_beta     87.23
_cell_angle_gamma    87.23

_symmetry_space_group_name_H-M    "P 1"
_symmetry_int_tables_number       1

loop_
  _symmetry_equiv_pos_as_xyz
  'x, y, z'

loop_
  _atom_site_label
  _atom_site_occupancy
  _atom_site_fract_x
  _atom_site_fract_y
  _atom_site_fract_z
  _atom_site_thermal_displace_type
  _atom_site_B_iso_or_equiv
  _atom_site_type_symbol
  Cu1      1.0000 0.20602  0.84066  0.61730  Biso   1.000  Cu
  Cu2      1.0000 0.79398  0.15934  0.38270  Biso   1.000  Cu
  Cu3      1.0000 0.39503  0.83486  0.61007  Biso   1.000  Cu
  Cu4      1.0000 0.60497  0.16514  0.38993  Biso   1.000  Cu
  O1       1.0000 0.21970  0.85070  0.48810  Biso   1.000  O
  O2       1.0000 0.78030  0.14930  0.51190  Biso   1.000  O
  O3       1.0000 0.37840  0.84550  0.48010  Biso   1.000  O
  O4       1.0000 0.62160  0.15450  0.51990  Biso   1.000  O
  C1       1.0000 0.29840  0.84600  0.44530  Biso   1.000  C
  C2       1.0000 0.70160  0.15400  0.55470  Biso   1.000  C
  C3       1.0000 0.29740  0.84420  0.34650  Biso   1.000  C
  C4       1.0000 0.70260  0.15580  0.65350  Biso   1.000  C
  C5       1.0000 0.21830  0.86590  0.30140  Biso   1.000  C
  C6       1.0000 0.78170  0.13410  0.69860  Biso   1.000  C
  H1       1.0000 0.16050  0.88070  0.33320  Biso   1.000  H
  H2       1.0000 0.83950  0.11930  0.66680  Biso   1.000  H
  C7       1.0000 0.21780  0.86700  0.20620  Biso   1.000  C
  C8       1.0000 0.78220  0.13300  0.79380  Biso   1.000  C
  H3       1.0000 0.16350  0.89130  0.17370  Biso   1.000  H
  H4       1.0000 0.83650  0.10870  0.82630  Biso   1.000  H
  C9       1.0000 0.29520  0.83470  0.16430  Biso   1.000  C
  C10      1.0000 0.70480  0.16530  0.83570  Biso   1.000  C
  C11      1.0000 0.37900  0.81300  0.21500  Biso   1.000  C
  C12      1.0000 0.62100  0.18700  0.78500  Biso   1.000  C
  H5       1.0000 0.43690  0.79190  0.18650  Biso   1.000  H
  H6       1.0000 0.56310  0.20810  0.81350  Biso   1.000  H
  C13      1.0000 0.37700  0.82100  0.29600  Biso   1.000  C
  C14      1.0000 0.62300  0.17900  0.70400  Biso   1.000  C
  H7       1.0000 0.43550  0.81000  0.32640  Biso   1.000  H
  H8       1.0000 0.56450  0.19000  0.67360  Biso   1.000  H
  C15      1.0000 0.21800  0.81600  0.31300  Biso   1.000  C
  C16      1.0000 0.78200  0.18400  0.68700  Biso   1.000  C
  H9       1.0000 0.16580  0.79510  0.35240  Biso   1.000  H
  H10      1.0000 0.83420  0.20490  0.64760  Biso   1.000  H
  C17      1.0000 0.21200  0.81800  0.21700  Biso   1.000  C
  C18      1.0000 0.78800  0.18200  0.78300  Biso   1.000  C
  H11      1.0000 0.15280  0.80850  0.19140  Biso   1.000  H
  H12      1.0000 0.84720  0.19150  0.80860  Biso   1.000  H
  C19      1.0000 0.37900  0.84200  0.20500  Biso   1.000  C
  C20      1.0000 0.62100  0.15800  0.79500  Biso   1.000  C
  H13      1.0000 0.43730  0.84400  0.16960  Biso   1.000  H
  H14      1.0000 0.56270  0.15600  0.83040  Biso   1.000  H
  C21      1.0000 0.38300  0.84800  0.29500  Biso   1.000  C
  C22      1.0000 0.61700  0.15200  0.70500  Biso   1.000  C
  H15      1.0000 0.44200  0.85390  0.32150  Biso   1.000  H
  H16      1.0000 0.55800  0.14610  0.67850  Biso   1.000  H
  C23      1.0000 0.29350  0.83110  0.06500  Biso   1.000  C
  C24      1.0000 0.70650  0.16890  0.93500  Biso   1.000  C
  C25      1.0000 0.20800  0.86800  0.01700  Biso   1.000  C
  C26      1.0000 0.79200  0.13200  0.98300  Biso   1.000  C
  H17      1.0000 0.15500  0.89340  0.04770  Biso   1.000  H
  H18      1.0000 0.84500  0.10660  0.95230  Biso   1.000  H
  C27      1.0000 0.20900  0.86400  0.92500  Biso   1.000  C
  C28      1.0000 0.79100  0.13600  0.07500  Biso   1.000  C
  H19      1.0000 0.15550  0.88790  0.89100  Biso   1.000  H
  H20      1.0000 0.84450  0.11210  0.10900  Biso   1.000  H
  C29      1.0000 0.29100  0.82430  0.88060  Biso   1.000  C
  C30      1.0000 0.70900  0.17570  0.11940  Biso   1.000  C
  C31      1.0000 0.37400  0.78500  0.92800  Biso   1.000  C
  C32      1.0000 0.62600  0.21500  0.07200  Biso   1.000  C
  H21      1.0000 0.42630  0.75660  0.89890  Biso   1.000  H
  H22      1.0000 0.57370  0.24340  0.10110  Biso   1.000  H
  C33      1.0000 0.37200  0.79300  0.01800  Biso   1.000  C
  C34      1.0000 0.62800  0.20700  0.98200  Biso   1.000  C
  H23      1.0000 0.42670  0.77120  0.05020  Biso   1.000  H
  H24      1.0000 0.57330  0.22880  0.94980  Biso   1.000  H
  C35      1.0000 0.21300  0.81300  0.02560  Biso   1.000  C
  C36      1.0000 0.78700  0.18700  0.97440  Biso   1.000  C
  H25      1.0000 0.15480  0.80300  0.06060  Biso   1.000  H
  H26      1.0000 0.84520  0.19700  0.93940  Biso   1.000  H
  C37      1.0000 0.21500  0.80800  0.93560  Biso   1.000  C
  C38      1.0000 0.78500  0.19200  0.06440  Biso   1.000  C
  H27      1.0000 0.15780  0.79130  0.91080  Biso   1.000  H
  H28      1.0000 0.84220  0.20870  0.08920  Biso   1.000  H
  C39      1.0000 0.38700  0.82900  0.92400  Biso   1.000  C
  C40      1.0000 0.61300  0.17100  0.07600  Biso   1.000  C
  H29      1.0000 0.44620  0.82180  0.89160  Biso   1.000  H
  H30      1.0000 0.55380  0.17820  0.10840  Biso   1.000  H
  C41      1.0000 0.38200  0.84300  0.00300  Biso   1.000  C
  C42      1.0000 0.61800  0.15700  0.99700  Biso   1.000  C
  H31      1.0000 0.43840  0.86320  0.02630  Biso   1.000  H
  H32      1.0000 0.56160  0.13680  0.97370  Biso   1.000  H
  C43      1.0000 0.29480  0.82520  0.78270  Biso   1.000  C
  C44      1.0000 0.70520  0.17480  0.21730  Biso   1.000  C
  O5       1.0000 0.21320  0.83090  0.74730  Biso   1.000  O
  O6       1.0000 0.78680  0.16910  0.25270  Biso   1.000  O
  O7       1.0000 0.37210  0.82040  0.74070  Biso   1.000  O
  O8       1.0000 0.62790  0.17960  0.25930  Biso   1.000  O
  O9       1.0000 0.37580  0.96360  0.60380  Biso   1.000  O
  O10      1.0000 0.62420  0.03640  0.39620  Biso   1.000  O
  O11      1.0000 0.21790  0.97080  0.61120  Biso   1.000  O
  O12      1.0000 0.78210  0.02920  0.38880  Biso   1.000  O
  C45      1.0000 0.29980  0.00530  0.60850  Biso   1.000  C
  C46      1.0000 0.70020  0.99470  0.39150  Biso   1.000  C
  C47      1.0000 0.30070  0.10450  0.60630  Biso   1.000  C
  C48      1.0000 0.69930  0.89550  0.39370  Biso   1.000  C
  C49      1.0000 0.39300  0.14800  0.58200  Biso   1.000  C
  C50      1.0000 0.60700  0.85200  0.41800  Biso   1.000  C
  H33      1.0000 0.44970  0.11470  0.56660  Biso   1.000  H
  H34      1.0000 0.55030  0.88530  0.43340  Biso   1.000  H
  C51      1.0000 0.39000  0.23750  0.58200  Biso   1.000  C
  C52      1.0000 0.61000  0.76250  0.41800  Biso   1.000  C
  H35      1.0000 0.44710  0.26880  0.56510  Biso   1.000  H
  H36      1.0000 0.55290  0.73120  0.43490  Biso   1.000  H
  C53      1.0000 0.30380  0.28890  0.60860  Biso   1.000  C
  C54      1.0000 0.69620  0.71110  0.39140  Biso   1.000  C
  C55      1.0000 0.21900  0.24400  0.63800  Biso   1.000  C
  C56      1.0000 0.78100  0.75600  0.36200  Biso   1.000  C
  H37      1.0000 0.16380  0.27600  0.65900  Biso   1.000  H
  H38      1.0000 0.83620  0.72400  0.34100  Biso   1.000  H
  C57      1.0000 0.21600  0.15300  0.63700  Biso   1.000  C
  C58      1.0000 0.78400  0.84700  0.36300  Biso   1.000  C
  H39      1.0000 0.15980  0.12170  0.65670  Biso   1.000  H
  H40      1.0000 0.84020  0.87830  0.34330  Biso   1.000  H
  C59      1.0000 0.38190  0.14780  0.60620  Biso   1.000  C
  C60      1.0000 0.61810  0.85220  0.39380  Biso   1.000  C
  H41      1.0000 0.44060  0.11330  0.60350  Biso   1.000  H
  H42      1.0000 0.55940  0.88670  0.39650  Biso   1.000  H
  C61      1.0000 0.38800  0.23700  0.61000  Biso   1.000  C
  C62      1.0000 0.61200  0.76300  0.39000  Biso   1.000  C
  H43      1.0000 0.44850  0.26270  0.61280  Biso   1.000  H
  H44      1.0000 0.55150  0.73730  0.38720  Biso   1.000  H
  C63      1.0000 0.22000  0.25140  0.60300  Biso   1.000  C
  C64      1.0000 0.78000  0.74860  0.39700  Biso   1.000  C
  H45      1.0000 0.16320  0.28840  0.59770  Biso   1.000  H
  H46      1.0000 0.83680  0.71160  0.40230  Biso   1.000  H
  C65      1.0000 0.21400  0.15800  0.60500  Biso   1.000  C
  C66      1.0000 0.78600  0.84200  0.39500  Biso   1.000  C
  H47      1.0000 0.15340  0.13160  0.60550  Biso   1.000  H
  H48      1.0000 0.84660  0.86840  0.39450  Biso   1.000  H
  C67      1.0000 0.30620  0.38780  0.60860  Biso   1.000  C
  C68      1.0000 0.69380  0.61220  0.39140  Biso   1.000  C
  C69      1.0000 0.37600  0.43900  0.56700  Biso   1.000  C
  C70      1.0000 0.62400  0.56100  0.43300  Biso   1.000  C
  H49      1.0000 0.42480  0.41240  0.53220  Biso   1.000  H
  H50      1.0000 0.57520  0.58760  0.46780  Biso   1.000  H
  C71      1.0000 0.37700  0.52890  0.57400  Biso   1.000  C
  C72      1.0000 0.62300  0.47110  0.42600  Biso   1.000  C
  H51      1.0000 0.43110  0.56060  0.54920  Biso   1.000  H
  H52      1.0000 0.56890  0.43940  0.45080  Biso   1.000  H
  C73      1.0000 0.30990  0.57290  0.61290  Biso   1.000  C
  C74      1.0000 0.69010  0.42710  0.38710  Biso   1.000  C
  C75      1.0000 0.22600  0.52390  0.65670  Biso   1.000  C
  C76      1.0000 0.77400  0.47610  0.34330  Biso   1.000  C
  H53      1.0000 0.17470  0.55400  0.68630  Biso   1.000  H
  H54      1.0000 0.82530  0.44600  0.31370  Biso   1.000  H
  C77      1.0000 0.22500  0.43240  0.65230  Biso   1.000  C
  C78      1.0000 0.77500  0.56760  0.34770  Biso   1.000  C
  H55      1.0000 0.17200  0.39890  0.67750  Biso   1.000  H
  H56      1.0000 0.82800  0.60110  0.32250  Biso   1.000  H
  C79      1.0000 0.39670  0.42920  0.63030  Biso   1.000  C
  C80      1.0000 0.60330  0.57080  0.36970  Biso   1.000  C
  H57      1.0000 0.45470  0.39410  0.63940  Biso   1.000  H
  H58      1.0000 0.54530  0.60590  0.36060  Biso   1.000  H
  C81      1.0000 0.39310  0.51860  0.63650  Biso   1.000  C
  C82      1.0000 0.60690  0.48140  0.36350  Biso   1.000  C
  H59      1.0000 0.44700  0.54500  0.65700  Biso   1.000  H
  H60      1.0000 0.55300  0.45500  0.34300  Biso   1.000  H
  C83      1.0000 0.23300  0.53200  0.58500  Biso   1.000  C
  C84      1.0000 0.76700  0.46800  0.41500  Biso   1.000  C
  H61      1.0000 0.17850  0.56880  0.56660  Biso   1.000  H
  H62      1.0000 0.82150  0.43120  0.43340  Biso   1.000  H
  C85      1.0000 0.23200  0.44300  0.58200  Biso   1.000  C
  C86      1.0000 0.76800  0.55700  0.41800  Biso   1.000  C
  H63      1.0000 0.17670  0.41960  0.56020  Biso   1.000  H
  H64      1.0000 0.82330  0.58040  0.43980  Biso   1.000  H
  C87      1.0000 0.30890  0.66970  0.61670  Biso   1.000  C
  C88      1.0000 0.69110  0.33030  0.38330  Biso   1.000  C
  O13      1.0000 0.38780  0.70600  0.61460  Biso   1.000  O
  O14      1.0000 0.61220  0.29400  0.38540  Biso   1.000  O
  O15      1.0000 0.22930  0.70970  0.62270  Biso   1.000  O
  O16      1.0000 0.77070  0.29030  0.37730  Biso   1.000  O
  N1       1.0000 0.54610  0.83460  0.61850  Biso   1.000  N
  N2       1.0000 0.45390  0.16540  0.38150  Biso   1.000  N
  C89      1.0000 0.60230  0.75880  0.64090  Biso   1.000  C
  C90      1.0000 0.39770  0.24120  0.35910  Biso   1.000  C
  H65      1.0000 0.57060  0.70390  0.65450  Biso   1.000  H
  H66      1.0000 0.42940  0.29610  0.34550  Biso   1.000  H
  C91      1.0000 0.69810  0.75490  0.64560  Biso   1.000  C
  C92      1.0000 0.30190  0.24510  0.35440  Biso   1.000  C
  H67      1.0000 0.73200  0.69950  0.66300  Biso   1.000  H
  H68      1.0000 0.26800  0.30050  0.33700  Biso   1.000  H
  C93      1.0000 0.74760  0.83500  0.62400  Biso   1.000  C
  C94      1.0000 0.25240  0.16500  0.37600  Biso   1.000  C
  C95      1.0000 0.69320  0.91380  0.60410  Biso   1.000  C
  C96      1.0000 0.30680  0.08620  0.39590  Biso   1.000  C
  H69      1.0000 0.72250  0.97000  0.59120  Biso   1.000  H
  H70      1.0000 0.27750  0.03000  0.40880  Biso   1.000  H
  C97      1.0000 0.59500  0.90790  0.60400  Biso   1.000  C
  C98      1.0000 0.40500  0.09210  0.39600  Biso   1.000  C
  H71      1.0000 0.55920  0.96280  0.59180  Biso   1.000  H
  H72      1.0000 0.44080  0.03720  0.40820  Biso   1.000  H
  C99      1.0000 0.59950  0.75870  0.60840  Biso   1.000  C
  C100     1.0000 0.40050  0.24130  0.39160  Biso   1.000  C
  H73      1.0000 0.56860  0.70720  0.59610  Biso   1.000  H
  H74      1.0000 0.43140  0.29280  0.40390  Biso   1.000  H
  C101     1.0000 0.69990  0.75490  0.61590  Biso   1.000  C
  C102     1.0000 0.30010  0.24510  0.38410  Biso   1.000  C
  H75      1.0000 0.73550  0.69960  0.61550  Biso   1.000  H
  H76      1.0000 0.26450  0.30040  0.38450  Biso   1.000  H
  C103     1.0000 0.68900  0.91690  0.63300  Biso   1.000  C
  C104     1.0000 0.31100  0.08310  0.36700  Biso   1.000  C
  H77      1.0000 0.71740  0.97060  0.64290  Biso   1.000  H
  H78      1.0000 0.28260  0.02940  0.35710  Biso   1.000  H
  C105     1.0000 0.59300  0.91300  0.62800  Biso   1.000  C
  C106     1.0000 0.40700  0.08700  0.37200  Biso   1.000  C
  H79      1.0000 0.55430  0.96630  0.62980  Biso   1.000  H
  H80      1.0000 0.44570  0.03370  0.37020  Biso   1.000  H
  C107     1.0000 0.85280  0.83590  0.62410  Biso   1.000  C
  C108     1.0000 0.14720  0.16410  0.37590  Biso   1.000  C
  C109     1.0000 0.90710  0.76690  0.67500  Biso   1.000  C
  C110     1.0000 0.09290  0.23310  0.32500  Biso   1.000  C
  H81      1.0000 0.87660  0.71910  0.71160  Biso   1.000  H
  H82      1.0000 0.12340  0.28090  0.28840  Biso   1.000  H
  C111     1.0000 0.00480  0.77130  0.66950  Biso   1.000  C
  C112     1.0000 0.99520  0.22870  0.33050  Biso   1.000  C
  H83      1.0000 0.04150  0.72420  0.70220  Biso   1.000  H
  H84      1.0000 0.95850  0.27580  0.29780  Biso   1.000  H
  N3       1.0000 0.05310  0.83870  0.62040  Biso   1.000  N
  N4       1.0000 0.94690  0.16130  0.37960  Biso   1.000  N
  C113     1.0000 0.00210  0.89940  0.57170  Biso   1.000  C
  C114     1.0000 0.99790  0.10060  0.42830  Biso   1.000  C
  H85      1.0000 0.03510  0.94430  0.53320  Biso   1.000  H
  H86      1.0000 0.96490  0.05570  0.46680  Biso   1.000  H
  C115     1.0000 0.90130  0.90300  0.57230  Biso   1.000  C
  C116     1.0000 0.09870  0.09700  0.42770  Biso   1.000  C
  H87      1.0000 0.86730  0.95070  0.53770  Biso   1.000  H
  H88      1.0000 0.13270  0.04930  0.46230  Biso   1.000  H
  C117     1.0000 0.90900  0.77500  0.59400  Biso   1.000  C
  C118     1.0000 0.09100  0.22500  0.40600  Biso   1.000  C
  H89      1.0000 0.88100  0.72560  0.57370  Biso   1.000  H
  H90      1.0000 0.11900  0.27440  0.42630  Biso   1.000  H
  C119     1.0000 0.01000  0.77900  0.59000  Biso   1.000  C
  C120     1.0000 0.99000  0.22100  0.41000  Biso   1.000  C
  H91      1.0000 0.04730  0.73470  0.56260  Biso   1.000  H
  H92      1.0000 0.95270  0.26530  0.43740  Biso   1.000  H
  C121     1.0000 0.99600  0.90100  0.64400  Biso   1.000  C
  C122     1.0000 0.00400  0.09900  0.35600  Biso   1.000  C
  H93      1.0000 0.02670  0.95200  0.65770  Biso   1.000  H
  H94      1.0000 0.97330  0.04800  0.34230  Biso   1.000  H
  C123     1.0000 0.89600  0.90500  0.65200  Biso   1.000  C
  C124     1.0000 0.10400  0.09500  0.34800  Biso   1.000  C
  H95      1.0000 0.86050  0.95280  0.67520  Biso   1.000  H
  H96      1.0000 0.13950  0.04720  0.32480  Biso   1.000  H
