data_image0
_cell_length_a       7.4273
_cell_length_b       9.2314
_cell_length_c       13.8806
_cell_angle_alpha    71.411
_cell_angle_beta     88.528
_cell_angle_gamma    73.65

_symmetry_space_group_name_H-M    "P 1"
_symmetry_int_tables_number       1

loop_
  _symmetry_equiv_pos_as_xyz
  'x, y, z'

loop_
  _atom_site_label
  _atom_site_occupancy
  _atom_site_fract_x
  _atom_site_fract_y
  _atom_site_fract_z
  _atom_site_thermal_displace_type
  _atom_site_B_iso_or_equiv
  _atom_site_type_symbol
  Mo1      1.0000 0.19761  0.68776  0.00315  Biso   1.000  Mo
  Mo2      1.0000 0.80239  0.31224  0.99685  Biso   1.000  Mo
  Mo3      1.0000 0.36679  0.00237  0.11011  Biso   1.000  Mo
  Mo4      1.0000 0.63321  0.99763  0.88989  Biso   1.000  Mo
  Cu1      1.0000 0.89208  0.92964  0.10141  Biso   1.000  Cu
  Cu2      1.0000 0.10792  0.07036  0.89859  Biso   1.000  Cu
  Cu3      1.0000 0.69375  0.66437  0.07346  Biso   1.000  Cu
  Cu4      1.0000 0.30625  0.33563  0.92654  Biso   1.000  Cu
  O1       1.0000 0.59660  0.87980  0.09390  Biso   1.000  O
  O2       1.0000 0.40340  0.12020  0.90610  Biso   1.000  O
  O3       1.0000 0.40170  0.63130  0.08230  Biso   1.000  O
  O4       1.0000 0.59830  0.36870  0.91770  Biso   1.000  O
  O5       1.0000 0.33770  0.94280  0.23880  Biso   1.000  O
  O6       1.0000 0.66230  0.05720  0.76120  Biso   1.000  O
  O7       1.0000 0.65000  0.78980  0.92680  Biso   1.000  O
  O8       1.0000 0.35000  0.21020  0.07320  Biso   1.000  O
  O9       1.0000 0.18330  0.96640  0.04870  Biso   1.000  O
  O10      1.0000 0.81670  0.03360  0.95130  Biso   1.000  O
  O11      1.0000 0.99380  0.72430  0.07440  Biso   1.000  O
  O12      1.0000 0.00620  0.27570  0.92560  Biso   1.000  O
  O13      1.0000 0.19120  0.85260  0.89190  Biso   1.000  O
  O14      1.0000 0.80880  0.14740  0.10810  Biso   1.000  O
  O15      1.0000 0.19520  0.52780  0.96260  Biso   1.000  O
  O16      1.0000 0.80480  0.47220  0.03740  Biso   1.000  O
  O17      1.0000 0.44230  0.32760  0.22720  Biso   1.000  O
  O18      1.0000 0.55770  0.67240  0.77280  Biso   1.000  O
  O19      1.0000 0.41930  0.24190  0.43240  Biso   1.000  O
  O20      1.0000 0.58070  0.75810  0.56760  Biso   1.000  O
  O21      1.0000 0.69180  0.01750  0.57060  Biso   1.000  O
  O22      1.0000 0.30820  0.98250  0.42940  Biso   1.000  O
  N1       1.0000 0.96680  0.83350  0.24960  Biso   1.000  N
  N2       1.0000 0.03320  0.16650  0.75040  Biso   1.000  N
  N3       1.0000 0.24650  0.45790  0.77730  Biso   1.000  N
  N4       1.0000 0.75350  0.54210  0.22270  Biso   1.000  N
  C1       1.0000 0.33930  0.40490  0.70670  Biso   1.000  C
  C2       1.0000 0.66070  0.59510  0.29330  Biso   1.000  C
  H1       1.0000 0.44040  0.31280  0.72750  Biso   1.000  H
  H2       1.0000 0.55960  0.68720  0.27250  Biso   1.000  H
  C3       1.0000 0.29190  0.48160  0.60220  Biso   1.000  C
  C4       1.0000 0.70810  0.51840  0.39780  Biso   1.000  C
  H3       1.0000 0.36050  0.43940  0.55550  Biso   1.000  H
  H4       1.0000 0.63950  0.56060  0.44450  Biso   1.000  H
  C5       1.0000 0.14530  0.61830  0.56840  Biso   1.000  C
  C6       1.0000 0.85470  0.38170  0.43160  Biso   1.000  C
  C7       1.0000 0.05120  0.67750  0.64400  Biso   1.000  C
  C8       1.0000 0.94880  0.32250  0.35600  Biso   1.000  C
  H5       1.0000 0.95400  0.77250  0.62510  Biso   1.000  H
  H6       1.0000 0.04600  0.22750  0.37490  Biso   1.000  H
  C9       1.0000 0.10300  0.59510  0.74470  Biso   1.000  C
  C10      1.0000 0.89700  0.40490  0.25530  Biso   1.000  C
  H7       1.0000 0.03710  0.63490  0.79320  Biso   1.000  H
  H8       1.0000 0.96290  0.36510  0.20680  Biso   1.000  H
  C11      1.0000 0.89720  0.91100  0.31670  Biso   1.000  C
  C12      1.0000 0.10280  0.08900  0.68330  Biso   1.000  C
  H9       1.0000 0.80880  0.01070  0.29320  Biso   1.000  H
  H10      1.0000 0.19120  0.98930  0.70680  Biso   1.000  H
  C13      1.0000 0.95410  0.84600  0.41850  Biso   1.000  C
  C14      1.0000 0.04590  0.15400  0.58150  Biso   1.000  C
  H11      1.0000 0.90330  0.90310  0.46200  Biso   1.000  H
  H12      1.0000 0.09670  0.09690  0.53800  Biso   1.000  H
  C15      1.0000 0.09490  0.68910  0.28660  Biso   1.000  C
  C16      1.0000 0.90510  0.31090  0.71340  Biso   1.000  C
  H13      1.0000 0.14580  0.63490  0.24160  Biso   1.000  H
  H14      1.0000 0.85420  0.36510  0.75840  Biso   1.000  H
  C17      1.0000 0.15330  0.61900  0.38830  Biso   1.000  C
  C18      1.0000 0.84670  0.38100  0.61170  Biso   1.000  C
  H15      1.0000 0.23920  0.51790  0.41050  Biso   1.000  H
  H16      1.0000 0.76080  0.48210  0.58950  Biso   1.000  H
  C19      1.0000 0.08590  0.69680  0.45840  Biso   1.000  C
  C20      1.0000 0.91410  0.30320  0.54160  Biso   1.000  C
