data_image0
_cell_length_a       7.4488
_cell_length_b       9.2576
_cell_length_c       13.9332
_cell_angle_alpha    71.992
_cell_angle_beta     89.745
_cell_angle_gamma    73.64

_symmetry_space_group_name_H-M    "P 1"
_symmetry_int_tables_number       1

loop_
  _symmetry_equiv_pos_as_xyz
  'x, y, z'

loop_
  _atom_site_label
  _atom_site_occupancy
  _atom_site_fract_x
  _atom_site_fract_y
  _atom_site_fract_z
  _atom_site_thermal_displace_type
  _atom_site_B_iso_or_equiv
  _atom_site_type_symbol
  Mo1      1.0000 0.19658  0.68816  0.50206  Biso   1.000  Mo
  Mo2      1.0000 0.80342  0.31184  0.49794  Biso   1.000  Mo
  Mo3      1.0000 0.37006  0.00472  0.60852  Biso   1.000  Mo
  Mo4      1.0000 0.62994  0.99528  0.39148  Biso   1.000  Mo
  Cu1      1.0000 0.10258  0.06988  0.39908  Biso   1.000  Cu
  Cu2      1.0000 0.89742  0.93012  0.60092  Biso   1.000  Cu
  Cu3      1.0000 0.30357  0.33574  0.42531  Biso   1.000  Cu
  Cu4      1.0000 0.69643  0.66426  0.57469  Biso   1.000  Cu
  O1       1.0000 0.34530  0.94620  0.73500  Biso   1.000  O
  O2       1.0000 0.65470  0.05380  0.26500  Biso   1.000  O
  O3       1.0000 0.45790  0.33100  0.72350  Biso   1.000  O
  O4       1.0000 0.54210  0.66900  0.27650  Biso   1.000  O
  H1       1.0000 0.43490  0.35830  0.78010  Biso   1.000  H
  H2       1.0000 0.56510  0.64170  0.21990  Biso   1.000  H
  H3       1.0000 0.34460  0.33660  0.69670  Biso   1.000  H
  H4       1.0000 0.65540  0.66340  0.30330  Biso   1.000  H
  O5       1.0000 0.18350  0.85290  0.39240  Biso   1.000  O
  O6       1.0000 0.81650  0.14710  0.60760  Biso   1.000  O
  O7       1.0000 0.30430  0.98410  0.92970  Biso   1.000  O
  O8       1.0000 0.69570  0.01590  0.07030  Biso   1.000  O
  H5       1.0000 0.38890  0.03490  0.90080  Biso   1.000  H
  H6       1.0000 0.61110  0.96510  0.09920  Biso   1.000  H
  H7       1.0000 0.28880  0.92820  0.88870  Biso   1.000  H
  H8       1.0000 0.71120  0.07180  0.11130  Biso   1.000  H
  O9       1.0000 0.35090  0.20900  0.57100  Biso   1.000  O
  O10      1.0000 0.64910  0.79100  0.42900  Biso   1.000  O
  O11      1.0000 0.43380  0.24070  0.92980  Biso   1.000  O
  O12      1.0000 0.56620  0.75930  0.07020  Biso   1.000  O
  H9       1.0000 0.42060  0.32650  0.87440  Biso   1.000  H
  H10      1.0000 0.57940  0.67350  0.12560  Biso   1.000  H
  H11      1.0000 0.42590  0.16120  0.90670  Biso   1.000  H
  H12      1.0000 0.57410  0.83880  0.09330  Biso   1.000  H
  O13      1.0000 0.81670  0.03270  0.45160  Biso   1.000  O
  O14      1.0000 0.18330  0.96730  0.54840  Biso   1.000  O
  O15      1.0000 0.19480  0.52980  0.45980  Biso   1.000  O
  O16      1.0000 0.80520  0.47020  0.54020  Biso   1.000  O
  O17      1.0000 0.40400  0.63320  0.57960  Biso   1.000  O
  O18      1.0000 0.59600  0.36680  0.42040  Biso   1.000  O
  O19      1.0000 0.99750  0.72440  0.57420  Biso   1.000  O
  O20      1.0000 0.00250  0.27560  0.42580  Biso   1.000  O
  O21      1.0000 0.40230  0.11940  0.40500  Biso   1.000  O
  O22      1.0000 0.59770  0.88060  0.59500  Biso   1.000  O
  N1       1.0000 0.02650  0.16520  0.25140  Biso   1.000  N
  N2       1.0000 0.97350  0.83480  0.74860  Biso   1.000  N
  N3       1.0000 0.75740  0.54300  0.72360  Biso   1.000  N
  N4       1.0000 0.24260  0.45700  0.27640  Biso   1.000  N
  C1       1.0000 0.85640  0.38350  0.93300  Biso   1.000  C
  C2       1.0000 0.14360  0.61650  0.06700  Biso   1.000  C
  C3       1.0000 0.93870  0.32170  0.85960  Biso   1.000  C
  C4       1.0000 0.06130  0.67830  0.14040  Biso   1.000  C
  H13      1.0000 0.02840  0.22250  0.87930  Biso   1.000  H
  H14      1.0000 0.97160  0.77750  0.12070  Biso   1.000  H
  C5       1.0000 0.89110  0.40330  0.75860  Biso   1.000  C
  C6       1.0000 0.10890  0.59670  0.24140  Biso   1.000  C
  H15      1.0000 0.95470  0.35940  0.71190  Biso   1.000  H
  H16      1.0000 0.04530  0.64060  0.28810  Biso   1.000  H
  C7       1.0000 0.66700  0.60140  0.79430  Biso   1.000  C
  C8       1.0000 0.33300  0.39860  0.20570  Biso   1.000  C
  H17      1.0000 0.56920  0.69570  0.77280  Biso   1.000  H
  H18      1.0000 0.43080  0.30430  0.22720  Biso   1.000  H
  C9       1.0000 0.71400  0.52710  0.89610  Biso   1.000  C
  C10      1.0000 0.28600  0.47290  0.10390  Biso   1.000  C
  H19      1.0000 0.64960  0.57330  0.94170  Biso   1.000  H
  H20      1.0000 0.35040  0.42670  0.05830  Biso   1.000  H
  C11      1.0000 0.10100  0.09310  0.18420  Biso   1.000  C
  C12      1.0000 0.89900  0.90690  0.81580  Biso   1.000  C
  H21      1.0000 0.19120  0.99440  0.20800  Biso   1.000  H
  H22      1.0000 0.80880  0.00560  0.79200  Biso   1.000  H
  C13      1.0000 0.89660  0.30440  0.21560  Biso   1.000  C
  C14      1.0000 0.10340  0.69560  0.78440  Biso   1.000  C
  H23      1.0000 0.84380  0.35640  0.26100  Biso   1.000  H
  H24      1.0000 0.15620  0.64360  0.73900  Biso   1.000  H
  C15      1.0000 0.83540  0.37670  0.11320  Biso   1.000  C
  C16      1.0000 0.16460  0.62330  0.88680  Biso   1.000  C
  H25      1.0000 0.74190  0.47370  0.09200  Biso   1.000  H
  H26      1.0000 0.25810  0.52630  0.90800  Biso   1.000  H
  C17      1.0000 0.04920  0.15960  0.08100  Biso   1.000  C
  C18      1.0000 0.95080  0.84040  0.91900  Biso   1.000  C
  H27      1.0000 0.10630  0.10650  0.03700  Biso   1.000  H
  H28      1.0000 0.89370  0.89350  0.96300  Biso   1.000  H
  C19      1.0000 0.91200  0.30570  0.04300  Biso   1.000  C
  C20      1.0000 0.08800  0.69430  0.95700  Biso   1.000  C
