data_image0
_cell_length_a       16.556
_cell_length_b       8.0622
_cell_length_c       12.671
_cell_angle_alpha    90
_cell_angle_beta     95.849
_cell_angle_gamma    90

_symmetry_space_group_name_H-M    "P 1"
_symmetry_int_tables_number       1

loop_
  _symmetry_equiv_pos_as_xyz
  'x, y, z'

loop_
  _atom_site_label
  _atom_site_occupancy
  _atom_site_fract_x
  _atom_site_fract_y
  _atom_site_fract_z
  _atom_site_thermal_displace_type
  _atom_site_B_iso_or_equiv
  _atom_site_type_symbol
  Cu1      1.0000 0.75000  0.75000  0.50000  Biso   1.000  Cu
  Cu2      1.0000 0.25000  0.75000  0.00000  Biso   1.000  Cu
  Cu3      1.0000 0.25000  0.25000  0.50000  Biso   1.000  Cu
  Cu4      1.0000 0.75000  0.25000  0.00000  Biso   1.000  Cu
  O1       1.0000 0.87780  0.80460  0.42400  Biso   1.000  O
  O2       1.0000 0.12220  0.80460  0.07600  Biso   1.000  O
  O3       1.0000 0.37780  0.30460  0.42400  Biso   1.000  O
  O4       1.0000 0.62220  0.30460  0.07600  Biso   1.000  O
  O5       1.0000 0.12220  0.19540  0.57600  Biso   1.000  O
  O6       1.0000 0.87780  0.19540  0.92400  Biso   1.000  O
  O7       1.0000 0.62220  0.69540  0.57600  Biso   1.000  O
  O8       1.0000 0.37780  0.69540  0.92400  Biso   1.000  O
  O9       1.0000 0.93090  0.05300  0.39860  Biso   1.000  O
  O10      1.0000 0.06910  0.05300  0.10140  Biso   1.000  O
  O11      1.0000 0.43090  0.55300  0.39860  Biso   1.000  O
  O12      1.0000 0.56910  0.55300  0.10140  Biso   1.000  O
  O13      1.0000 0.06910  0.94700  0.60140  Biso   1.000  O
  O14      1.0000 0.93090  0.94700  0.89860  Biso   1.000  O
  O15      1.0000 0.56910  0.44700  0.60140  Biso   1.000  O
  O16      1.0000 0.43090  0.44700  0.89860  Biso   1.000  O
  O17      1.0000 0.90760  0.49870  0.69360  Biso   1.000  O
  O18      1.0000 0.09240  0.49870  0.80640  Biso   1.000  O
  O19      1.0000 0.40760  0.99870  0.69360  Biso   1.000  O
  O20      1.0000 0.59240  0.99870  0.80640  Biso   1.000  O
  O21      1.0000 0.09240  0.50130  0.30640  Biso   1.000  O
  O22      1.0000 0.90760  0.50130  0.19360  Biso   1.000  O
  O23      1.0000 0.59240  0.00130  0.30640  Biso   1.000  O
  O24      1.0000 0.40760  0.00130  0.19360  Biso   1.000  O
  O25      1.0000 0.80470  0.56060  0.57420  Biso   1.000  O
  O26      1.0000 0.19530  0.56060  0.92580  Biso   1.000  O
  O27      1.0000 0.30470  0.06060  0.57420  Biso   1.000  O
  O28      1.0000 0.69530  0.06060  0.92580  Biso   1.000  O
  O29      1.0000 0.19530  0.43940  0.42580  Biso   1.000  O
  O30      1.0000 0.80470  0.43940  0.07420  Biso   1.000  O
  O31      1.0000 0.69530  0.93940  0.42580  Biso   1.000  O
  O32      1.0000 0.30470  0.93940  0.07420  Biso   1.000  O
  N1       1.0000 0.81690  0.89280  0.60600  Biso   1.000  N
  N2       1.0000 0.18310  0.89280  0.89400  Biso   1.000  N
  N3       1.0000 0.31690  0.39280  0.60600  Biso   1.000  N
  N4       1.0000 0.68310  0.39280  0.89400  Biso   1.000  N
  N5       1.0000 0.18310  0.10720  0.39400  Biso   1.000  N
  N6       1.0000 0.81690  0.10720  0.10600  Biso   1.000  N
  N7       1.0000 0.68310  0.60720  0.39400  Biso   1.000  N
  N8       1.0000 0.31690  0.60720  0.10600  Biso   1.000  N
  C1       1.0000 0.89110  0.95270  0.44830  Biso   1.000  C
  C2       1.0000 0.10890  0.95270  0.05170  Biso   1.000  C
  C3       1.0000 0.39110  0.45270  0.44830  Biso   1.000  C
  C4       1.0000 0.60890  0.45270  0.05170  Biso   1.000  C
  C5       1.0000 0.10890  0.04730  0.55170  Biso   1.000  C
  C6       1.0000 0.89110  0.04730  0.94830  Biso   1.000  C
  C7       1.0000 0.60890  0.54730  0.55170  Biso   1.000  C
  C8       1.0000 0.39110  0.54730  0.94830  Biso   1.000  C
  C9       1.0000 0.85460  0.02250  0.54540  Biso   1.000  C
  C10      1.0000 0.14540  0.02250  0.95460  Biso   1.000  C
  C11      1.0000 0.35460  0.52250  0.54540  Biso   1.000  C
  C12      1.0000 0.64540  0.52250  0.95460  Biso   1.000  C
  C13      1.0000 0.14540  0.97750  0.45460  Biso   1.000  C
  C14      1.0000 0.85460  0.97750  0.04540  Biso   1.000  C
  C15      1.0000 0.64540  0.47750  0.45460  Biso   1.000  C
  C16      1.0000 0.35460  0.47750  0.04540  Biso   1.000  C
  H1       1.0000 0.89690  0.07700  0.59130  Biso   1.000  H
  H2       1.0000 0.10310  0.07700  0.90870  Biso   1.000  H
  H3       1.0000 0.39690  0.57700  0.59130  Biso   1.000  H
  H4       1.0000 0.60310  0.57700  0.90870  Biso   1.000  H
  H5       1.0000 0.10310  0.92300  0.40870  Biso   1.000  H
  H6       1.0000 0.89690  0.92300  0.09130  Biso   1.000  H
  H7       1.0000 0.60310  0.42300  0.40870  Biso   1.000  H
  H8       1.0000 0.39690  0.42300  0.09130  Biso   1.000  H
  H9       1.0000 0.81400  0.10510  0.52230  Biso   1.000  H
  H10      1.0000 0.18600  0.10510  0.97770  Biso   1.000  H
  H11      1.0000 0.31400  0.60510  0.52230  Biso   1.000  H
  H12      1.0000 0.68600  0.60510  0.97770  Biso   1.000  H
  H13      1.0000 0.18600  0.89490  0.47770  Biso   1.000  H
  H14      1.0000 0.81400  0.89490  0.02230  Biso   1.000  H
  H15      1.0000 0.68600  0.39490  0.47770  Biso   1.000  H
  H16      1.0000 0.31400  0.39490  0.02230  Biso   1.000  H
  C17      1.0000 0.87990  0.78290  0.66260  Biso   1.000  C
  C18      1.0000 0.12010  0.78290  0.83740  Biso   1.000  C
  C19      1.0000 0.37990  0.28290  0.66260  Biso   1.000  C
  C20      1.0000 0.62010  0.28290  0.83740  Biso   1.000  C
  C21      1.0000 0.12010  0.21710  0.33740  Biso   1.000  C
  C22      1.0000 0.87990  0.21710  0.16260  Biso   1.000  C
  C23      1.0000 0.62010  0.71710  0.33740  Biso   1.000  C
  C24      1.0000 0.37990  0.71710  0.16260  Biso   1.000  C
  H17      1.0000 0.88260  0.80500  0.73820  Biso   1.000  H
  H18      1.0000 0.11740  0.80500  0.76180  Biso   1.000  H
  H19      1.0000 0.38260  0.30500  0.73820  Biso   1.000  H
  H20      1.0000 0.61740  0.30500  0.76180  Biso   1.000  H
  H21      1.0000 0.11740  0.19500  0.26180  Biso   1.000  H
  H22      1.0000 0.88260  0.19500  0.23820  Biso   1.000  H
  H23      1.0000 0.61740  0.69500  0.26180  Biso   1.000  H
  H24      1.0000 0.38260  0.69500  0.23820  Biso   1.000  H
  H25      1.0000 0.93240  0.80990  0.63950  Biso   1.000  H
  H26      1.0000 0.06760  0.80990  0.86050  Biso   1.000  H
  H27      1.0000 0.43240  0.30990  0.63950  Biso   1.000  H
  H28      1.0000 0.56760  0.30990  0.86050  Biso   1.000  H
  H29      1.0000 0.06760  0.19010  0.36050  Biso   1.000  H
  H30      1.0000 0.93240  0.19010  0.13950  Biso   1.000  H
  H31      1.0000 0.56760  0.69010  0.36050  Biso   1.000  H
  H32      1.0000 0.43240  0.69010  0.13950  Biso   1.000  H
  C25      1.0000 0.86320  0.60040  0.64370  Biso   1.000  C
  C26      1.0000 0.13680  0.60040  0.85630  Biso   1.000  C
  C27      1.0000 0.36320  0.10040  0.64370  Biso   1.000  C
  C28      1.0000 0.63680  0.10040  0.85630  Biso   1.000  C
  C29      1.0000 0.13680  0.39960  0.35630  Biso   1.000  C
  C30      1.0000 0.86320  0.39960  0.14370  Biso   1.000  C
  C31      1.0000 0.63680  0.89960  0.35630  Biso   1.000  C
  C32      1.0000 0.36320  0.89960  0.14370  Biso   1.000  C
  C33      1.0000 0.76630  0.96940  0.68290  Biso   1.000  C
  C34      1.0000 0.23370  0.96940  0.81710  Biso   1.000  C
  C35      1.0000 0.26630  0.46940  0.68290  Biso   1.000  C
  C36      1.0000 0.73370  0.46940  0.81710  Biso   1.000  C
  C37      1.0000 0.23370  0.03060  0.31710  Biso   1.000  C
  C38      1.0000 0.76630  0.03060  0.18290  Biso   1.000  C
  C39      1.0000 0.73370  0.53060  0.31710  Biso   1.000  C
  C40      1.0000 0.26630  0.53060  0.18290  Biso   1.000  C
  H33      1.0000 0.79950  0.04080  0.72990  Biso   1.000  H
  H34      1.0000 0.20050  0.04080  0.77010  Biso   1.000  H
  H35      1.0000 0.29950  0.54080  0.72990  Biso   1.000  H
  H36      1.0000 0.70050  0.54080  0.77010  Biso   1.000  H
  H37      1.0000 0.20050  0.95920  0.27010  Biso   1.000  H
  H38      1.0000 0.79950  0.95920  0.22990  Biso   1.000  H
  H39      1.0000 0.70050  0.45920  0.27010  Biso   1.000  H
  H40      1.0000 0.29950  0.45920  0.22990  Biso   1.000  H
  H41      1.0000 0.74320  0.88400  0.72320  Biso   1.000  H
  H42      1.0000 0.25680  0.88400  0.77680  Biso   1.000  H
  H43      1.0000 0.24320  0.38400  0.72320  Biso   1.000  H
  H44      1.0000 0.75680  0.38400  0.77680  Biso   1.000  H
  H45      1.0000 0.25680  0.11600  0.27680  Biso   1.000  H
  H46      1.0000 0.74320  0.11600  0.22320  Biso   1.000  H
  H47      1.0000 0.75680  0.61600  0.27680  Biso   1.000  H
  H48      1.0000 0.24320  0.61600  0.22320  Biso   1.000  H
  H49      1.0000 0.72360  0.03310  0.64520  Biso   1.000  H
  H50      1.0000 0.27640  0.03310  0.85480  Biso   1.000  H
  H51      1.0000 0.22360  0.53310  0.64520  Biso   1.000  H
  H52      1.0000 0.77640  0.53310  0.85480  Biso   1.000  H
  H53      1.0000 0.27640  0.96690  0.35480  Biso   1.000  H
  H54      1.0000 0.72360  0.96690  0.14520  Biso   1.000  H
  H55      1.0000 0.77640  0.46690  0.35480  Biso   1.000  H
  H56      1.0000 0.22360  0.46690  0.14520  Biso   1.000  H
  Na1      1.0000 0.96570  0.60420  0.36190  Biso   1.000  Na
  Na2      1.0000 0.03430  0.60420  0.13810  Biso   1.000  Na
  Na3      1.0000 0.46570  0.10420  0.36190  Biso   1.000  Na
  Na4      1.0000 0.53430  0.10420  0.13810  Biso   1.000  Na
  Na5      1.0000 0.03430  0.39580  0.63810  Biso   1.000  Na
  Na6      1.0000 0.96570  0.39580  0.86190  Biso   1.000  Na
  Na7      1.0000 0.53430  0.89580  0.63810  Biso   1.000  Na
  Na8      1.0000 0.46570  0.89580  0.86190  Biso   1.000  Na
  O33      1.0000 0.00000  0.84830  0.25000  Biso   1.000  O
  O34      1.0000 0.50000  0.34830  0.25000  Biso   1.000  O
  O35      1.0000 0.00000  0.15170  0.75000  Biso   1.000  O
  O36      1.0000 0.50000  0.65170  0.75000  Biso   1.000  O
  H57      1.0000 0.95420  0.91500  0.22110  Biso   1.000  H
  H58      1.0000 0.04580  0.91500  0.27890  Biso   1.000  H
  H59      1.0000 0.45420  0.41500  0.22110  Biso   1.000  H
  H60      1.0000 0.54580  0.41500  0.27890  Biso   1.000  H
  H61      1.0000 0.04580  0.08500  0.77890  Biso   1.000  H
  H62      1.0000 0.95420  0.08500  0.72110  Biso   1.000  H
  H63      1.0000 0.54580  0.58500  0.77890  Biso   1.000  H
  H64      1.0000 0.45420  0.58500  0.72110  Biso   1.000  H
  O37      1.0000 0.93340  0.37370  0.46690  Biso   1.000  O
  O38      1.0000 0.06660  0.37370  0.03310  Biso   1.000  O
  O39      1.0000 0.43340  0.87370  0.46690  Biso   1.000  O
  O40      1.0000 0.56660  0.87370  0.03310  Biso   1.000  O
  O41      1.0000 0.06660  0.62630  0.53310  Biso   1.000  O
  O42      1.0000 0.93340  0.62630  0.96690  Biso   1.000  O
  O43      1.0000 0.56660  0.12630  0.53310  Biso   1.000  O
  O44      1.0000 0.43340  0.12630  0.96690  Biso   1.000  O
  H65      1.0000 0.94100  0.27020  0.43020  Biso   1.000  H
  H66      1.0000 0.05900  0.27020  0.06980  Biso   1.000  H
  H67      1.0000 0.44100  0.77020  0.43020  Biso   1.000  H
  H68      1.0000 0.55900  0.77020  0.06980  Biso   1.000  H
  H69      1.0000 0.05900  0.72980  0.56980  Biso   1.000  H
  H70      1.0000 0.94100  0.72980  0.93020  Biso   1.000  H
  H71      1.0000 0.55900  0.22980  0.56980  Biso   1.000  H
  H72      1.0000 0.44100  0.22980  0.93020  Biso   1.000  H
  H73      1.0000 0.87770  0.38010  0.48390  Biso   1.000  H
  H74      1.0000 0.12230  0.38010  0.01610  Biso   1.000  H
  H75      1.0000 0.37770  0.88010  0.48390  Biso   1.000  H
  H76      1.0000 0.62230  0.88010  0.01610  Biso   1.000  H
  H77      1.0000 0.12230  0.61990  0.51610  Biso   1.000  H
  H78      1.0000 0.87770  0.61990  0.98390  Biso   1.000  H
  H79      1.0000 0.62230  0.11990  0.51610  Biso   1.000  H
  H80      1.0000 0.37770  0.11990  0.98390  Biso   1.000  H
