data_image0
_cell_length_a       22.273
_cell_length_b       23.3463
_cell_length_c       7.1583
_cell_angle_alpha    90
_cell_angle_beta     93.96
_cell_angle_gamma    90

_symmetry_space_group_name_H-M    "P 1"
_symmetry_int_tables_number       1

loop_
  _symmetry_equiv_pos_as_xyz
  'x, y, z'

loop_
  _atom_site_label
  _atom_site_occupancy
  _atom_site_fract_x
  _atom_site_fract_y
  _atom_site_fract_z
  _atom_site_thermal_displace_type
  _atom_site_B_iso_or_equiv
  _atom_site_type_symbol
  Cu1      1.0000 0.50000  0.12153  0.25000  Biso   1.000  Cu
  Cu2      1.0000 0.00000  0.62153  0.25000  Biso   1.000  Cu
  Cu3      1.0000 0.50000  0.87847  0.75000  Biso   1.000  Cu
  Cu4      1.0000 0.00000  0.37847  0.75000  Biso   1.000  Cu
  N1       1.0000 0.44755  0.18320  0.12380  Biso   1.000  N
  N2       1.0000 0.94755  0.68320  0.12380  Biso   1.000  N
  N3       1.0000 0.44755  0.81680  0.62380  Biso   1.000  N
  N4       1.0000 0.94755  0.31680  0.62380  Biso   1.000  N
  N5       1.0000 0.55245  0.81680  0.87620  Biso   1.000  N
  N6       1.0000 0.05245  0.31680  0.87620  Biso   1.000  N
  N7       1.0000 0.55245  0.18320  0.37620  Biso   1.000  N
  N8       1.0000 0.05245  0.68320  0.37620  Biso   1.000  N
  C1       1.0000 0.39866  0.22209  0.84650  Biso   1.000  C
  C2       1.0000 0.89866  0.72209  0.84650  Biso   1.000  C
  C3       1.0000 0.39866  0.77791  0.34650  Biso   1.000  C
  C4       1.0000 0.89866  0.27791  0.34650  Biso   1.000  C
  C5       1.0000 0.60134  0.77791  0.15350  Biso   1.000  C
  C6       1.0000 0.10134  0.27791  0.15350  Biso   1.000  C
  C7       1.0000 0.60134  0.22209  0.65350  Biso   1.000  C
  C8       1.0000 0.10134  0.72209  0.65350  Biso   1.000  C
  H1       1.0000 0.39100  0.21980  0.71730  Biso   1.000  H
  H2       1.0000 0.89100  0.71980  0.71730  Biso   1.000  H
  H3       1.0000 0.39100  0.78020  0.21730  Biso   1.000  H
  H4       1.0000 0.89100  0.28020  0.21730  Biso   1.000  H
  H5       1.0000 0.60900  0.78020  0.28270  Biso   1.000  H
  H6       1.0000 0.10900  0.28020  0.28270  Biso   1.000  H
  H7       1.0000 0.60900  0.21980  0.78270  Biso   1.000  H
  H8       1.0000 0.10900  0.71980  0.78270  Biso   1.000  H
  C9       1.0000 0.43475  0.18237  0.93930  Biso   1.000  C
  C10      1.0000 0.93475  0.68237  0.93930  Biso   1.000  C
  C11      1.0000 0.43475  0.81763  0.43930  Biso   1.000  C
  C12      1.0000 0.93475  0.31763  0.43930  Biso   1.000  C
  C13      1.0000 0.56525  0.81763  0.06070  Biso   1.000  C
  C14      1.0000 0.06525  0.31763  0.06070  Biso   1.000  C
  C15      1.0000 0.56525  0.18237  0.56070  Biso   1.000  C
  C16      1.0000 0.06525  0.68237  0.56070  Biso   1.000  C
  H9       1.0000 0.45120  0.15330  0.87000  Biso   1.000  H
  H10      1.0000 0.95120  0.65330  0.87000  Biso   1.000  H
  H11      1.0000 0.45120  0.84670  0.37000  Biso   1.000  H
  H12      1.0000 0.95120  0.34670  0.37000  Biso   1.000  H
  H13      1.0000 0.54880  0.84670  0.13000  Biso   1.000  H
  H14      1.0000 0.04880  0.34670  0.13000  Biso   1.000  H
  H15      1.0000 0.54880  0.15330  0.63000  Biso   1.000  H
  H16      1.0000 0.04880  0.65330  0.63000  Biso   1.000  H
  C17      1.0000 0.42303  0.22519  0.22210  Biso   1.000  C
  C18      1.0000 0.92303  0.72519  0.22210  Biso   1.000  C
  C19      1.0000 0.42303  0.77481  0.72210  Biso   1.000  C
  C20      1.0000 0.92303  0.27481  0.72210  Biso   1.000  C
  C21      1.0000 0.57697  0.77481  0.77790  Biso   1.000  C
  C22      1.0000 0.07697  0.27481  0.77790  Biso   1.000  C
  C23      1.0000 0.57697  0.22519  0.27790  Biso   1.000  C
  C24      1.0000 0.07697  0.72519  0.27790  Biso   1.000  C
  H17      1.0000 0.43120  0.22620  0.35120  Biso   1.000  H
  H18      1.0000 0.93120  0.72620  0.35120  Biso   1.000  H
  H19      1.0000 0.43120  0.77380  0.85120  Biso   1.000  H
  H20      1.0000 0.93120  0.27380  0.85120  Biso   1.000  H
  H21      1.0000 0.56880  0.77380  0.64880  Biso   1.000  H
  H22      1.0000 0.06880  0.27380  0.64880  Biso   1.000  H
  H23      1.0000 0.56880  0.22620  0.14880  Biso   1.000  H
  H24      1.0000 0.06880  0.72620  0.14880  Biso   1.000  H
  C25      1.0000 0.38639  0.26663  0.13930  Biso   1.000  C
  C26      1.0000 0.88639  0.76663  0.13930  Biso   1.000  C
  C27      1.0000 0.38639  0.73337  0.63930  Biso   1.000  C
  C28      1.0000 0.88639  0.23337  0.63930  Biso   1.000  C
  C29      1.0000 0.61361  0.73337  0.86070  Biso   1.000  C
  C30      1.0000 0.11361  0.23337  0.86070  Biso   1.000  C
  C31      1.0000 0.61361  0.26663  0.36070  Biso   1.000  C
  C32      1.0000 0.11361  0.76663  0.36070  Biso   1.000  C
  H25      1.0000 0.37030  0.29510  0.21180  Biso   1.000  H
  H26      1.0000 0.87030  0.79510  0.21180  Biso   1.000  H
  H27      1.0000 0.37030  0.70490  0.71180  Biso   1.000  H
  H28      1.0000 0.87030  0.20490  0.71180  Biso   1.000  H
  H29      1.0000 0.62970  0.70490  0.78820  Biso   1.000  H
  H30      1.0000 0.12970  0.20490  0.78820  Biso   1.000  H
  H31      1.0000 0.62970  0.29510  0.28820  Biso   1.000  H
  H32      1.0000 0.12970  0.79510  0.28820  Biso   1.000  H
  N9       1.0000 0.32855  0.32219  0.67500  Biso   1.000  N
  N10      1.0000 0.82855  0.82219  0.67500  Biso   1.000  N
  N11      1.0000 0.32855  0.67781  0.17500  Biso   1.000  N
  N12      1.0000 0.82855  0.17781  0.17500  Biso   1.000  N
  N13      1.0000 0.67145  0.67781  0.32500  Biso   1.000  N
  N14      1.0000 0.17145  0.17781  0.32500  Biso   1.000  N
  N15      1.0000 0.67145  0.32219  0.82500  Biso   1.000  N
  N16      1.0000 0.17145  0.82219  0.82500  Biso   1.000  N
  C33      1.0000 0.37351  0.26589  0.94740  Biso   1.000  C
  C34      1.0000 0.87351  0.76589  0.94740  Biso   1.000  C
  C35      1.0000 0.37351  0.73411  0.44740  Biso   1.000  C
  C36      1.0000 0.87351  0.23411  0.44740  Biso   1.000  C
  C37      1.0000 0.62649  0.73411  0.05260  Biso   1.000  C
  C38      1.0000 0.12649  0.23411  0.05260  Biso   1.000  C
  C39      1.0000 0.62649  0.26589  0.55260  Biso   1.000  C
  C40      1.0000 0.12649  0.76589  0.55260  Biso   1.000  C
  N17      1.0000 0.29760  0.34109  0.95740  Biso   1.000  N
  N18      1.0000 0.79760  0.84109  0.95740  Biso   1.000  N
  N19      1.0000 0.29760  0.65891  0.45740  Biso   1.000  N
  N20      1.0000 0.79760  0.15891  0.45740  Biso   1.000  N
  N21      1.0000 0.70240  0.65891  0.04260  Biso   1.000  N
  N22      1.0000 0.20240  0.15891  0.04260  Biso   1.000  N
  N23      1.0000 0.70240  0.34109  0.54260  Biso   1.000  N
  N24      1.0000 0.20240  0.84109  0.54260  Biso   1.000  N
  O1       1.0000 0.35800  0.30203  0.55100  Biso   1.000  O
  O2       1.0000 0.85800  0.80203  0.55100  Biso   1.000  O
  O3       1.0000 0.35800  0.69797  0.05100  Biso   1.000  O
  O4       1.0000 0.85800  0.19797  0.05100  Biso   1.000  O
  O5       1.0000 0.64200  0.69797  0.44900  Biso   1.000  O
  O6       1.0000 0.14200  0.19797  0.44900  Biso   1.000  O
  O7       1.0000 0.64200  0.30203  0.94900  Biso   1.000  O
  O8       1.0000 0.14200  0.80203  0.94900  Biso   1.000  O
  O9       1.0000 0.26470  0.32360  0.09600  Biso   1.000  O
  O10      1.0000 0.76470  0.82360  0.09600  Biso   1.000  O
  O11      1.0000 0.26470  0.67640  0.59600  Biso   1.000  O
  O12      1.0000 0.76470  0.17640  0.59600  Biso   1.000  O
  O13      1.0000 0.73530  0.67640  0.90400  Biso   1.000  O
  O14      1.0000 0.23530  0.17640  0.90400  Biso   1.000  O
  O15      1.0000 0.73530  0.32360  0.40400  Biso   1.000  O
  O16      1.0000 0.23530  0.82360  0.40400  Biso   1.000  O
  C41      1.0000 0.26650  0.38352  0.83000  Biso   1.000  C
  C42      1.0000 0.76650  0.88352  0.83000  Biso   1.000  C
  C43      1.0000 0.26650  0.61648  0.33000  Biso   1.000  C
  C44      1.0000 0.76650  0.11648  0.33000  Biso   1.000  C
  C45      1.0000 0.73350  0.61648  0.17000  Biso   1.000  C
  C46      1.0000 0.23350  0.11648  0.17000  Biso   1.000  C
  C47      1.0000 0.73350  0.38352  0.67000  Biso   1.000  C
  C48      1.0000 0.23350  0.88352  0.67000  Biso   1.000  C
  C49      1.0000 0.33275  0.30997  0.86080  Biso   1.000  C
  C50      1.0000 0.83275  0.80997  0.86080  Biso   1.000  C
  C51      1.0000 0.33275  0.69003  0.36080  Biso   1.000  C
  C52      1.0000 0.83275  0.19003  0.36080  Biso   1.000  C
  C53      1.0000 0.66725  0.69003  0.13920  Biso   1.000  C
  C54      1.0000 0.16725  0.19003  0.13920  Biso   1.000  C
  C55      1.0000 0.66725  0.30997  0.63920  Biso   1.000  C
  C56      1.0000 0.16725  0.80997  0.63920  Biso   1.000  C
  C57      1.0000 0.27690  0.36230  0.63330  Biso   1.000  C
  C58      1.0000 0.77690  0.86230  0.63330  Biso   1.000  C
  C59      1.0000 0.27690  0.63770  0.13330  Biso   1.000  C
  C60      1.0000 0.77690  0.13770  0.13330  Biso   1.000  C
  C61      1.0000 0.72310  0.63770  0.36670  Biso   1.000  C
  C62      1.0000 0.22310  0.13770  0.36670  Biso   1.000  C
  C63      1.0000 0.72310  0.36230  0.86670  Biso   1.000  C
  C64      1.0000 0.22310  0.86230  0.86670  Biso   1.000  C
  C65      1.0000 0.29180  0.40510  0.48830  Biso   1.000  C
  C66      1.0000 0.79180  0.90510  0.48830  Biso   1.000  C
  C67      1.0000 0.29180  0.59490  0.98830  Biso   1.000  C
  C68      1.0000 0.79180  0.09490  0.98830  Biso   1.000  C
  C69      1.0000 0.70820  0.59490  0.51170  Biso   1.000  C
  C70      1.0000 0.20820  0.09490  0.51170  Biso   1.000  C
  C71      1.0000 0.70820  0.40510  0.01170  Biso   1.000  C
  C72      1.0000 0.20820  0.90510  0.01170  Biso   1.000  C
  H33      1.0000 0.29690  0.38590  0.37190  Biso   1.000  H
  H34      1.0000 0.79690  0.88590  0.37190  Biso   1.000  H
  H35      1.0000 0.29690  0.61410  0.87190  Biso   1.000  H
  H36      1.0000 0.79690  0.11410  0.87190  Biso   1.000  H
  H37      1.0000 0.70310  0.61410  0.62810  Biso   1.000  H
  H38      1.0000 0.20310  0.11410  0.62810  Biso   1.000  H
  H39      1.0000 0.70310  0.38590  0.12810  Biso   1.000  H
  H40      1.0000 0.20310  0.88590  0.12810  Biso   1.000  H
  H41      1.0000 0.32850  0.42450  0.52840  Biso   1.000  H
  H42      1.0000 0.82850  0.92450  0.52840  Biso   1.000  H
  H43      1.0000 0.32850  0.57550  0.02840  Biso   1.000  H
  H44      1.0000 0.82850  0.07550  0.02840  Biso   1.000  H
  H45      1.0000 0.67150  0.57550  0.47160  Biso   1.000  H
  H46      1.0000 0.17150  0.07550  0.47160  Biso   1.000  H
  H47      1.0000 0.67150  0.42450  0.97160  Biso   1.000  H
  H48      1.0000 0.17150  0.92450  0.97160  Biso   1.000  H
  H49      1.0000 0.25980  0.43250  0.47140  Biso   1.000  H
  H50      1.0000 0.75980  0.93250  0.47140  Biso   1.000  H
  H51      1.0000 0.25980  0.56750  0.97140  Biso   1.000  H
  H52      1.0000 0.75980  0.06750  0.97140  Biso   1.000  H
  H53      1.0000 0.74020  0.56750  0.52860  Biso   1.000  H
  H54      1.0000 0.24020  0.06750  0.52860  Biso   1.000  H
  H55      1.0000 0.74020  0.43250  0.02860  Biso   1.000  H
  H56      1.0000 0.24020  0.93250  0.02860  Biso   1.000  H
  N25      1.0000 0.44986  0.06132  0.12080  Biso   1.000  N
  N26      1.0000 0.94986  0.56132  0.12080  Biso   1.000  N
  N27      1.0000 0.44986  0.93868  0.62080  Biso   1.000  N
  N28      1.0000 0.94986  0.43868  0.62080  Biso   1.000  N
  N29      1.0000 0.55014  0.93868  0.87920  Biso   1.000  N
  N30      1.0000 0.05014  0.43868  0.87920  Biso   1.000  N
  N31      1.0000 0.55014  0.06132  0.37920  Biso   1.000  N
  N32      1.0000 0.05014  0.56132  0.37920  Biso   1.000  N
  C73      1.0000 0.42475  0.01880  0.09720  Biso   1.000  C
  C74      1.0000 0.92475  0.51880  0.09720  Biso   1.000  C
  C75      1.0000 0.42475  0.98120  0.59720  Biso   1.000  C
  C76      1.0000 0.92475  0.48120  0.59720  Biso   1.000  C
  C77      1.0000 0.57525  0.98120  0.90280  Biso   1.000  C
  C78      1.0000 0.07525  0.48120  0.90280  Biso   1.000  C
  C79      1.0000 0.57525  0.01880  0.40280  Biso   1.000  C
  C80      1.0000 0.07525  0.51880  0.40280  Biso   1.000  C
  C81      1.0000 0.30210  0.44010  0.87890  Biso   1.000  C
  C82      1.0000 0.80210  0.94010  0.87890  Biso   1.000  C
  C83      1.0000 0.30210  0.55990  0.37890  Biso   1.000  C
  C84      1.0000 0.80210  0.05990  0.37890  Biso   1.000  C
  C85      1.0000 0.69790  0.55990  0.12110  Biso   1.000  C
  C86      1.0000 0.19790  0.05990  0.12110  Biso   1.000  C
  C87      1.0000 0.69790  0.44010  0.62110  Biso   1.000  C
  C88      1.0000 0.19790  0.94010  0.62110  Biso   1.000  C
  H57      1.0000 0.34310  0.43580  0.84760  Biso   1.000  H
  H58      1.0000 0.84310  0.93580  0.84760  Biso   1.000  H
  H59      1.0000 0.34310  0.56420  0.34760  Biso   1.000  H
  H60      1.0000 0.84310  0.06420  0.34760  Biso   1.000  H
  H61      1.0000 0.65690  0.56420  0.15240  Biso   1.000  H
  H62      1.0000 0.15690  0.06420  0.15240  Biso   1.000  H
  H63      1.0000 0.65690  0.43580  0.65240  Biso   1.000  H
  H64      1.0000 0.15690  0.93580  0.65240  Biso   1.000  H
  H65      1.0000 0.30120  0.44790  0.01030  Biso   1.000  H
  H66      1.0000 0.80120  0.94790  0.01030  Biso   1.000  H
  H67      1.0000 0.30120  0.55210  0.51030  Biso   1.000  H
  H68      1.0000 0.80120  0.05210  0.51030  Biso   1.000  H
  H69      1.0000 0.69880  0.55210  0.98970  Biso   1.000  H
  H70      1.0000 0.19880  0.05210  0.98970  Biso   1.000  H
  H71      1.0000 0.69880  0.44790  0.48970  Biso   1.000  H
  H72      1.0000 0.19880  0.94790  0.48970  Biso   1.000  H
  H73      1.0000 0.28390  0.47130  0.80860  Biso   1.000  H
  H74      1.0000 0.78390  0.97130  0.80860  Biso   1.000  H
  H75      1.0000 0.28390  0.52870  0.30860  Biso   1.000  H
  H76      1.0000 0.78390  0.02870  0.30860  Biso   1.000  H
  H77      1.0000 0.71610  0.52870  0.19140  Biso   1.000  H
  H78      1.0000 0.21610  0.02870  0.19140  Biso   1.000  H
  H79      1.0000 0.71610  0.47130  0.69140  Biso   1.000  H
  H80      1.0000 0.21610  0.97130  0.69140  Biso   1.000  H
  C89      1.0000 0.22610  0.32480  0.55010  Biso   1.000  C
  C90      1.0000 0.72610  0.82480  0.55010  Biso   1.000  C
  C91      1.0000 0.22610  0.67520  0.05010  Biso   1.000  C
  C92      1.0000 0.72610  0.17520  0.05010  Biso   1.000  C
  C93      1.0000 0.77390  0.67520  0.44990  Biso   1.000  C
  C94      1.0000 0.27390  0.17520  0.44990  Biso   1.000  C
  C95      1.0000 0.77390  0.32480  0.94990  Biso   1.000  C
  C96      1.0000 0.27390  0.82480  0.94990  Biso   1.000  C
  H81      1.0000 0.21550  0.29710  0.64140  Biso   1.000  H
  H82      1.0000 0.71550  0.79710  0.64140  Biso   1.000  H
  H83      1.0000 0.21550  0.70290  0.14140  Biso   1.000  H
  H84      1.0000 0.71550  0.20290  0.14140  Biso   1.000  H
  H85      1.0000 0.78450  0.70290  0.35860  Biso   1.000  H
  H86      1.0000 0.28450  0.20290  0.35860  Biso   1.000  H
  H87      1.0000 0.78450  0.29710  0.85860  Biso   1.000  H
  H88      1.0000 0.28450  0.79710  0.85860  Biso   1.000  H
  H89      1.0000 0.23900  0.30530  0.44170  Biso   1.000  H
  H90      1.0000 0.73900  0.80530  0.44170  Biso   1.000  H
  H91      1.0000 0.23900  0.69470  0.94170  Biso   1.000  H
  H92      1.0000 0.73900  0.19470  0.94170  Biso   1.000  H
  H93      1.0000 0.76100  0.69470  0.55830  Biso   1.000  H
  H94      1.0000 0.26100  0.19470  0.55830  Biso   1.000  H
  H95      1.0000 0.76100  0.30530  0.05830  Biso   1.000  H
  H96      1.0000 0.26100  0.80530  0.05830  Biso   1.000  H
  H97      1.0000 0.19170  0.34820  0.51480  Biso   1.000  H
  H98      1.0000 0.69170  0.84820  0.51480  Biso   1.000  H
  H99      1.0000 0.19170  0.65180  0.01480  Biso   1.000  H
  H100     1.0000 0.69170  0.15180  0.01480  Biso   1.000  H
  H101     1.0000 0.80830  0.65180  0.48520  Biso   1.000  H
  H102     1.0000 0.30830  0.15180  0.48520  Biso   1.000  H
  H103     1.0000 0.80830  0.34820  0.98520  Biso   1.000  H
  H104     1.0000 0.30830  0.84820  0.98520  Biso   1.000  H
  C97      1.0000 0.20170  0.38940  0.87820  Biso   1.000  C
  C98      1.0000 0.70170  0.88940  0.87820  Biso   1.000  C
  C99      1.0000 0.20170  0.61060  0.37820  Biso   1.000  C
  C100     1.0000 0.70170  0.11060  0.37820  Biso   1.000  C
  C101     1.0000 0.79830  0.61060  0.12180  Biso   1.000  C
  C102     1.0000 0.29830  0.11060  0.12180  Biso   1.000  C
  C103     1.0000 0.79830  0.38940  0.62180  Biso   1.000  C
  C104     1.0000 0.29830  0.88940  0.62180  Biso   1.000  C
  H105     1.0000 0.20050  0.40270  0.00480  Biso   1.000  H
  H106     1.0000 0.70050  0.90270  0.00480  Biso   1.000  H
  H107     1.0000 0.20050  0.59730  0.50480  Biso   1.000  H
  H108     1.0000 0.70050  0.09730  0.50480  Biso   1.000  H
  H109     1.0000 0.79950  0.59730  0.99520  Biso   1.000  H
  H110     1.0000 0.29950  0.09730  0.99520  Biso   1.000  H
  H111     1.0000 0.79950  0.40270  0.49520  Biso   1.000  H
  H112     1.0000 0.29950  0.90270  0.49520  Biso   1.000  H
  H113     1.0000 0.18210  0.35280  0.86570  Biso   1.000  H
  H114     1.0000 0.68210  0.85280  0.86570  Biso   1.000  H
  H115     1.0000 0.18210  0.64720  0.36570  Biso   1.000  H
  H116     1.0000 0.68210  0.14720  0.36570  Biso   1.000  H
  H117     1.0000 0.81790  0.64720  0.13430  Biso   1.000  H
  H118     1.0000 0.31790  0.14720  0.13430  Biso   1.000  H
  H119     1.0000 0.81790  0.35280  0.63430  Biso   1.000  H
  H120     1.0000 0.31790  0.85280  0.63430  Biso   1.000  H
  H121     1.0000 0.18140  0.41630  0.79460  Biso   1.000  H
  H122     1.0000 0.68140  0.91630  0.79460  Biso   1.000  H
  H123     1.0000 0.18140  0.58370  0.29460  Biso   1.000  H
  H124     1.0000 0.68140  0.08370  0.29460  Biso   1.000  H
  H125     1.0000 0.81860  0.58370  0.20540  Biso   1.000  H
  H126     1.0000 0.31860  0.08370  0.20540  Biso   1.000  H
  H127     1.0000 0.81860  0.41630  0.70540  Biso   1.000  H
  H128     1.0000 0.31860  0.91630  0.70540  Biso   1.000  H
  C105     1.0000 0.41534  0.92396  0.04610  Biso   1.000  C
  C106     1.0000 0.91534  0.42396  0.04610  Biso   1.000  C
  C107     1.0000 0.41534  0.07604  0.54610  Biso   1.000  C
  C108     1.0000 0.91534  0.57604  0.54610  Biso   1.000  C
  C109     1.0000 0.58466  0.07604  0.95390  Biso   1.000  C
  C110     1.0000 0.08466  0.57604  0.95390  Biso   1.000  C
  C111     1.0000 0.58466  0.92396  0.45390  Biso   1.000  C
  C112     1.0000 0.08466  0.42396  0.45390  Biso   1.000  C
  N33      1.0000 0.39111  0.97399  0.06800  Biso   1.000  N
  N34      1.0000 0.89111  0.47399  0.06800  Biso   1.000  N
  N35      1.0000 0.39111  0.02601  0.56800  Biso   1.000  N
  N36      1.0000 0.89111  0.52601  0.56800  Biso   1.000  N
  N37      1.0000 0.60889  0.02601  0.93200  Biso   1.000  N
  N38      1.0000 0.10889  0.52601  0.93200  Biso   1.000  N
  N39      1.0000 0.60889  0.97399  0.43200  Biso   1.000  N
  N40      1.0000 0.10889  0.47399  0.43200  Biso   1.000  N
  N41      1.0000 0.43224  0.87792  0.02230  Biso   1.000  N
  N42      1.0000 0.93224  0.37792  0.02230  Biso   1.000  N
  N43      1.0000 0.43224  0.12208  0.52230  Biso   1.000  N
  N44      1.0000 0.93224  0.62208  0.52230  Biso   1.000  N
  N45      1.0000 0.56776  0.12208  0.97770  Biso   1.000  N
  N46      1.0000 0.06776  0.62208  0.97770  Biso   1.000  N
  N47      1.0000 0.56776  0.87792  0.47770  Biso   1.000  N
  N48      1.0000 0.06776  0.37792  0.47770  Biso   1.000  N
