data_image0
_cell_length_a       16.62
_cell_length_b       11.6
_cell_length_c       20.168
_cell_angle_alpha    90
_cell_angle_beta     92.41
_cell_angle_gamma    90

_symmetry_space_group_name_H-M    "P 1"
_symmetry_int_tables_number       1

loop_
  _symmetry_equiv_pos_as_xyz
  'x, y, z'

loop_
  _atom_site_label
  _atom_site_occupancy
  _atom_site_fract_x
  _atom_site_fract_y
  _atom_site_fract_z
  _atom_site_thermal_displace_type
  _atom_site_B_iso_or_equiv
  _atom_site_type_symbol
  Cu1      1.0000 0.26204  0.46824  0.09542  Biso   1.000  Cu
  Cu2      1.0000 0.73796  0.96824  0.40458  Biso   1.000  Cu
  Cu3      1.0000 0.73796  0.53176  0.90458  Biso   1.000  Cu
  Cu4      1.0000 0.26204  0.03176  0.59542  Biso   1.000  Cu
  Cu5      1.0000 0.77832  0.54556  0.41530  Biso   1.000  Cu
  Cu6      1.0000 0.22168  0.04556  0.08470  Biso   1.000  Cu
  Cu7      1.0000 0.22168  0.45444  0.58470  Biso   1.000  Cu
  Cu8      1.0000 0.77832  0.95444  0.91530  Biso   1.000  Cu
  O1       1.0000 0.34174  0.45626  0.16869  Biso   1.000  O
  O2       1.0000 0.65826  0.95626  0.33131  Biso   1.000  O
  O3       1.0000 0.65826  0.54374  0.83131  Biso   1.000  O
  O4       1.0000 0.34174  0.04374  0.66869  Biso   1.000  O
  O5       1.0000 0.40602  0.62411  0.15533  Biso   1.000  O
  O6       1.0000 0.59398  0.12411  0.34467  Biso   1.000  O
  O7       1.0000 0.59398  0.37589  0.84467  Biso   1.000  O
  O8       1.0000 0.40602  0.87589  0.65533  Biso   1.000  O
  O9       1.0000 0.51971  0.55941  0.25061  Biso   1.000  O
  O10      1.0000 0.48029  0.05941  0.24939  Biso   1.000  O
  O11      1.0000 0.48029  0.44059  0.74939  Biso   1.000  O
  O12      1.0000 0.51971  0.94059  0.75061  Biso   1.000  O
  O13      1.0000 0.68947  0.49579  0.35584  Biso   1.000  O
  O14      1.0000 0.31053  0.99579  0.14416  Biso   1.000  O
  O15      1.0000 0.31053  0.50421  0.64416  Biso   1.000  O
  O16      1.0000 0.68947  0.00421  0.85584  Biso   1.000  O
  O17      1.0000 0.64533  0.66569  0.31577  Biso   1.000  O
  O18      1.0000 0.35467  0.16569  0.18423  Biso   1.000  O
  O19      1.0000 0.35467  0.33431  0.68423  Biso   1.000  O
  O20      1.0000 0.64533  0.83431  0.81577  Biso   1.000  O
  C1       1.0000 0.39872  0.52750  0.17983  Biso   1.000  C
  C2       1.0000 0.60128  0.02750  0.32017  Biso   1.000  C
  C3       1.0000 0.60128  0.47250  0.82017  Biso   1.000  C
  C4       1.0000 0.39872  0.97250  0.67983  Biso   1.000  C
  C5       1.0000 0.46290  0.48270  0.22686  Biso   1.000  C
  C6       1.0000 0.53710  0.98270  0.27314  Biso   1.000  C
  C7       1.0000 0.53710  0.51730  0.77314  Biso   1.000  C
  C8       1.0000 0.46290  0.01730  0.72686  Biso   1.000  C
  C9       1.0000 0.47776  0.37590  0.25122  Biso   1.000  C
  C10      1.0000 0.52224  0.87590  0.24878  Biso   1.000  C
  C11      1.0000 0.52224  0.62410  0.74878  Biso   1.000  C
  C12      1.0000 0.47776  0.12410  0.75122  Biso   1.000  C
  H1       1.0000 0.44780  0.30950  0.24250  Biso   1.000  H
  H2       1.0000 0.55220  0.80950  0.25750  Biso   1.000  H
  H3       1.0000 0.55220  0.69050  0.75750  Biso   1.000  H
  H4       1.0000 0.44780  0.19050  0.74250  Biso   1.000  H
  C13      1.0000 0.54854  0.38580  0.29291  Biso   1.000  C
  C14      1.0000 0.45146  0.88580  0.20709  Biso   1.000  C
  C15      1.0000 0.45146  0.61420  0.70709  Biso   1.000  C
  C16      1.0000 0.54854  0.11420  0.79291  Biso   1.000  C
  H5       1.0000 0.57400  0.32670  0.31690  Biso   1.000  H
  H6       1.0000 0.42600  0.82670  0.18310  Biso   1.000  H
  H7       1.0000 0.42600  0.67330  0.68310  Biso   1.000  H
  H8       1.0000 0.57400  0.17330  0.81690  Biso   1.000  H
  C17      1.0000 0.57159  0.49610  0.29108  Biso   1.000  C
  C18      1.0000 0.42841  0.99610  0.20892  Biso   1.000  C
  C19      1.0000 0.42841  0.50390  0.70892  Biso   1.000  C
  C20      1.0000 0.57159  0.00390  0.79108  Biso   1.000  C
  C21      1.0000 0.64101  0.56050  0.32343  Biso   1.000  C
  C22      1.0000 0.35899  0.06050  0.17657  Biso   1.000  C
  C23      1.0000 0.35899  0.43950  0.67657  Biso   1.000  C
  C24      1.0000 0.64101  0.93950  0.82343  Biso   1.000  C
  O21      1.0000 0.17981  0.52844  0.15262  Biso   1.000  O
  O22      1.0000 0.82019  0.02844  0.34738  Biso   1.000  O
  O23      1.0000 0.82019  0.47156  0.84738  Biso   1.000  O
  O24      1.0000 0.17981  0.97156  0.65262  Biso   1.000  O
  O25      1.0000 0.10622  0.36742  0.15767  Biso   1.000  O
  O26      1.0000 0.89378  0.86742  0.34233  Biso   1.000  O
  O27      1.0000 0.89378  0.63258  0.84233  Biso   1.000  O
  O28      1.0000 0.10622  0.13258  0.65767  Biso   1.000  O
  O29      1.0000 0.00890  0.46740  0.24548  Biso   1.000  O
  O30      1.0000 0.99110  0.96740  0.25452  Biso   1.000  O
  O31      1.0000 0.99110  0.53260  0.75452  Biso   1.000  O
  O32      1.0000 0.00890  0.03260  0.74548  Biso   1.000  O
  O33      1.0000 0.85740  0.57111  0.34843  Biso   1.000  O
  O34      1.0000 0.14260  0.07111  0.15157  Biso   1.000  O
  O35      1.0000 0.14260  0.42889  0.65157  Biso   1.000  O
  O36      1.0000 0.85740  0.92889  0.84843  Biso   1.000  O
  O37      1.0000 0.88407  0.39158  0.31678  Biso   1.000  O
  O38      1.0000 0.11593  0.89158  0.18322  Biso   1.000  O
  O39      1.0000 0.11593  0.60842  0.68322  Biso   1.000  O
  O40      1.0000 0.88407  0.10842  0.81678  Biso   1.000  O
  C25      1.0000 0.12146  0.46820  0.17212  Biso   1.000  C
  C26      1.0000 0.87854  0.96820  0.32788  Biso   1.000  C
  C27      1.0000 0.87854  0.53180  0.82788  Biso   1.000  C
  C28      1.0000 0.12146  0.03180  0.67212  Biso   1.000  C
  C29      1.0000 0.06639  0.53180  0.21566  Biso   1.000  C
  C30      1.0000 0.93361  0.03180  0.28434  Biso   1.000  C
  C31      1.0000 0.93361  0.46820  0.78434  Biso   1.000  C
  C32      1.0000 0.06639  0.96820  0.71566  Biso   1.000  C
  C33      1.0000 0.05879  0.64360  0.23144  Biso   1.000  C
  C34      1.0000 0.94121  0.14360  0.26856  Biso   1.000  C
  C35      1.0000 0.94121  0.35640  0.76856  Biso   1.000  C
  C36      1.0000 0.05879  0.85640  0.73144  Biso   1.000  C
  H9       1.0000 0.09080  0.70410  0.21760  Biso   1.000  H
  H10      1.0000 0.90920  0.20410  0.28240  Biso   1.000  H
  H11      1.0000 0.90920  0.29590  0.78240  Biso   1.000  H
  H12      1.0000 0.09080  0.79590  0.71760  Biso   1.000  H
  C37      1.0000 0.99230  0.65180  0.27353  Biso   1.000  C
  C38      1.0000 0.00770  0.15180  0.22647  Biso   1.000  C
  C39      1.0000 0.00770  0.34820  0.72647  Biso   1.000  C
  C40      1.0000 0.99230  0.84820  0.77353  Biso   1.000  C
  H13      1.0000 0.97230  0.71850  0.29240  Biso   1.000  H
  H14      1.0000 0.02770  0.21850  0.20760  Biso   1.000  H
  H15      1.0000 0.02770  0.28150  0.70760  Biso   1.000  H
  H16      1.0000 0.97230  0.78150  0.79240  Biso   1.000  H
  C41      1.0000 0.96423  0.54400  0.28061  Biso   1.000  C
  C42      1.0000 0.03577  0.04400  0.21939  Biso   1.000  C
  C43      1.0000 0.03577  0.45600  0.71939  Biso   1.000  C
  C44      1.0000 0.96423  0.95600  0.78061  Biso   1.000  C
  C45      1.0000 0.89646  0.49550  0.31801  Biso   1.000  C
  C46      1.0000 0.10354  0.99550  0.18199  Biso   1.000  C
  C47      1.0000 0.10354  0.50450  0.68199  Biso   1.000  C
  C48      1.0000 0.89646  0.00450  0.81801  Biso   1.000  C
  N1       1.0000 0.19302  0.49380  0.01174  Biso   1.000  N
  N2       1.0000 0.80698  0.99380  0.48826  Biso   1.000  N
  N3       1.0000 0.80698  0.50620  0.98826  Biso   1.000  N
  N4       1.0000 0.19302  0.00620  0.51174  Biso   1.000  N
  N5       1.0000 0.34234  0.41630  0.02842  Biso   1.000  N
  N6       1.0000 0.65766  0.91630  0.47158  Biso   1.000  N
  N7       1.0000 0.65766  0.58370  0.97158  Biso   1.000  N
  N8       1.0000 0.34234  0.08370  0.52842  Biso   1.000  N
  C49      1.0000 0.11996  0.53890  0.00524  Biso   1.000  C
  C50      1.0000 0.88004  0.03890  0.49476  Biso   1.000  C
  C51      1.0000 0.88004  0.46110  0.99476  Biso   1.000  C
  C52      1.0000 0.11996  0.96110  0.50524  Biso   1.000  C
  H17      1.0000 0.09450  0.56300  0.04300  Biso   1.000  H
  H18      1.0000 0.90550  0.06300  0.45700  Biso   1.000  H
  H19      1.0000 0.90550  0.43700  0.95700  Biso   1.000  H
  H20      1.0000 0.09450  0.93700  0.54300  Biso   1.000  H
  C53      1.0000 0.07967  0.55150  0.94290  Biso   1.000  C
  C54      1.0000 0.92033  0.05150  0.55710  Biso   1.000  C
  C55      1.0000 0.92033  0.44850  0.05710  Biso   1.000  C
  C56      1.0000 0.07967  0.94850  0.44290  Biso   1.000  C
  H21      1.0000 0.02850  0.58410  0.93980  Biso   1.000  H
  H22      1.0000 0.97150  0.08410  0.56020  Biso   1.000  H
  H23      1.0000 0.97150  0.41590  0.06020  Biso   1.000  H
  H24      1.0000 0.02850  0.91590  0.43980  Biso   1.000  H
  C57      1.0000 0.11550  0.51620  0.88780  Biso   1.000  C
  C58      1.0000 0.88450  0.01620  0.61220  Biso   1.000  C
  C59      1.0000 0.88450  0.48380  0.11220  Biso   1.000  C
  C60      1.0000 0.11550  0.98380  0.38780  Biso   1.000  C
  H25      1.0000 0.08870  0.52340  0.84660  Biso   1.000  H
  H26      1.0000 0.91130  0.02340  0.65340  Biso   1.000  H
  H27      1.0000 0.91130  0.47660  0.15340  Biso   1.000  H
  H28      1.0000 0.08870  0.97660  0.34660  Biso   1.000  H
  C61      1.0000 0.19370  0.46830  0.89215  Biso   1.000  C
  C62      1.0000 0.80630  0.96830  0.60785  Biso   1.000  C
  C63      1.0000 0.80630  0.53170  0.10785  Biso   1.000  C
  C64      1.0000 0.19370  0.03170  0.39215  Biso   1.000  C
  C65      1.0000 0.23830  0.42980  0.83710  Biso   1.000  C
  C66      1.0000 0.76170  0.92980  0.66290  Biso   1.000  C
  C67      1.0000 0.76170  0.57020  0.16290  Biso   1.000  C
  C68      1.0000 0.23830  0.07020  0.33710  Biso   1.000  C
  H29      1.0000 0.21490  0.43400  0.79450  Biso   1.000  H
  H30      1.0000 0.78510  0.93400  0.70550  Biso   1.000  H
  H31      1.0000 0.78510  0.56600  0.20550  Biso   1.000  H
  H32      1.0000 0.21490  0.06600  0.29450  Biso   1.000  H
  C69      1.0000 0.31260  0.38790  0.84571  Biso   1.000  C
  C70      1.0000 0.68740  0.88790  0.65429  Biso   1.000  C
  C71      1.0000 0.68740  0.61210  0.15429  Biso   1.000  C
  C72      1.0000 0.31260  0.11210  0.34571  Biso   1.000  C
  H33      1.0000 0.33990  0.36370  0.80890  Biso   1.000  H
  H34      1.0000 0.66010  0.86370  0.69110  Biso   1.000  H
  H35      1.0000 0.66010  0.63630  0.19110  Biso   1.000  H
  H36      1.0000 0.33990  0.13630  0.30890  Biso   1.000  H
  C73      1.0000 0.35201  0.37920  0.91058  Biso   1.000  C
  C74      1.0000 0.64799  0.87920  0.58942  Biso   1.000  C
  C75      1.0000 0.64799  0.62080  0.08942  Biso   1.000  C
  C76      1.0000 0.35201  0.12080  0.41058  Biso   1.000  C
  C77      1.0000 0.43060  0.33790  0.92312  Biso   1.000  C
  C78      1.0000 0.56940  0.83790  0.57688  Biso   1.000  C
  C79      1.0000 0.56940  0.66210  0.07688  Biso   1.000  C
  C80      1.0000 0.43060  0.16210  0.42312  Biso   1.000  C
  H37      1.0000 0.46100  0.31240  0.88840  Biso   1.000  H
  H38      1.0000 0.53900  0.81240  0.61160  Biso   1.000  H
  H39      1.0000 0.53900  0.68760  0.11160  Biso   1.000  H
  H40      1.0000 0.46100  0.18760  0.38840  Biso   1.000  H
  C81      1.0000 0.46150  0.33560  0.98630  Biso   1.000  C
  C82      1.0000 0.53850  0.83560  0.51370  Biso   1.000  C
  C83      1.0000 0.53850  0.66440  0.01370  Biso   1.000  C
  C84      1.0000 0.46150  0.16440  0.48630  Biso   1.000  C
  H41      1.0000 0.51320  0.30730  0.99500  Biso   1.000  H
  H42      1.0000 0.48680  0.80730  0.50500  Biso   1.000  H
  H43      1.0000 0.48680  0.69270  0.00500  Biso   1.000  H
  H44      1.0000 0.51320  0.19270  0.49500  Biso   1.000  H
  C85      1.0000 0.41626  0.37540  0.03824  Biso   1.000  C
  C86      1.0000 0.58374  0.87540  0.46176  Biso   1.000  C
  C87      1.0000 0.58374  0.62460  0.96176  Biso   1.000  C
  C88      1.0000 0.41626  0.12460  0.53824  Biso   1.000  C
  H45      1.0000 0.43880  0.37320  0.08120  Biso   1.000  H
  H46      1.0000 0.56120  0.87320  0.41880  Biso   1.000  H
  H47      1.0000 0.56120  0.62680  0.91880  Biso   1.000  H
  H48      1.0000 0.43880  0.12680  0.58120  Biso   1.000  H
  C89      1.0000 0.31052  0.41690  0.96554  Biso   1.000  C
  C90      1.0000 0.68948  0.91690  0.53446  Biso   1.000  C
  C91      1.0000 0.68948  0.58310  0.03446  Biso   1.000  C
  C92      1.0000 0.31052  0.08310  0.46554  Biso   1.000  C
  C93      1.0000 0.23022  0.46020  0.95626  Biso   1.000  C
  C94      1.0000 0.76978  0.96020  0.54374  Biso   1.000  C
  C95      1.0000 0.76978  0.53980  0.04374  Biso   1.000  C
  C96      1.0000 0.23022  0.03980  0.45626  Biso   1.000  C
  N9       1.0000 0.70653  0.53460  0.49399  Biso   1.000  N
  N10      1.0000 0.29347  0.03460  0.00601  Biso   1.000  N
  N11      1.0000 0.29347  0.46540  0.50601  Biso   1.000  N
  N12      1.0000 0.70653  0.96540  0.99399  Biso   1.000  N
  N13      1.0000 0.85693  0.60520  0.48709  Biso   1.000  N
  N14      1.0000 0.14307  0.10520  0.01291  Biso   1.000  N
  N15      1.0000 0.14307  0.39480  0.51291  Biso   1.000  N
  N16      1.0000 0.85693  0.89480  0.98709  Biso   1.000  N
  C97      1.0000 0.63292  0.48880  0.49529  Biso   1.000  C
  C98      1.0000 0.36708  0.98880  0.00471  Biso   1.000  C
  C99      1.0000 0.36708  0.51120  0.50471  Biso   1.000  C
  C100     1.0000 0.63292  0.01120  0.99529  Biso   1.000  C
  H49      1.0000 0.60800  0.46310  0.45590  Biso   1.000  H
  H50      1.0000 0.39200  0.96310  0.04410  Biso   1.000  H
  H51      1.0000 0.39200  0.53690  0.54410  Biso   1.000  H
  H52      1.0000 0.60800  0.03690  0.95590  Biso   1.000  H
  C101     1.0000 0.59210  0.47840  0.55450  Biso   1.000  C
  C102     1.0000 0.40790  0.97840  0.94550  Biso   1.000  C
  C103     1.0000 0.40790  0.52160  0.44550  Biso   1.000  C
  C104     1.0000 0.59210  0.02160  0.05450  Biso   1.000  C
  H53      1.0000 0.54120  0.44510  0.55420  Biso   1.000  H
  H54      1.0000 0.45880  0.94510  0.94580  Biso   1.000  H
  H55      1.0000 0.45880  0.55490  0.44580  Biso   1.000  H
  H56      1.0000 0.54120  0.05490  0.05420  Biso   1.000  H
  C105     1.0000 0.62660  0.51650  0.61110  Biso   1.000  C
  C106     1.0000 0.37340  0.01650  0.88890  Biso   1.000  C
  C107     1.0000 0.37340  0.48350  0.38890  Biso   1.000  C
  C108     1.0000 0.62660  0.98350  0.11110  Biso   1.000  C
  H57      1.0000 0.59870  0.51140  0.65000  Biso   1.000  H
  H58      1.0000 0.40130  0.01140  0.85000  Biso   1.000  H
  H59      1.0000 0.40130  0.48860  0.35000  Biso   1.000  H
  H60      1.0000 0.59870  0.98860  0.15000  Biso   1.000  H
  C109     1.0000 0.70440  0.56420  0.61325  Biso   1.000  C
  C110     1.0000 0.29560  0.06420  0.88675  Biso   1.000  C
  C111     1.0000 0.29560  0.43580  0.38675  Biso   1.000  C
  C112     1.0000 0.70440  0.93580  0.11325  Biso   1.000  C
  C113     1.0000 0.74730  0.60170  0.67048  Biso   1.000  C
  C114     1.0000 0.25270  0.10170  0.82952  Biso   1.000  C
  C115     1.0000 0.25270  0.39830  0.32952  Biso   1.000  C
  C116     1.0000 0.74730  0.89830  0.17048  Biso   1.000  C
  H61      1.0000 0.72290  0.59890  0.71110  Biso   1.000  H
  H62      1.0000 0.27710  0.09890  0.78890  Biso   1.000  H
  H63      1.0000 0.27710  0.40110  0.28890  Biso   1.000  H
  H64      1.0000 0.72290  0.90110  0.21110  Biso   1.000  H
  C117     1.0000 0.82230  0.64120  0.66776  Biso   1.000  C
  C118     1.0000 0.17770  0.14120  0.83224  Biso   1.000  C
  C119     1.0000 0.17770  0.35880  0.33224  Biso   1.000  C
  C120     1.0000 0.82230  0.85880  0.16776  Biso   1.000  C
  H65      1.0000 0.84840  0.66740  0.70660  Biso   1.000  H
  H66      1.0000 0.15160  0.16740  0.79340  Biso   1.000  H
  H67      1.0000 0.15160  0.33260  0.29340  Biso   1.000  H
  H68      1.0000 0.84840  0.83260  0.20660  Biso   1.000  H
  C121     1.0000 0.86450  0.64490  0.60622  Biso   1.000  C
  C122     1.0000 0.13550  0.14490  0.89378  Biso   1.000  C
  C123     1.0000 0.13550  0.35510  0.39378  Biso   1.000  C
  C124     1.0000 0.86450  0.85510  0.10622  Biso   1.000  C
  C125     1.0000 0.94370  0.67880  0.59920  Biso   1.000  C
  C126     1.0000 0.05630  0.17880  0.90080  Biso   1.000  C
  C127     1.0000 0.05630  0.32120  0.40080  Biso   1.000  C
  C128     1.0000 0.94370  0.82120  0.09920  Biso   1.000  C
  H69      1.0000 0.97380  0.70380  0.63640  Biso   1.000  H
  H70      1.0000 0.02620  0.20380  0.86360  Biso   1.000  H
  H71      1.0000 0.02620  0.29620  0.36360  Biso   1.000  H
  H72      1.0000 0.97380  0.79620  0.13640  Biso   1.000  H
  C129     1.0000 0.97900  0.67650  0.53880  Biso   1.000  C
  C130     1.0000 0.02100  0.17650  0.96120  Biso   1.000  C
  C131     1.0000 0.02100  0.32350  0.46120  Biso   1.000  C
  C132     1.0000 0.97900  0.82350  0.03880  Biso   1.000  C
  H73      1.0000 0.03230  0.69910  0.53510  Biso   1.000  H
  H74      1.0000 0.96770  0.19910  0.96490  Biso   1.000  H
  H75      1.0000 0.96770  0.30090  0.46490  Biso   1.000  H
  H76      1.0000 0.03230  0.80090  0.03510  Biso   1.000  H
  C133     1.0000 0.93240  0.63870  0.48203  Biso   1.000  C
  C134     1.0000 0.06760  0.13870  0.01797  Biso   1.000  C
  C135     1.0000 0.06760  0.36130  0.51797  Biso   1.000  C
  C136     1.0000 0.93240  0.86130  0.98203  Biso   1.000  C
  H77      1.0000 0.95540  0.63750  0.44080  Biso   1.000  H
  H78      1.0000 0.04460  0.13750  0.05920  Biso   1.000  H
  H79      1.0000 0.04460  0.36250  0.55920  Biso   1.000  H
  H80      1.0000 0.95540  0.86250  0.94080  Biso   1.000  H
  C137     1.0000 0.82350  0.60910  0.54787  Biso   1.000  C
  C138     1.0000 0.17650  0.10910  0.95213  Biso   1.000  C
  C139     1.0000 0.17650  0.39090  0.45213  Biso   1.000  C
  C140     1.0000 0.82350  0.89090  0.04787  Biso   1.000  C
  C141     1.0000 0.74293  0.56990  0.55125  Biso   1.000  C
  C142     1.0000 0.25707  0.06990  0.94875  Biso   1.000  C
  C143     1.0000 0.25707  0.43010  0.44875  Biso   1.000  C
  C144     1.0000 0.74293  0.93010  0.05125  Biso   1.000  C
  O41      1.0000 0.23887  0.26884  0.10600  Biso   1.000  O
  O42      1.0000 0.76113  0.76884  0.39400  Biso   1.000  O
  O43      1.0000 0.76113  0.73116  0.89400  Biso   1.000  O
  O44      1.0000 0.23887  0.23116  0.60600  Biso   1.000  O
  H81      1.0000 0.27660  0.24500  0.13170  Biso   1.000  H
  H82      1.0000 0.72340  0.74500  0.36830  Biso   1.000  H
  H83      1.0000 0.72340  0.75500  0.86830  Biso   1.000  H
  H84      1.0000 0.27660  0.25500  0.63170  Biso   1.000  H
  H85      1.0000 0.19590  0.27500  0.12720  Biso   1.000  H
  H86      1.0000 0.80410  0.77500  0.37280  Biso   1.000  H
  H87      1.0000 0.80410  0.72500  0.87280  Biso   1.000  H
  H88      1.0000 0.19590  0.22500  0.62720  Biso   1.000  H
  O45      1.0000 0.81807  0.34807  0.43587  Biso   1.000  O
  O46      1.0000 0.18193  0.84807  0.06413  Biso   1.000  O
  O47      1.0000 0.18193  0.65193  0.56413  Biso   1.000  O
  O48      1.0000 0.81807  0.15193  0.93587  Biso   1.000  O
  H89      1.0000 0.84100  0.32800  0.39910  Biso   1.000  H
  H90      1.0000 0.15900  0.82800  0.10090  Biso   1.000  H
  H91      1.0000 0.15900  0.67200  0.60090  Biso   1.000  H
  H92      1.0000 0.84100  0.17200  0.89910  Biso   1.000  H
  H93      1.0000 0.77550  0.30990  0.44510  Biso   1.000  H
  H94      1.0000 0.22450  0.80990  0.05490  Biso   1.000  H
  H95      1.0000 0.22450  0.69010  0.55490  Biso   1.000  H
  H96      1.0000 0.77550  0.19010  0.94510  Biso   1.000  H
  O49      1.0000 0.30778  0.69910  0.05478  Biso   1.000  O
  O50      1.0000 0.69222  0.19910  0.44522  Biso   1.000  O
  O51      1.0000 0.69222  0.30090  0.94522  Biso   1.000  O
  O52      1.0000 0.30778  0.80090  0.55478  Biso   1.000  O
  H97      1.0000 0.34600  0.72500  0.07960  Biso   1.000  H
  H98      1.0000 0.65400  0.22500  0.42040  Biso   1.000  H
  H99      1.0000 0.65400  0.27500  0.92040  Biso   1.000  H
  H100     1.0000 0.34600  0.77500  0.57960  Biso   1.000  H
  H101     1.0000 0.32400  0.69600  0.01400  Biso   1.000  H
  H102     1.0000 0.67600  0.19600  0.48600  Biso   1.000  H
  H103     1.0000 0.67600  0.30400  0.98600  Biso   1.000  H
  H104     1.0000 0.32400  0.80400  0.51400  Biso   1.000  H
  O53      1.0000 0.63770  0.31370  0.07231  Biso   1.000  O
  O54      1.0000 0.36230  0.81370  0.42769  Biso   1.000  O
  O55      1.0000 0.36230  0.68630  0.92769  Biso   1.000  O
  O56      1.0000 0.63770  0.18630  0.57231  Biso   1.000  O
  C145     1.0000 0.65270  0.29540  0.13190  Biso   1.000  C
  C146     1.0000 0.34730  0.79540  0.36810  Biso   1.000  C
  C147     1.0000 0.34730  0.70460  0.86810  Biso   1.000  C
  C148     1.0000 0.65270  0.20460  0.63190  Biso   1.000  C
  H105     1.0000 0.61380  0.31700  0.16140  Biso   1.000  H
  H106     1.0000 0.38620  0.81700  0.33860  Biso   1.000  H
  H107     1.0000 0.38620  0.68300  0.83860  Biso   1.000  H
  H108     1.0000 0.61380  0.18300  0.66140  Biso   1.000  H
  N17      1.0000 0.71914  0.24780  0.15731  Biso   1.000  N
  N18      1.0000 0.28086  0.74780  0.34269  Biso   1.000  N
  N19      1.0000 0.28086  0.75220  0.84269  Biso   1.000  N
  N20      1.0000 0.71914  0.25220  0.65731  Biso   1.000  N
  C149     1.0000 0.78410  0.21580  0.11670  Biso   1.000  C
  C150     1.0000 0.21590  0.71580  0.38330  Biso   1.000  C
  C151     1.0000 0.21590  0.78420  0.88330  Biso   1.000  C
  C152     1.0000 0.78410  0.28420  0.61670  Biso   1.000  C
  H109     1.0000 0.79540  0.13520  0.12240  Biso   1.000  H
  H110     1.0000 0.20460  0.63520  0.37760  Biso   1.000  H
  H111     1.0000 0.20460  0.86480  0.87760  Biso   1.000  H
  H112     1.0000 0.79540  0.36480  0.62240  Biso   1.000  H
  H113     1.0000 0.83110  0.25990  0.12950  Biso   1.000  H
  H114     1.0000 0.16890  0.75990  0.37050  Biso   1.000  H
  H115     1.0000 0.16890  0.74010  0.87050  Biso   1.000  H
  H116     1.0000 0.83110  0.24010  0.62950  Biso   1.000  H
  H117     1.0000 0.76930  0.23090  0.07100  Biso   1.000  H
  H118     1.0000 0.23070  0.73090  0.42900  Biso   1.000  H
  H119     1.0000 0.23070  0.76910  0.92900  Biso   1.000  H
  H120     1.0000 0.76930  0.26910  0.57100  Biso   1.000  H
  C153     1.0000 0.73130  0.23440  0.22840  Biso   1.000  C
  C154     1.0000 0.26870  0.73440  0.27160  Biso   1.000  C
  C155     1.0000 0.26870  0.76560  0.77160  Biso   1.000  C
  C156     1.0000 0.73130  0.26560  0.72840  Biso   1.000  C
  H121     1.0000 0.77280  0.28620  0.24440  Biso   1.000  H
  H122     1.0000 0.22720  0.78620  0.25560  Biso   1.000  H
  H123     1.0000 0.22720  0.71380  0.75560  Biso   1.000  H
  H124     1.0000 0.77280  0.21380  0.74440  Biso   1.000  H
  H125     1.0000 0.74710  0.15650  0.23840  Biso   1.000  H
  H126     1.0000 0.25290  0.65650  0.26160  Biso   1.000  H
  H127     1.0000 0.25290  0.84350  0.76160  Biso   1.000  H
  H128     1.0000 0.74710  0.34350  0.73840  Biso   1.000  H
  H129     1.0000 0.68210  0.25170  0.24970  Biso   1.000  H
  H130     1.0000 0.31790  0.75170  0.25030  Biso   1.000  H
  H131     1.0000 0.31790  0.74830  0.75030  Biso   1.000  H
  H132     1.0000 0.68210  0.24830  0.74970  Biso   1.000  H
