data_image0
_cell_length_a       9.3
_cell_length_b       9.88
_cell_length_c       11.02
_cell_angle_alpha    95.49
_cell_angle_beta     102.93
_cell_angle_gamma    114

_symmetry_space_group_name_H-M    "P 1"
_symmetry_int_tables_number       1

loop_
  _symmetry_equiv_pos_as_xyz
  'x, y, z'

loop_
  _atom_site_label
  _atom_site_occupancy
  _atom_site_fract_x
  _atom_site_fract_y
  _atom_site_fract_z
  _atom_site_thermal_displace_type
  _atom_site_B_iso_or_equiv
  _atom_site_type_symbol
  Cu1      1.0000 0.50000  0.50000  0.50000  Biso   1.000  Cu
  C1       1.0000 0.28990  0.37940  0.23600  Biso   1.000  C
  C2       1.0000 0.71010  0.62060  0.76400  Biso   1.000  C
  H1       1.0000 0.19910  0.36560  0.26460  Biso   1.000  H
  H2       1.0000 0.80090  0.63440  0.73540  Biso   1.000  H
  C3       1.0000 0.53490  0.44380  0.22910  Biso   1.000  C
  C4       1.0000 0.46510  0.55620  0.77090  Biso   1.000  C
  H3       1.0000 0.64900  0.48410  0.25380  Biso   1.000  H
  H4       1.0000 0.35100  0.51590  0.74620  Biso   1.000  H
  C5       1.0000 0.43680  0.37410  0.11080  Biso   1.000  C
  C6       1.0000 0.56320  0.62590  0.88920  Biso   1.000  C
  H5       1.0000 0.46930  0.35730  0.03910  Biso   1.000  H
  H6       1.0000 0.53070  0.64270  0.96090  Biso   1.000  H
  C7       1.0000 0.13180  0.19800  0.01890  Biso   1.000  C
  C8       1.0000 0.86820  0.80200  0.98110  Biso   1.000  C
  H7       1.0000 0.16030  0.11710  0.99520  Biso   1.000  H
  H8       1.0000 0.83970  0.88290  0.00480  Biso   1.000  H
  H9       1.0000 0.03990  0.15840  0.05430  Biso   1.000  H
  H10      1.0000 0.96010  0.84160  0.94570  Biso   1.000  H
  C9       1.0000 0.09050  0.26320  0.90680  Biso   1.000  C
  C10      1.0000 0.90950  0.73680  0.09320  Biso   1.000  C
  H11      1.0000 0.17930  0.29740  0.86780  Biso   1.000  H
  H12      1.0000 0.82070  0.70260  0.13220  Biso   1.000  H
  H13      1.0000 0.06640  0.34700  0.93060  Biso   1.000  H
  H14      1.0000 0.93360  0.65300  0.06940  Biso   1.000  H
  C11      1.0000 0.93100  0.12230  0.81420  Biso   1.000  C
  C12      1.0000 0.06900  0.87770  0.18580  Biso   1.000  C
  C13      1.0000 0.89140  0.20450  0.70930  Biso   1.000  C
  C14      1.0000 0.10860  0.79550  0.29070  Biso   1.000  C
  H15      1.0000 0.89810  0.30000  0.74830  Biso   1.000  H
  H16      1.0000 0.10190  0.70000  0.25170  Biso   1.000  H
  H17      1.0000 0.97270  0.22670  0.66300  Biso   1.000  H
  H18      1.0000 0.02730  0.77330  0.33700  Biso   1.000  H
  C15      1.0000 0.72300  0.11140  0.61780  Biso   1.000  C
  C16      1.0000 0.27700  0.88860  0.38220  Biso   1.000  C
  H19      1.0000 0.64150  0.09440  0.66360  Biso   1.000  H
  H20      1.0000 0.35850  0.90560  0.33640  Biso   1.000  H
  H21      1.0000 0.70330  0.16790  0.55390  Biso   1.000  H
  H22      1.0000 0.29670  0.83210  0.44610  Biso   1.000  H
  C17      1.0000 0.78110  0.94180  0.46990  Biso   1.000  C
  C18      1.0000 0.21890  0.05820  0.53010  Biso   1.000  C
  H23      1.0000 0.85640  0.01500  0.43950  Biso   1.000  H
  H24      1.0000 0.14360  0.98500  0.56050  Biso   1.000  H
  C19      1.0000 0.60630  0.82970  0.57200  Biso   1.000  C
  C20      1.0000 0.39370  0.17030  0.42800  Biso   1.000  C
  H25      1.0000 0.54010  0.81470  0.62620  Biso   1.000  H
  H26      1.0000 0.45990  0.18530  0.37380  Biso   1.000  H
  C21      1.0000 0.72780  0.79120  0.43960  Biso   1.000  C
  C22      1.0000 0.27220  0.20880  0.56040  Biso   1.000  C
  H27      1.0000 0.76140  0.74230  0.38360  Biso   1.000  H
  H28      1.0000 0.23860  0.25770  0.61640  Biso   1.000  H
  C23      1.0000 0.40740  0.78060  0.11000  Biso   1.000  C
  C24      1.0000 0.59260  0.21940  0.89000  Biso   1.000  C
  H29      1.0000 0.39430  0.71510  0.16640  Biso   1.000  H
  H30      1.0000 0.60570  0.28490  0.83360  Biso   1.000  H
  C25      1.0000 0.29350  0.73430  0.98850  Biso   1.000  C
  C26      1.0000 0.70650  0.26570  0.01150  Biso   1.000  C
  H31      1.0000 0.20510  0.63850  0.96570  Biso   1.000  H
  H32      1.0000 0.79490  0.36150  0.03430  Biso   1.000  H
  C27      1.0000 0.31020  0.82690  0.90410  Biso   1.000  C
  C28      1.0000 0.68980  0.17310  0.09590  Biso   1.000  C
  C29      1.0000 0.44230  0.97680  0.93850  Biso   1.000  C
  C30      1.0000 0.55770  0.02320  0.06150  Biso   1.000  C
  C31      1.0000 0.53670  0.92090  0.14520  Biso   1.000  C
  C32      1.0000 0.46330  0.07910  0.85480  Biso   1.000  C
  H33      1.0000 0.61240  0.95000  0.22520  Biso   1.000  H
  H34      1.0000 0.38760  0.05000  0.77480  Biso   1.000  H
  N1       1.0000 0.28140  0.33310  0.11600  Biso   1.000  N
  N2       1.0000 0.71860  0.66690  0.88400  Biso   1.000  N
  N3       1.0000 0.44130  0.44660  0.30810  Biso   1.000  N
  N4       1.0000 0.55870  0.55340  0.69190  Biso   1.000  N
  N5       1.0000 0.70220  0.96590  0.55450  Biso   1.000  N
  N6       1.0000 0.29780  0.03410  0.44550  Biso   1.000  N
  N7       1.0000 0.61710  0.71980  0.50300  Biso   1.000  N
  N8       1.0000 0.38290  0.28020  0.49700  Biso   1.000  N
  O1       1.0000 0.05600  0.60240  0.74690  Biso   1.000  O
  O2       1.0000 0.94400  0.39760  0.25310  Biso   1.000  O
  O3       1.0000 0.25960  0.77170  0.66040  Biso   1.000  O
  O4       1.0000 0.74040  0.22830  0.33960  Biso   1.000  O
  O5       1.0000 0.08160  0.85560  0.74190  Biso   1.000  O
  O6       1.0000 0.91840  0.14440  0.25810  Biso   1.000  O
  S1       1.0000 0.16398  0.75847  0.75061  Biso   1.000  S
  S2       1.0000 0.83602  0.24153  0.24939  Biso   1.000  S
  O7       1.0000 0.22950  0.52120  0.49000  Biso   1.000  O
  O8       1.0000 0.77050  0.47880  0.51000  Biso   1.000  O
  H35      1.0000 0.21700  0.58800  0.54200  Biso   1.000  H
  H36      1.0000 0.78300  0.41200  0.45800  Biso   1.000  H
  H37      1.0000 0.14400  0.48600  0.42000  Biso   1.000  H
  H38      1.0000 0.85600  0.51400  0.58000  Biso   1.000  H
  C33      1.0000 0.12840  0.30500  0.00570  Biso   1.000  C
  C34      1.0000 0.87160  0.69500  0.99430  Biso   1.000  C
  C35      1.0000 0.10490  0.16970  0.91860  Biso   1.000  C
  C36      1.0000 0.89510  0.83030  0.08140  Biso   1.000  C
  H39      1.0000 0.03320  0.28550  0.03620  Biso   1.000  H
  H40      1.0000 0.96680  0.71450  0.96380  Biso   1.000  H
  H41      1.0000 0.14940  0.39080  0.96450  Biso   1.000  H
  H42      1.0000 0.85060  0.60920  0.03550  Biso   1.000  H
  H43      1.0000 0.10070  0.08900  0.96350  Biso   1.000  H
  H44      1.0000 0.89930  0.91100  0.03650  Biso   1.000  H
  H45      1.0000 0.19290  0.19350  0.87880  Biso   1.000  H
  H46      1.0000 0.80710  0.80650  0.12120  Biso   1.000  H
