data_image0
_cell_length_a       29.854
_cell_length_b       5.3535
_cell_length_c       17.353
_cell_angle_alpha    90
_cell_angle_beta     118.686
_cell_angle_gamma    90

_symmetry_space_group_name_H-M    "P 1"
_symmetry_int_tables_number       1

loop_
  _symmetry_equiv_pos_as_xyz
  'x, y, z'

loop_
  _atom_site_label
  _atom_site_occupancy
  _atom_site_fract_x
  _atom_site_fract_y
  _atom_site_fract_z
  _atom_site_thermal_displace_type
  _atom_site_B_iso_or_equiv
  _atom_site_type_symbol
  Cu1      1.0000 0.00000  0.98462  0.25000  Biso   1.000  Cu
  Cu2      1.0000 0.50000  0.48462  0.25000  Biso   1.000  Cu
  Cu3      1.0000 0.00000  0.01538  0.75000  Biso   1.000  Cu
  Cu4      1.0000 0.50000  0.51538  0.75000  Biso   1.000  Cu
  O1       1.0000 0.98740  0.59880  0.10232  Biso   1.000  O
  O2       1.0000 0.01260  0.59880  0.39768  Biso   1.000  O
  O3       1.0000 0.48740  0.09880  0.10232  Biso   1.000  O
  O4       1.0000 0.51260  0.09880  0.39768  Biso   1.000  O
  O5       1.0000 0.01260  0.40120  0.89768  Biso   1.000  O
  O6       1.0000 0.98740  0.40120  0.60232  Biso   1.000  O
  O7       1.0000 0.51260  0.90120  0.89768  Biso   1.000  O
  O8       1.0000 0.48740  0.90120  0.60232  Biso   1.000  O
  O9       1.0000 0.23784  0.63280  0.58520  Biso   1.000  O
  O10      1.0000 0.76216  0.63280  0.91480  Biso   1.000  O
  O11      1.0000 0.73784  0.13280  0.58520  Biso   1.000  O
  O12      1.0000 0.26216  0.13280  0.91480  Biso   1.000  O
  O13      1.0000 0.76216  0.36720  0.41480  Biso   1.000  O
  O14      1.0000 0.23784  0.36720  0.08520  Biso   1.000  O
  O15      1.0000 0.26216  0.86720  0.41480  Biso   1.000  O
  O16      1.0000 0.73784  0.86720  0.08520  Biso   1.000  O
  O17      1.0000 0.00000  0.38630  0.25000  Biso   1.000  O
  O18      1.0000 0.50000  0.88630  0.25000  Biso   1.000  O
  O19      1.0000 0.00000  0.61370  0.75000  Biso   1.000  O
  O20      1.0000 0.50000  0.11370  0.75000  Biso   1.000  O
  H1       1.0000 0.99650  0.47100  0.20670  Biso   1.000  H
  H2       1.0000 0.00350  0.47100  0.29330  Biso   1.000  H
  H3       1.0000 0.49650  0.97100  0.20670  Biso   1.000  H
  H4       1.0000 0.50350  0.97100  0.29330  Biso   1.000  H
  H5       1.0000 0.00350  0.52900  0.79330  Biso   1.000  H
  H6       1.0000 0.99650  0.52900  0.70670  Biso   1.000  H
  H7       1.0000 0.50350  0.02900  0.79330  Biso   1.000  H
  H8       1.0000 0.49650  0.02900  0.70670  Biso   1.000  H
  O21      1.0000 0.01923  0.97490  0.15746  Biso   1.000  O
  O22      1.0000 0.98077  0.97490  0.34254  Biso   1.000  O
  O23      1.0000 0.51923  0.47490  0.15746  Biso   1.000  O
  O24      1.0000 0.48077  0.47490  0.34254  Biso   1.000  O
  O25      1.0000 0.98077  0.02510  0.84254  Biso   1.000  O
  O26      1.0000 0.01923  0.02510  0.65746  Biso   1.000  O
  O27      1.0000 0.48077  0.52510  0.84254  Biso   1.000  O
  O28      1.0000 0.51923  0.52510  0.65746  Biso   1.000  O
  N1       1.0000 0.34390  0.86210  0.83508  Biso   1.000  N
  N2       1.0000 0.65610  0.86210  0.66492  Biso   1.000  N
  N3       1.0000 0.84390  0.36210  0.83508  Biso   1.000  N
  N4       1.0000 0.15610  0.36210  0.66492  Biso   1.000  N
  N5       1.0000 0.65610  0.13790  0.16492  Biso   1.000  N
  N6       1.0000 0.34390  0.13790  0.33508  Biso   1.000  N
  N7       1.0000 0.15610  0.63790  0.16492  Biso   1.000  N
  N8       1.0000 0.84390  0.63790  0.33508  Biso   1.000  N
  N9       1.0000 0.24546  0.04960  0.61401  Biso   1.000  N
  N10      1.0000 0.75454  0.04960  0.88599  Biso   1.000  N
  N11      1.0000 0.74546  0.54960  0.61401  Biso   1.000  N
  N12      1.0000 0.25454  0.54960  0.88599  Biso   1.000  N
  N13      1.0000 0.75454  0.95040  0.38599  Biso   1.000  N
  N14      1.0000 0.24546  0.95040  0.11401  Biso   1.000  N
  N15      1.0000 0.25454  0.45040  0.38599  Biso   1.000  N
  N16      1.0000 0.74546  0.45040  0.11401  Biso   1.000  N
  H9       1.0000 0.23430  0.19900  0.59100  Biso   1.000  H
  H10      1.0000 0.76570  0.19900  0.90900  Biso   1.000  H
  H11      1.0000 0.73430  0.69900  0.59100  Biso   1.000  H
  H12      1.0000 0.26570  0.69900  0.90900  Biso   1.000  H
  H13      1.0000 0.76570  0.80100  0.40900  Biso   1.000  H
  H14      1.0000 0.23430  0.80100  0.09100  Biso   1.000  H
  H15      1.0000 0.26570  0.30100  0.40900  Biso   1.000  H
  H16      1.0000 0.73430  0.30100  0.09100  Biso   1.000  H
  N17      1.0000 0.07405  0.95730  0.34350  Biso   1.000  N
  N18      1.0000 0.92595  0.95730  0.15650  Biso   1.000  N
  N19      1.0000 0.57405  0.45730  0.34350  Biso   1.000  N
  N20      1.0000 0.42595  0.45730  0.15650  Biso   1.000  N
  N21      1.0000 0.92595  0.04270  0.65650  Biso   1.000  N
  N22      1.0000 0.07405  0.04270  0.84350  Biso   1.000  N
  N23      1.0000 0.42595  0.54270  0.65650  Biso   1.000  N
  N24      1.0000 0.57405  0.54270  0.84350  Biso   1.000  N
  C1       1.0000 0.37744  0.04590  0.85300  Biso   1.000  C
  C2       1.0000 0.62256  0.04590  0.64700  Biso   1.000  C
  C3       1.0000 0.87744  0.54590  0.85300  Biso   1.000  C
  C4       1.0000 0.12256  0.54590  0.64700  Biso   1.000  C
  C5       1.0000 0.62256  0.95410  0.14700  Biso   1.000  C
  C6       1.0000 0.37744  0.95410  0.35300  Biso   1.000  C
  C7       1.0000 0.12256  0.45410  0.14700  Biso   1.000  C
  C8       1.0000 0.87744  0.45410  0.35300  Biso   1.000  C
  H17      1.0000 0.40760  0.04480  0.90830  Biso   1.000  H
  H18      1.0000 0.59240  0.04480  0.59170  Biso   1.000  H
  H19      1.0000 0.90760  0.54480  0.90830  Biso   1.000  H
  H20      1.0000 0.09240  0.54480  0.59170  Biso   1.000  H
  H21      1.0000 0.59240  0.95520  0.09170  Biso   1.000  H
  H22      1.0000 0.40760  0.95520  0.40830  Biso   1.000  H
  H23      1.0000 0.09240  0.45520  0.09170  Biso   1.000  H
  H24      1.0000 0.90760  0.45520  0.40830  Biso   1.000  H
  C9       1.0000 0.37059  0.23720  0.79560  Biso   1.000  C
  C10      1.0000 0.62941  0.23720  0.70440  Biso   1.000  C
  C11      1.0000 0.87059  0.73720  0.79560  Biso   1.000  C
  C12      1.0000 0.12941  0.73720  0.70440  Biso   1.000  C
  C13      1.0000 0.62941  0.76280  0.20440  Biso   1.000  C
  C14      1.0000 0.37059  0.76280  0.29560  Biso   1.000  C
  C15      1.0000 0.12941  0.26280  0.20440  Biso   1.000  C
  C16      1.0000 0.87059  0.26280  0.29560  Biso   1.000  C
  H25      1.0000 0.39550  0.36520  0.81080  Biso   1.000  H
  H26      1.0000 0.60450  0.36520  0.68920  Biso   1.000  H
  H27      1.0000 0.89550  0.86520  0.81080  Biso   1.000  H
  H28      1.0000 0.10450  0.86520  0.68920  Biso   1.000  H
  H29      1.0000 0.60450  0.63480  0.18920  Biso   1.000  H
  H30      1.0000 0.39550  0.63480  0.31080  Biso   1.000  H
  H31      1.0000 0.10450  0.13480  0.18920  Biso   1.000  H
  H32      1.0000 0.89550  0.13480  0.31080  Biso   1.000  H
  C17      1.0000 0.32648  0.23910  0.71490  Biso   1.000  C
  C18      1.0000 0.67352  0.23910  0.78510  Biso   1.000  C
  C19      1.0000 0.82648  0.73910  0.71490  Biso   1.000  C
  C20      1.0000 0.17352  0.73910  0.78510  Biso   1.000  C
  C21      1.0000 0.67352  0.76090  0.28510  Biso   1.000  C
  C22      1.0000 0.32648  0.76090  0.21490  Biso   1.000  C
  C23      1.0000 0.17352  0.26090  0.28510  Biso   1.000  C
  C24      1.0000 0.82648  0.26090  0.21490  Biso   1.000  C
  H33      1.0000 0.32030  0.36980  0.67390  Biso   1.000  H
  H34      1.0000 0.67970  0.36980  0.82610  Biso   1.000  H
  H35      1.0000 0.82030  0.86980  0.67390  Biso   1.000  H
  H36      1.0000 0.17970  0.86980  0.82610  Biso   1.000  H
  H37      1.0000 0.67970  0.63020  0.32610  Biso   1.000  H
  H38      1.0000 0.32030  0.63020  0.17390  Biso   1.000  H
  H39      1.0000 0.17970  0.13020  0.32610  Biso   1.000  H
  H40      1.0000 0.82030  0.13020  0.17390  Biso   1.000  H
  C25      1.0000 0.30186  0.86430  0.75726  Biso   1.000  C
  C26      1.0000 0.69814  0.86430  0.74274  Biso   1.000  C
  C27      1.0000 0.80186  0.36430  0.75726  Biso   1.000  C
  C28      1.0000 0.19814  0.36430  0.74274  Biso   1.000  C
  C29      1.0000 0.69814  0.13570  0.24274  Biso   1.000  C
  C30      1.0000 0.30186  0.13570  0.25726  Biso   1.000  C
  C31      1.0000 0.19814  0.63570  0.24274  Biso   1.000  C
  C32      1.0000 0.80186  0.63570  0.25726  Biso   1.000  C
  H41      1.0000 0.27770  0.73350  0.74380  Biso   1.000  H
  H42      1.0000 0.72230  0.73350  0.75620  Biso   1.000  H
  H43      1.0000 0.77770  0.23350  0.74380  Biso   1.000  H
  H44      1.0000 0.22230  0.23350  0.75620  Biso   1.000  H
  H45      1.0000 0.72230  0.26650  0.25620  Biso   1.000  H
  H46      1.0000 0.27770  0.26650  0.24380  Biso   1.000  H
  H47      1.0000 0.22230  0.76650  0.25620  Biso   1.000  H
  H48      1.0000 0.77770  0.76650  0.24380  Biso   1.000  H
  C33      1.0000 0.29173  0.04790  0.69522  Biso   1.000  C
  C34      1.0000 0.70827  0.04790  0.80478  Biso   1.000  C
  C35      1.0000 0.79173  0.54790  0.69522  Biso   1.000  C
  C36      1.0000 0.20827  0.54790  0.80478  Biso   1.000  C
  C37      1.0000 0.70827  0.95210  0.30478  Biso   1.000  C
  C38      1.0000 0.29173  0.95210  0.19522  Biso   1.000  C
  C39      1.0000 0.20827  0.45210  0.30478  Biso   1.000  C
  C40      1.0000 0.79173  0.45210  0.19522  Biso   1.000  C
  C41      1.0000 0.16993  0.89460  0.48796  Biso   1.000  C
  C42      1.0000 0.83007  0.89460  0.01204  Biso   1.000  C
  C43      1.0000 0.66993  0.39460  0.48796  Biso   1.000  C
  C44      1.0000 0.33007  0.39460  0.01204  Biso   1.000  C
  C45      1.0000 0.83007  0.10540  0.51204  Biso   1.000  C
  C46      1.0000 0.16993  0.10540  0.98796  Biso   1.000  C
  C47      1.0000 0.33007  0.60540  0.51204  Biso   1.000  C
  C48      1.0000 0.66993  0.60540  0.98796  Biso   1.000  C
  C49      1.0000 0.09141  0.11500  0.41137  Biso   1.000  C
  C50      1.0000 0.90859  0.11500  0.08863  Biso   1.000  C
  C51      1.0000 0.59141  0.61500  0.41137  Biso   1.000  C
  C52      1.0000 0.40859  0.61500  0.08863  Biso   1.000  C
  C53      1.0000 0.90859  0.88500  0.58863  Biso   1.000  C
  C54      1.0000 0.09141  0.88500  0.91137  Biso   1.000  C
  C55      1.0000 0.40859  0.38500  0.58863  Biso   1.000  C
  C56      1.0000 0.59141  0.38500  0.91137  Biso   1.000  C
  H49      1.0000 0.07020  0.24980  0.40940  Biso   1.000  H
  H50      1.0000 0.92980  0.24980  0.09060  Biso   1.000  H
  H51      1.0000 0.57020  0.74980  0.40940  Biso   1.000  H
  H52      1.0000 0.42980  0.74980  0.09060  Biso   1.000  H
  H53      1.0000 0.92980  0.75020  0.59060  Biso   1.000  H
  H54      1.0000 0.07020  0.75020  0.90940  Biso   1.000  H
  H55      1.0000 0.42980  0.25020  0.59060  Biso   1.000  H
  H56      1.0000 0.57020  0.25020  0.90940  Biso   1.000  H
  C57      1.0000 0.15215  0.73070  0.41788  Biso   1.000  C
  C58      1.0000 0.84785  0.73070  0.08212  Biso   1.000  C
  C59      1.0000 0.65215  0.23070  0.41788  Biso   1.000  C
  C60      1.0000 0.34785  0.23070  0.08212  Biso   1.000  C
  C61      1.0000 0.84785  0.26930  0.58212  Biso   1.000  C
  C62      1.0000 0.15215  0.26930  0.91788  Biso   1.000  C
  C63      1.0000 0.34785  0.76930  0.58212  Biso   1.000  C
  C64      1.0000 0.65215  0.76930  0.91788  Biso   1.000  C
  H57      1.0000 0.17250  0.59330  0.41880  Biso   1.000  H
  H58      1.0000 0.82750  0.59330  0.08120  Biso   1.000  H
  H59      1.0000 0.67250  0.09330  0.41880  Biso   1.000  H
  H60      1.0000 0.32750  0.09330  0.08120  Biso   1.000  H
  H61      1.0000 0.82750  0.40670  0.58120  Biso   1.000  H
  H62      1.0000 0.17250  0.40670  0.91880  Biso   1.000  H
  H63      1.0000 0.32750  0.90670  0.58120  Biso   1.000  H
  H64      1.0000 0.67250  0.90670  0.91880  Biso   1.000  H
  C65      1.0000 0.13897  0.09060  0.48445  Biso   1.000  C
  C66      1.0000 0.86103  0.09060  0.01555  Biso   1.000  C
  C67      1.0000 0.63897  0.59060  0.48445  Biso   1.000  C
  C68      1.0000 0.36103  0.59060  0.01555  Biso   1.000  C
  C69      1.0000 0.86103  0.90940  0.51555  Biso   1.000  C
  C70      1.0000 0.13897  0.90940  0.98445  Biso   1.000  C
  C71      1.0000 0.36103  0.40940  0.51555  Biso   1.000  C
  C72      1.0000 0.63897  0.40940  0.98445  Biso   1.000  C
  H65      1.0000 0.15020  0.20680  0.53150  Biso   1.000  H
  H66      1.0000 0.84980  0.20680  0.96850  Biso   1.000  H
  H67      1.0000 0.65020  0.70680  0.53150  Biso   1.000  H
  H68      1.0000 0.34980  0.70680  0.96850  Biso   1.000  H
  H69      1.0000 0.84980  0.79320  0.46850  Biso   1.000  H
  H70      1.0000 0.15020  0.79320  0.03150  Biso   1.000  H
  H71      1.0000 0.34980  0.29320  0.46850  Biso   1.000  H
  H72      1.0000 0.65020  0.29320  0.03150  Biso   1.000  H
  C73      1.0000 0.10459  0.76860  0.34665  Biso   1.000  C
  C74      1.0000 0.89541  0.76860  0.15335  Biso   1.000  C
  C75      1.0000 0.60459  0.26860  0.34665  Biso   1.000  C
  C76      1.0000 0.39541  0.26860  0.15335  Biso   1.000  C
  C77      1.0000 0.89541  0.23140  0.65335  Biso   1.000  C
  C78      1.0000 0.10459  0.23140  0.84665  Biso   1.000  C
  C79      1.0000 0.39541  0.73140  0.65335  Biso   1.000  C
  C80      1.0000 0.60459  0.73140  0.84665  Biso   1.000  C
  H73      1.0000 0.09300  0.65750  0.29810  Biso   1.000  H
  H74      1.0000 0.90700  0.65750  0.20190  Biso   1.000  H
  H75      1.0000 0.59300  0.15750  0.29810  Biso   1.000  H
  H76      1.0000 0.40700  0.15750  0.20190  Biso   1.000  H
  H77      1.0000 0.90700  0.34250  0.70190  Biso   1.000  H
  H78      1.0000 0.09300  0.34250  0.79810  Biso   1.000  H
  H79      1.0000 0.40700  0.84250  0.70190  Biso   1.000  H
  H80      1.0000 0.59300  0.84250  0.79810  Biso   1.000  H
  C81      1.0000 0.00282  0.81030  0.09670  Biso   1.000  C
  C82      1.0000 0.99718  0.81030  0.40330  Biso   1.000  C
  C83      1.0000 0.50282  0.31030  0.09670  Biso   1.000  C
  C84      1.0000 0.49718  0.31030  0.40330  Biso   1.000  C
  C85      1.0000 0.99718  0.18970  0.90330  Biso   1.000  C
  C86      1.0000 0.00282  0.18970  0.59670  Biso   1.000  C
  C87      1.0000 0.49718  0.68970  0.90330  Biso   1.000  C
  C88      1.0000 0.50282  0.68970  0.59670  Biso   1.000  C
  C89      1.0000 0.00079  0.88230  0.01221  Biso   1.000  C
  C90      1.0000 0.99921  0.88230  0.48779  Biso   1.000  C
  C91      1.0000 0.50079  0.38230  0.01221  Biso   1.000  C
  C92      1.0000 0.49921  0.38230  0.48779  Biso   1.000  C
  C93      1.0000 0.99921  0.11770  0.98779  Biso   1.000  C
  C94      1.0000 0.00079  0.11770  0.51221  Biso   1.000  C
  C95      1.0000 0.49921  0.61770  0.98779  Biso   1.000  C
  C96      1.0000 0.50079  0.61770  0.51221  Biso   1.000  C
  H81      1.0000 0.00060  0.75400  0.97430  Biso   1.000  H
  H82      1.0000 0.99940  0.75400  0.52570  Biso   1.000  H
  H83      1.0000 0.50060  0.25400  0.97430  Biso   1.000  H
  H84      1.0000 0.49940  0.25400  0.52570  Biso   1.000  H
  H85      1.0000 0.99940  0.24600  0.02570  Biso   1.000  H
  H86      1.0000 0.00060  0.24600  0.47430  Biso   1.000  H
  H87      1.0000 0.49940  0.74600  0.02570  Biso   1.000  H
  H88      1.0000 0.50060  0.74600  0.47430  Biso   1.000  H
  C97      1.0000 0.22077  0.84470  0.56670  Biso   1.000  C
  C98      1.0000 0.77923  0.84470  0.93330  Biso   1.000  C
  C99      1.0000 0.72077  0.34470  0.56670  Biso   1.000  C
  C100     1.0000 0.27923  0.34470  0.93330  Biso   1.000  C
  C101     1.0000 0.77923  0.15530  0.43330  Biso   1.000  C
  C102     1.0000 0.22077  0.15530  0.06670  Biso   1.000  C
  C103     1.0000 0.27923  0.65530  0.43330  Biso   1.000  C
  C104     1.0000 0.72077  0.65530  0.06670  Biso   1.000  C
