data_image0
_cell_length_a       8.851
_cell_length_b       9.139
_cell_length_c       12.458
_cell_angle_alpha    72.19
_cell_angle_beta     77.68
_cell_angle_gamma    78.69

_symmetry_space_group_name_H-M    "P 1"
_symmetry_int_tables_number       1

loop_
  _symmetry_equiv_pos_as_xyz
  'x, y, z'

loop_
  _atom_site_label
  _atom_site_occupancy
  _atom_site_fract_x
  _atom_site_fract_y
  _atom_site_fract_z
  _atom_site_thermal_displace_type
  _atom_site_B_iso_or_equiv
  _atom_site_type_symbol
  Cu1      1.0000 0.27702  0.27166  0.12226  Biso   1.000  Cu
  Cu2      1.0000 0.72298  0.72834  0.87774  Biso   1.000  Cu
  K1       1.0000 0.03569  0.65451  0.05460  Biso   1.000  K
  K2       1.0000 0.96431  0.34549  0.94540  Biso   1.000  K
  O1       1.0000 0.24260  0.42670  0.98529  Biso   1.000  O
  O2       1.0000 0.75740  0.57330  0.01471  Biso   1.000  O
  O3       1.0000 0.09170  0.37080  0.20129  Biso   1.000  O
  O4       1.0000 0.90830  0.62920  0.79871  Biso   1.000  O
  N1       1.0000 0.30050  0.09900  0.25740  Biso   1.000  N
  N2       1.0000 0.69950  0.90100  0.74260  Biso   1.000  N
  N3       1.0000 0.48020  0.18430  0.05990  Biso   1.000  N
  N4       1.0000 0.51980  0.81570  0.94010  Biso   1.000  N
  C1       1.0000 0.35460  0.46890  0.89670  Biso   1.000  C
  C2       1.0000 0.64540  0.53110  0.10330  Biso   1.000  C
  C3       1.0000 0.51100  0.39220  0.88500  Biso   1.000  C
  C4       1.0000 0.48900  0.60780  0.11500  Biso   1.000  C
  O5       1.0000 0.72030  0.20100  0.94990  Biso   1.000  O
  O6       1.0000 0.27970  0.79900  0.05010  Biso   1.000  O
  C5       1.0000 0.04550  0.33770  0.31100  Biso   1.000  C
  C6       1.0000 0.95450  0.66230  0.68900  Biso   1.000  C
  C7       1.0000 0.92680  0.44380  0.35690  Biso   1.000  C
  C8       1.0000 0.07320  0.55620  0.64310  Biso   1.000  C
  C9       1.0000 0.22690  0.08940  0.35830  Biso   1.000  C
  C10      1.0000 0.77310  0.91060  0.64170  Biso   1.000  C
  H1       1.0000 0.25560  0.00120  0.41530  Biso   1.000  H
  H2       1.0000 0.74440  0.99880  0.58470  Biso   1.000  H
  C11      1.0000 0.61380  0.45290  0.78490  Biso   1.000  C
  C12      1.0000 0.38620  0.54710  0.21510  Biso   1.000  C
  H3       1.0000 0.71630  0.40380  0.77590  Biso   1.000  H
  H4       1.0000 0.28370  0.59620  0.22410  Biso   1.000  H
  C13      1.0000 0.42030  0.97540  0.23030  Biso   1.000  C
  C14      1.0000 0.57970  0.02460  0.76970  Biso   1.000  C
  H5       1.0000 0.37580  0.90950  0.20100  Biso   1.000  H
  H6       1.0000 0.62420  0.09050  0.79900  Biso   1.000  H
  H7       1.0000 0.46130  0.91210  0.29870  Biso   1.000  H
  H8       1.0000 0.53870  0.08790  0.70130  Biso   1.000  H
  C15      1.0000 0.57540  0.25100  0.96930  Biso   1.000  C
  C16      1.0000 0.42460  0.74900  0.03070  Biso   1.000  C
  C17      1.0000 0.10320  0.20260  0.39250  Biso   1.000  C
  C18      1.0000 0.89680  0.79740  0.60750  Biso   1.000  C
  C19      1.0000 0.92100  0.27700  0.54710  Biso   1.000  C
  C20      1.0000 0.07900  0.72300  0.45290  Biso   1.000  C
  H9       1.0000 0.87790  0.25570  0.62430  Biso   1.000  H
  H10      1.0000 0.12210  0.74430  0.37570  Biso   1.000  H
  C21      1.0000 0.31350  0.60040  0.80870  Biso   1.000  C
  C22      1.0000 0.68650  0.39960  0.19130  Biso   1.000  C
  H11      1.0000 0.21200  0.65240  0.81600  Biso   1.000  H
  H12      1.0000 0.78800  0.34760  0.18400  Biso   1.000  H
  C23      1.0000 0.56990  0.58140  0.69990  Biso   1.000  C
  C24      1.0000 0.43010  0.41860  0.30010  Biso   1.000  C
  H13      1.0000 0.64150  0.61790  0.63500  Biso   1.000  H
  H14      1.0000 0.35850  0.38210  0.36500  Biso   1.000  H
  C25      1.0000 0.55010  0.04810  0.14140  Biso   1.000  C
  C26      1.0000 0.44990  0.95190  0.85860  Biso   1.000  C
  H15      1.0000 0.62020  0.07910  0.17800  Biso   1.000  H
  H16      1.0000 0.37980  0.92090  0.82200  Biso   1.000  H
  H17      1.0000 0.60980  0.97360  0.10170  Biso   1.000  H
  H18      1.0000 0.39020  0.02640  0.89830  Biso   1.000  H
  C27      1.0000 0.03930  0.17550  0.50880  Biso   1.000  C
  C28      1.0000 0.96070  0.82450  0.49120  Biso   1.000  C
  H19      1.0000 0.07840  0.08650  0.56080  Biso   1.000  H
  H20      1.0000 0.92160  0.91350  0.43920  Biso   1.000  H
  C29      1.0000 0.86530  0.41250  0.46990  Biso   1.000  C
  C30      1.0000 0.13470  0.58750  0.53010  Biso   1.000  C
  H21      1.0000 0.78520  0.48230  0.49580  Biso   1.000  H
  H22      1.0000 0.21480  0.51770  0.50420  Biso   1.000  H
  C31      1.0000 0.41830  0.65520  0.71210  Biso   1.000  C
  C32      1.0000 0.58170  0.34480  0.28790  Biso   1.000  C
  H23      1.0000 0.38680  0.74210  0.65510  Biso   1.000  H
  H24      1.0000 0.61320  0.25790  0.34490  Biso   1.000  H
  C33      1.0000 0.74670  0.67610  0.30770  Biso   1.000  C
  C34      1.0000 0.25330  0.32390  0.69230  Biso   1.000  C
  H25      1.0000 0.66040  0.61780  0.33500  Biso   1.000  H
  H26      1.0000 0.33960  0.38220  0.66500  Biso   1.000  H
  H27      1.0000 0.72490  0.76120  0.24270  Biso   1.000  H
  H28      1.0000 0.27510  0.23880  0.75730  Biso   1.000  H
  H29      1.0000 0.76230  0.71540  0.36720  Biso   1.000  H
  H30      1.0000 0.23770  0.28460  0.63280  Biso   1.000  H
  O7       1.0000 0.88410  0.57820  0.27564  Biso   1.000  O
  O8       1.0000 0.11590  0.42180  0.72436  Biso   1.000  O
  O9       1.0000 0.88870  0.92680  0.93061  Biso   1.000  O
  O10      1.0000 0.11130  0.07320  0.06939  Biso   1.000  O
  C35      1.0000 0.00080  0.98550  0.83650  Biso   1.000  C
  C36      1.0000 0.99920  0.01450  0.16350  Biso   1.000  C
  H31      1.0000 0.95530  0.08160  0.78970  Biso   1.000  H
  H32      1.0000 0.04470  0.91840  0.21030  Biso   1.000  H
  H33      1.0000 0.03580  0.91190  0.79240  Biso   1.000  H
  H34      1.0000 0.96420  0.08810  0.20760  Biso   1.000  H
  H35      1.0000 0.08800  0.00310  0.86310  Biso   1.000  H
  H36      1.0000 0.91200  0.99690  0.13690  Biso   1.000  H
  H37      1.0000 0.83340  0.99960  0.95690  Biso   1.000  H
  H38      1.0000 0.16660  0.00040  0.04310  Biso   1.000  H
