data_image0
_cell_length_a       18.764
_cell_length_b       17.769
_cell_length_c       14.749
_cell_angle_alpha    90
_cell_angle_beta     117.841
_cell_angle_gamma    90

_symmetry_space_group_name_H-M    "P 1"
_symmetry_int_tables_number       1

loop_
  _symmetry_equiv_pos_as_xyz
  'x, y, z'

loop_
  _atom_site_label
  _atom_site_occupancy
  _atom_site_fract_x
  _atom_site_fract_y
  _atom_site_fract_z
  _atom_site_thermal_displace_type
  _atom_site_B_iso_or_equiv
  _atom_site_type_symbol
  O1       1.0000 0.30675  0.50921  0.76751  Biso   1.000  O
  O2       1.0000 0.69325  0.50921  0.73249  Biso   1.000  O
  O3       1.0000 0.80675  0.00921  0.76751  Biso   1.000  O
  O4       1.0000 0.19325  0.00921  0.73249  Biso   1.000  O
  O5       1.0000 0.69325  0.49079  0.23249  Biso   1.000  O
  O6       1.0000 0.30675  0.49079  0.26751  Biso   1.000  O
  O7       1.0000 0.19325  0.99079  0.23249  Biso   1.000  O
  O8       1.0000 0.80675  0.99079  0.26751  Biso   1.000  O
  O9       1.0000 0.39382  0.57136  0.73500  Biso   1.000  O
  O10      1.0000 0.60618  0.57136  0.76500  Biso   1.000  O
  O11      1.0000 0.89382  0.07136  0.73500  Biso   1.000  O
  O12      1.0000 0.10618  0.07136  0.76500  Biso   1.000  O
  O13      1.0000 0.60618  0.42864  0.26500  Biso   1.000  O
  O14      1.0000 0.39382  0.42864  0.23500  Biso   1.000  O
  O15      1.0000 0.10618  0.92864  0.26500  Biso   1.000  O
  O16      1.0000 0.89382  0.92864  0.23500  Biso   1.000  O
  O17      1.0000 0.28153  0.44917  0.57070  Biso   1.000  O
  O18      1.0000 0.71847  0.44917  0.92930  Biso   1.000  O
  O19      1.0000 0.78153  0.94917  0.57070  Biso   1.000  O
  O20      1.0000 0.21847  0.94917  0.92930  Biso   1.000  O
  O21      1.0000 0.71847  0.55083  0.42930  Biso   1.000  O
  O22      1.0000 0.28153  0.55083  0.07070  Biso   1.000  O
  O23      1.0000 0.21847  0.05083  0.42930  Biso   1.000  O
  O24      1.0000 0.78153  0.05083  0.07070  Biso   1.000  O
  O25      1.0000 0.17330  0.41283  0.58210  Biso   1.000  O
  O26      1.0000 0.82670  0.41283  0.91790  Biso   1.000  O
  O27      1.0000 0.67330  0.91283  0.58210  Biso   1.000  O
  O28      1.0000 0.32670  0.91283  0.91790  Biso   1.000  O
  O29      1.0000 0.82670  0.58717  0.41790  Biso   1.000  O
  O30      1.0000 0.17330  0.58717  0.08210  Biso   1.000  O
  O31      1.0000 0.32670  0.08717  0.41790  Biso   1.000  O
  O32      1.0000 0.67330  0.08717  0.08210  Biso   1.000  O
  N1       1.0000 0.20944  0.59243  0.48620  Biso   1.000  N
  N2       1.0000 0.79056  0.59243  0.01380  Biso   1.000  N
  N3       1.0000 0.70944  0.09243  0.48620  Biso   1.000  N
  N4       1.0000 0.29056  0.09243  0.01380  Biso   1.000  N
  N5       1.0000 0.79056  0.40757  0.51380  Biso   1.000  N
  N6       1.0000 0.20944  0.40757  0.98620  Biso   1.000  N
  N7       1.0000 0.29056  0.90757  0.51380  Biso   1.000  N
  N8       1.0000 0.70944  0.90757  0.98620  Biso   1.000  N
  N9       1.0000 0.19708  0.62594  0.65130  Biso   1.000  N
  N10      1.0000 0.80292  0.62594  0.84870  Biso   1.000  N
  N11      1.0000 0.69708  0.12594  0.65130  Biso   1.000  N
  N12      1.0000 0.30292  0.12594  0.84870  Biso   1.000  N
  N13      1.0000 0.80292  0.37406  0.34870  Biso   1.000  N
  N14      1.0000 0.19708  0.37406  0.15130  Biso   1.000  N
  N15      1.0000 0.30292  0.87406  0.34870  Biso   1.000  N
  N16      1.0000 0.69708  0.87406  0.15130  Biso   1.000  N
  C1       1.0000 0.37680  0.53507  0.79360  Biso   1.000  C
  C2       1.0000 0.62320  0.53507  0.70640  Biso   1.000  C
  C3       1.0000 0.87680  0.03507  0.79360  Biso   1.000  C
  C4       1.0000 0.12320  0.03507  0.70640  Biso   1.000  C
  C5       1.0000 0.62320  0.46493  0.20640  Biso   1.000  C
  C6       1.0000 0.37680  0.46493  0.29360  Biso   1.000  C
  C7       1.0000 0.12320  0.96493  0.20640  Biso   1.000  C
  C8       1.0000 0.87680  0.96493  0.29360  Biso   1.000  C
  C9       1.0000 0.44090  0.51817  0.90150  Biso   1.000  C
  C10      1.0000 0.55910  0.51817  0.59850  Biso   1.000  C
  C11      1.0000 0.94090  0.01817  0.90150  Biso   1.000  C
  C12      1.0000 0.05910  0.01817  0.59850  Biso   1.000  C
  C13      1.0000 0.55910  0.48183  0.09850  Biso   1.000  C
  C14      1.0000 0.44090  0.48183  0.40150  Biso   1.000  C
  C15      1.0000 0.05910  0.98183  0.09850  Biso   1.000  C
  C16      1.0000 0.94090  0.98183  0.40150  Biso   1.000  C
  C17      1.0000 0.42110  0.50790  0.98070  Biso   1.000  C
  C18      1.0000 0.57890  0.50790  0.51930  Biso   1.000  C
  C19      1.0000 0.92110  0.00790  0.98070  Biso   1.000  C
  C20      1.0000 0.07890  0.00790  0.51930  Biso   1.000  C
  C21      1.0000 0.57890  0.49210  0.01930  Biso   1.000  C
  C22      1.0000 0.42110  0.49210  0.48070  Biso   1.000  C
  C23      1.0000 0.07890  0.99210  0.01930  Biso   1.000  C
  C24      1.0000 0.92110  0.99210  0.48070  Biso   1.000  C
  H1       1.0000 0.36790  0.51390  0.96770  Biso   1.000  H
  H2       1.0000 0.63210  0.51390  0.53230  Biso   1.000  H
  H3       1.0000 0.86790  0.01390  0.96770  Biso   1.000  H
  H4       1.0000 0.13210  0.01390  0.53230  Biso   1.000  H
  H5       1.0000 0.63210  0.48610  0.03230  Biso   1.000  H
  H6       1.0000 0.36790  0.48610  0.46770  Biso   1.000  H
  H7       1.0000 0.13210  0.98610  0.03230  Biso   1.000  H
  H8       1.0000 0.86790  0.98610  0.46770  Biso   1.000  H
  C25      1.0000 0.52040  0.51120  0.92100  Biso   1.000  C
  C26      1.0000 0.47960  0.51120  0.57900  Biso   1.000  C
  C27      1.0000 0.02040  0.01120  0.92100  Biso   1.000  C
  C28      1.0000 0.97960  0.01120  0.57900  Biso   1.000  C
  C29      1.0000 0.47960  0.48880  0.07900  Biso   1.000  C
  C30      1.0000 0.52040  0.48880  0.42100  Biso   1.000  C
  C31      1.0000 0.97960  0.98880  0.07900  Biso   1.000  C
  C32      1.0000 0.02040  0.98880  0.42100  Biso   1.000  C
  H9       1.0000 0.53440  0.51920  0.86900  Biso   1.000  H
  H10      1.0000 0.46560  0.51920  0.63100  Biso   1.000  H
  H11      1.0000 0.03440  0.01920  0.86900  Biso   1.000  H
  H12      1.0000 0.96560  0.01920  0.63100  Biso   1.000  H
  H13      1.0000 0.46560  0.48080  0.13100  Biso   1.000  H
  H14      1.0000 0.53440  0.48080  0.36900  Biso   1.000  H
  H15      1.0000 0.96560  0.98080  0.13100  Biso   1.000  H
  H16      1.0000 0.03440  0.98080  0.36900  Biso   1.000  H
  C33      1.0000 0.22960  0.39980  0.56240  Biso   1.000  C
  C34      1.0000 0.77040  0.39980  0.93760  Biso   1.000  C
  C35      1.0000 0.72960  0.89980  0.56240  Biso   1.000  C
  C36      1.0000 0.27040  0.89980  0.93760  Biso   1.000  C
  C37      1.0000 0.77040  0.60020  0.43760  Biso   1.000  C
  C38      1.0000 0.22960  0.60020  0.06240  Biso   1.000  C
  C39      1.0000 0.27040  0.10020  0.43760  Biso   1.000  C
  C40      1.0000 0.72960  0.10020  0.06240  Biso   1.000  C
  C41      1.0000 0.24010  0.32250  0.52880  Biso   1.000  C
  C42      1.0000 0.75990  0.32250  0.97120  Biso   1.000  C
  C43      1.0000 0.74010  0.82250  0.52880  Biso   1.000  C
  C44      1.0000 0.25990  0.82250  0.97120  Biso   1.000  C
  C45      1.0000 0.75990  0.67750  0.47120  Biso   1.000  C
  C46      1.0000 0.24010  0.67750  0.02880  Biso   1.000  C
  C47      1.0000 0.25990  0.17750  0.47120  Biso   1.000  C
  C48      1.0000 0.74010  0.17750  0.02880  Biso   1.000  C
  C49      1.0000 0.30780  0.30490  0.51860  Biso   1.000  C
  C50      1.0000 0.69220  0.30490  0.98140  Biso   1.000  C
  C51      1.0000 0.80780  0.80490  0.51860  Biso   1.000  C
  C52      1.0000 0.19220  0.80490  0.98140  Biso   1.000  C
  C53      1.0000 0.69220  0.69510  0.48140  Biso   1.000  C
  C54      1.0000 0.30780  0.69510  0.01860  Biso   1.000  C
  C55      1.0000 0.19220  0.19510  0.48140  Biso   1.000  C
  C56      1.0000 0.80780  0.19510  0.01860  Biso   1.000  C
  H17      1.0000 0.34660  0.34160  0.53050  Biso   1.000  H
  H18      1.0000 0.65340  0.34160  0.96950  Biso   1.000  H
  H19      1.0000 0.84660  0.84160  0.53050  Biso   1.000  H
  H20      1.0000 0.15340  0.84160  0.96950  Biso   1.000  H
  H21      1.0000 0.65340  0.65840  0.46950  Biso   1.000  H
  H22      1.0000 0.34660  0.65840  0.03050  Biso   1.000  H
  H23      1.0000 0.15340  0.15840  0.46950  Biso   1.000  H
  H24      1.0000 0.84660  0.15840  0.03050  Biso   1.000  H
  C57      1.0000 0.18160  0.26710  0.50920  Biso   1.000  C
  C58      1.0000 0.81840  0.26710  0.99080  Biso   1.000  C
  C59      1.0000 0.68160  0.76710  0.50920  Biso   1.000  C
  C60      1.0000 0.31840  0.76710  0.99080  Biso   1.000  C
  C61      1.0000 0.81840  0.73290  0.49080  Biso   1.000  C
  C62      1.0000 0.18160  0.73290  0.00920  Biso   1.000  C
  C63      1.0000 0.31840  0.23290  0.49080  Biso   1.000  C
  C64      1.0000 0.68160  0.23290  0.00920  Biso   1.000  C
  H25      1.0000 0.13550  0.27870  0.51490  Biso   1.000  H
  H26      1.0000 0.86450  0.27870  0.98510  Biso   1.000  H
  H27      1.0000 0.63550  0.77870  0.51490  Biso   1.000  H
  H28      1.0000 0.36450  0.77870  0.98510  Biso   1.000  H
  H29      1.0000 0.86450  0.72130  0.48510  Biso   1.000  H
  H30      1.0000 0.13550  0.72130  0.01490  Biso   1.000  H
  H31      1.0000 0.36450  0.22130  0.48510  Biso   1.000  H
  H32      1.0000 0.63550  0.22130  0.01490  Biso   1.000  H
  C65      1.0000 0.21530  0.57300  0.40360  Biso   1.000  C
  C66      1.0000 0.78470  0.57300  0.09640  Biso   1.000  C
  C67      1.0000 0.71530  0.07300  0.40360  Biso   1.000  C
  C68      1.0000 0.28470  0.07300  0.09640  Biso   1.000  C
  C69      1.0000 0.78470  0.42700  0.59640  Biso   1.000  C
  C70      1.0000 0.21530  0.42700  0.90360  Biso   1.000  C
  C71      1.0000 0.28470  0.92700  0.59640  Biso   1.000  C
  C72      1.0000 0.71530  0.92700  0.90360  Biso   1.000  C
  H33      1.0000 0.23740  0.52640  0.40240  Biso   1.000  H
  H34      1.0000 0.76260  0.52640  0.09760  Biso   1.000  H
  H35      1.0000 0.73740  0.02640  0.40240  Biso   1.000  H
  H36      1.0000 0.26260  0.02640  0.09760  Biso   1.000  H
  H37      1.0000 0.76260  0.47360  0.59760  Biso   1.000  H
  H38      1.0000 0.23740  0.47360  0.90240  Biso   1.000  H
  H39      1.0000 0.26260  0.97360  0.59760  Biso   1.000  H
  H40      1.0000 0.73740  0.97360  0.90240  Biso   1.000  H
  C73      1.0000 0.18960  0.61970  0.31790  Biso   1.000  C
  C74      1.0000 0.81040  0.61970  0.18210  Biso   1.000  C
  C75      1.0000 0.68960  0.11970  0.31790  Biso   1.000  C
  C76      1.0000 0.31040  0.11970  0.18210  Biso   1.000  C
  C77      1.0000 0.81040  0.38030  0.68210  Biso   1.000  C
  C78      1.0000 0.18960  0.38030  0.81790  Biso   1.000  C
  C79      1.0000 0.31040  0.88030  0.68210  Biso   1.000  C
  C80      1.0000 0.68960  0.88030  0.81790  Biso   1.000  C
  H41      1.0000 0.19560  0.60400  0.26170  Biso   1.000  H
  H42      1.0000 0.80440  0.60400  0.23830  Biso   1.000  H
  H43      1.0000 0.69560  0.10400  0.26170  Biso   1.000  H
  H44      1.0000 0.30440  0.10400  0.23830  Biso   1.000  H
  H45      1.0000 0.80440  0.39600  0.73830  Biso   1.000  H
  H46      1.0000 0.19560  0.39600  0.76170  Biso   1.000  H
  H47      1.0000 0.30440  0.89600  0.73830  Biso   1.000  H
  H48      1.0000 0.69560  0.89600  0.76170  Biso   1.000  H
  C81      1.0000 0.15570  0.68850  0.31550  Biso   1.000  C
  C82      1.0000 0.84430  0.68850  0.18450  Biso   1.000  C
  C83      1.0000 0.65570  0.18850  0.31550  Biso   1.000  C
  C84      1.0000 0.34430  0.18850  0.18450  Biso   1.000  C
  C85      1.0000 0.84430  0.31150  0.68450  Biso   1.000  C
  C86      1.0000 0.15570  0.31150  0.81550  Biso   1.000  C
  C87      1.0000 0.34430  0.81150  0.68450  Biso   1.000  C
  C88      1.0000 0.65570  0.81150  0.81550  Biso   1.000  C
  C89      1.0000 0.12700  0.73870  0.22390  Biso   1.000  C
  C90      1.0000 0.87300  0.73870  0.27610  Biso   1.000  C
  C91      1.0000 0.62700  0.23870  0.22390  Biso   1.000  C
  C92      1.0000 0.37300  0.23870  0.27610  Biso   1.000  C
  C93      1.0000 0.87300  0.26130  0.77610  Biso   1.000  C
  C94      1.0000 0.12700  0.26130  0.72390  Biso   1.000  C
  C95      1.0000 0.37300  0.76130  0.77610  Biso   1.000  C
  C96      1.0000 0.62700  0.76130  0.72390  Biso   1.000  C
  H49      1.0000 0.14540  0.71950  0.17760  Biso   1.000  H
  H50      1.0000 0.85460  0.71950  0.32240  Biso   1.000  H
  H51      1.0000 0.64540  0.21950  0.17760  Biso   1.000  H
  H52      1.0000 0.35460  0.21950  0.32240  Biso   1.000  H
  H53      1.0000 0.85460  0.28050  0.82240  Biso   1.000  H
  H54      1.0000 0.14540  0.28050  0.67760  Biso   1.000  H
  H55      1.0000 0.35460  0.78050  0.82240  Biso   1.000  H
  H56      1.0000 0.64540  0.78050  0.67760  Biso   1.000  H
  H57      1.0000 0.14800  0.78850  0.24530  Biso   1.000  H
  H58      1.0000 0.85200  0.78850  0.25470  Biso   1.000  H
  H59      1.0000 0.64800  0.28850  0.24530  Biso   1.000  H
  H60      1.0000 0.35200  0.28850  0.25470  Biso   1.000  H
  H61      1.0000 0.85200  0.21150  0.75470  Biso   1.000  H
  H62      1.0000 0.14800  0.21150  0.74530  Biso   1.000  H
  H63      1.0000 0.35200  0.71150  0.75470  Biso   1.000  H
  H64      1.0000 0.64800  0.71150  0.74530  Biso   1.000  H
  H65      1.0000 0.06920  0.74030  0.18990  Biso   1.000  H
  H66      1.0000 0.93080  0.74030  0.31010  Biso   1.000  H
  H67      1.0000 0.56920  0.24030  0.18990  Biso   1.000  H
  H68      1.0000 0.43080  0.24030  0.31010  Biso   1.000  H
  H69      1.0000 0.93080  0.25970  0.81010  Biso   1.000  H
  H70      1.0000 0.06920  0.25970  0.68990  Biso   1.000  H
  H71      1.0000 0.43080  0.75970  0.81010  Biso   1.000  H
  H72      1.0000 0.56920  0.75970  0.68990  Biso   1.000  H
  C97      1.0000 0.14810  0.71050  0.40340  Biso   1.000  C
  C98      1.0000 0.85190  0.71050  0.09660  Biso   1.000  C
  C99      1.0000 0.64810  0.21050  0.40340  Biso   1.000  C
  C100     1.0000 0.35190  0.21050  0.09660  Biso   1.000  C
  C101     1.0000 0.85190  0.28950  0.59660  Biso   1.000  C
  C102     1.0000 0.14810  0.28950  0.90340  Biso   1.000  C
  C103     1.0000 0.35190  0.78950  0.59660  Biso   1.000  C
  C104     1.0000 0.64810  0.78950  0.90340  Biso   1.000  C
  C105     1.0000 0.17570  0.66060  0.48540  Biso   1.000  C
  C106     1.0000 0.82430  0.66060  0.01460  Biso   1.000  C
  C107     1.0000 0.67570  0.16060  0.48540  Biso   1.000  C
  C108     1.0000 0.32430  0.16060  0.01460  Biso   1.000  C
  C109     1.0000 0.82430  0.33940  0.51460  Biso   1.000  C
  C110     1.0000 0.17570  0.33940  0.98540  Biso   1.000  C
  C111     1.0000 0.32430  0.83940  0.51460  Biso   1.000  C
  C112     1.0000 0.67570  0.83940  0.98540  Biso   1.000  C
  C113     1.0000 0.11370  0.77990  0.41240  Biso   1.000  C
  C114     1.0000 0.88630  0.77990  0.08760  Biso   1.000  C
  C115     1.0000 0.61370  0.27990  0.41240  Biso   1.000  C
  C116     1.0000 0.38630  0.27990  0.08760  Biso   1.000  C
  C117     1.0000 0.88630  0.22010  0.58760  Biso   1.000  C
  C118     1.0000 0.11370  0.22010  0.91240  Biso   1.000  C
  C119     1.0000 0.38630  0.72010  0.58760  Biso   1.000  C
  C120     1.0000 0.61370  0.72010  0.91240  Biso   1.000  C
  H73      1.0000 0.09660  0.81470  0.35930  Biso   1.000  H
  H74      1.0000 0.90340  0.81470  0.14070  Biso   1.000  H
  H75      1.0000 0.59660  0.31470  0.35930  Biso   1.000  H
  H76      1.0000 0.40340  0.31470  0.14070  Biso   1.000  H
  H77      1.0000 0.90340  0.18530  0.64070  Biso   1.000  H
  H78      1.0000 0.09660  0.18530  0.85930  Biso   1.000  H
  H79      1.0000 0.40340  0.68530  0.64070  Biso   1.000  H
  H80      1.0000 0.59660  0.68530  0.85930  Biso   1.000  H
  C121     1.0000 0.10530  0.79620  0.49710  Biso   1.000  C
  C122     1.0000 0.89470  0.79620  0.00290  Biso   1.000  C
  C123     1.0000 0.60530  0.29620  0.49710  Biso   1.000  C
  C124     1.0000 0.39470  0.29620  0.00290  Biso   1.000  C
  C125     1.0000 0.89470  0.20380  0.50290  Biso   1.000  C
  C126     1.0000 0.10530  0.20380  0.99710  Biso   1.000  C
  C127     1.0000 0.39470  0.70380  0.50290  Biso   1.000  C
  C128     1.0000 0.60530  0.70380  0.99710  Biso   1.000  C
  H81      1.0000 0.08180  0.84160  0.50000  Biso   1.000  H
  H82      1.0000 0.91820  0.84160  0.00000  Biso   1.000  H
  H83      1.0000 0.58180  0.34160  0.50000  Biso   1.000  H
  H84      1.0000 0.41820  0.34160  0.00000  Biso   1.000  H
  H85      1.0000 0.91820  0.15840  0.50000  Biso   1.000  H
  H86      1.0000 0.08180  0.15840  0.00000  Biso   1.000  H
  H87      1.0000 0.41820  0.65840  0.50000  Biso   1.000  H
  H88      1.0000 0.58180  0.65840  0.00000  Biso   1.000  H
  C129     1.0000 0.13170  0.74530  0.58170  Biso   1.000  C
  C130     1.0000 0.86830  0.74530  0.91830  Biso   1.000  C
  C131     1.0000 0.63170  0.24530  0.58170  Biso   1.000  C
  C132     1.0000 0.36830  0.24530  0.91830  Biso   1.000  C
  C133     1.0000 0.86830  0.25470  0.41830  Biso   1.000  C
  C134     1.0000 0.13170  0.25470  0.08170  Biso   1.000  C
  C135     1.0000 0.36830  0.75470  0.41830  Biso   1.000  C
  C136     1.0000 0.63170  0.75470  0.08170  Biso   1.000  C
  C137     1.0000 0.16800  0.67809  0.57550  Biso   1.000  C
  C138     1.0000 0.83200  0.67809  0.92450  Biso   1.000  C
  C139     1.0000 0.66800  0.17809  0.57550  Biso   1.000  C
  C140     1.0000 0.33200  0.17809  0.92450  Biso   1.000  C
  C141     1.0000 0.83200  0.32191  0.42450  Biso   1.000  C
  C142     1.0000 0.16800  0.32191  0.07550  Biso   1.000  C
  C143     1.0000 0.33200  0.82191  0.42450  Biso   1.000  C
  C144     1.0000 0.66800  0.82191  0.07550  Biso   1.000  C
  C145     1.0000 0.12380  0.75750  0.67200  Biso   1.000  C
  C146     1.0000 0.87620  0.75750  0.82800  Biso   1.000  C
  C147     1.0000 0.62380  0.25750  0.67200  Biso   1.000  C
  C148     1.0000 0.37620  0.25750  0.82800  Biso   1.000  C
  C149     1.0000 0.87620  0.24250  0.32800  Biso   1.000  C
  C150     1.0000 0.12380  0.24250  0.17200  Biso   1.000  C
  C151     1.0000 0.37620  0.74250  0.32800  Biso   1.000  C
  C152     1.0000 0.62380  0.74250  0.17200  Biso   1.000  C
  C153     1.0000 0.08340  0.82720  0.68480  Biso   1.000  C
  C154     1.0000 0.91660  0.82720  0.81520  Biso   1.000  C
  C155     1.0000 0.58340  0.32720  0.68480  Biso   1.000  C
  C156     1.0000 0.41660  0.32720  0.81520  Biso   1.000  C
  C157     1.0000 0.91660  0.17280  0.31520  Biso   1.000  C
  C158     1.0000 0.08340  0.17280  0.18480  Biso   1.000  C
  C159     1.0000 0.41660  0.67280  0.31520  Biso   1.000  C
  C160     1.0000 0.58340  0.67280  0.18480  Biso   1.000  C
  H89      1.0000 0.06650  0.81840  0.73610  Biso   1.000  H
  H90      1.0000 0.93350  0.81840  0.76390  Biso   1.000  H
  H91      1.0000 0.56650  0.31840  0.73610  Biso   1.000  H
  H92      1.0000 0.43350  0.31840  0.76390  Biso   1.000  H
  H93      1.0000 0.93350  0.18160  0.26390  Biso   1.000  H
  H94      1.0000 0.06650  0.18160  0.23610  Biso   1.000  H
  H95      1.0000 0.43350  0.68160  0.26390  Biso   1.000  H
  H96      1.0000 0.56650  0.68160  0.23610  Biso   1.000  H
  H97      1.0000 0.03730  0.83920  0.62080  Biso   1.000  H
  H98      1.0000 0.96270  0.83920  0.87920  Biso   1.000  H
  H99      1.0000 0.53730  0.33920  0.62080  Biso   1.000  H
  H100     1.0000 0.46270  0.33920  0.87920  Biso   1.000  H
  H101     1.0000 0.96270  0.16080  0.37920  Biso   1.000  H
  H102     1.0000 0.03730  0.16080  0.12080  Biso   1.000  H
  H103     1.0000 0.46270  0.66080  0.37920  Biso   1.000  H
  H104     1.0000 0.53730  0.66080  0.12080  Biso   1.000  H
  H105     1.0000 0.12070  0.86850  0.70560  Biso   1.000  H
  H106     1.0000 0.87930  0.86850  0.79440  Biso   1.000  H
  H107     1.0000 0.62070  0.36850  0.70560  Biso   1.000  H
  H108     1.0000 0.37930  0.36850  0.79440  Biso   1.000  H
  H109     1.0000 0.87930  0.13150  0.29440  Biso   1.000  H
  H110     1.0000 0.12070  0.13150  0.20560  Biso   1.000  H
  H111     1.0000 0.37930  0.63150  0.29440  Biso   1.000  H
  H112     1.0000 0.62070  0.63150  0.20560  Biso   1.000  H
  C161     1.0000 0.15240  0.70290  0.74620  Biso   1.000  C
  C162     1.0000 0.84760  0.70290  0.75380  Biso   1.000  C
  C163     1.0000 0.65240  0.20290  0.74620  Biso   1.000  C
  C164     1.0000 0.34760  0.20290  0.75380  Biso   1.000  C
  C165     1.0000 0.84760  0.29710  0.25380  Biso   1.000  C
  C166     1.0000 0.15240  0.29710  0.24620  Biso   1.000  C
  C167     1.0000 0.34760  0.79710  0.25380  Biso   1.000  C
  C168     1.0000 0.65240  0.79710  0.24620  Biso   1.000  C
  H113     1.0000 0.14720  0.70920  0.80540  Biso   1.000  H
  H114     1.0000 0.85280  0.70920  0.69460  Biso   1.000  H
  H115     1.0000 0.64720  0.20920  0.80540  Biso   1.000  H
  H116     1.0000 0.35280  0.20920  0.69460  Biso   1.000  H
  H117     1.0000 0.85280  0.29080  0.19460  Biso   1.000  H
  H118     1.0000 0.14720  0.29080  0.30540  Biso   1.000  H
  H119     1.0000 0.35280  0.79080  0.19460  Biso   1.000  H
  H120     1.0000 0.64720  0.79080  0.30540  Biso   1.000  H
  C169     1.0000 0.18890  0.63850  0.73480  Biso   1.000  C
  C170     1.0000 0.81110  0.63850  0.76520  Biso   1.000  C
  C171     1.0000 0.68890  0.13850  0.73480  Biso   1.000  C
  C172     1.0000 0.31110  0.13850  0.76520  Biso   1.000  C
  C173     1.0000 0.81110  0.36150  0.26520  Biso   1.000  C
  C174     1.0000 0.18890  0.36150  0.23480  Biso   1.000  C
  C175     1.0000 0.31110  0.86150  0.26520  Biso   1.000  C
  C176     1.0000 0.68890  0.86150  0.23480  Biso   1.000  C
  H121     1.0000 0.20830  0.60290  0.78710  Biso   1.000  H
  H122     1.0000 0.79170  0.60290  0.71290  Biso   1.000  H
  H123     1.0000 0.70830  0.10290  0.78710  Biso   1.000  H
  H124     1.0000 0.29170  0.10290  0.71290  Biso   1.000  H
  H125     1.0000 0.79170  0.39710  0.21290  Biso   1.000  H
  H126     1.0000 0.20830  0.39710  0.28710  Biso   1.000  H
  H127     1.0000 0.29170  0.89710  0.21290  Biso   1.000  H
  H128     1.0000 0.70830  0.89710  0.28710  Biso   1.000  H
  Cu1      1.0000 0.25030  0.53888  0.62123  Biso   1.000  Cu
  Cu2      1.0000 0.74970  0.53888  0.87877  Biso   1.000  Cu
  Cu3      1.0000 0.75030  0.03888  0.62123  Biso   1.000  Cu
  Cu4      1.0000 0.24970  0.03888  0.87877  Biso   1.000  Cu
  Cu5      1.0000 0.74970  0.46112  0.37877  Biso   1.000  Cu
  Cu6      1.0000 0.25030  0.46112  0.12123  Biso   1.000  Cu
  Cu7      1.0000 0.24970  0.96112  0.37877  Biso   1.000  Cu
  Cu8      1.0000 0.75030  0.96112  0.12123  Biso   1.000  Cu
  O33      1.0000 0.98600  0.44030  0.41380  Biso   1.000  O
  O34      1.0000 0.01400  0.44030  0.08620  Biso   1.000  O
  O35      1.0000 0.48600  0.94030  0.41380  Biso   1.000  O
  O36      1.0000 0.51400  0.94030  0.08620  Biso   1.000  O
  O37      1.0000 0.01400  0.55970  0.58620  Biso   1.000  O
  O38      1.0000 0.98600  0.55970  0.91380  Biso   1.000  O
  O39      1.0000 0.51400  0.05970  0.58620  Biso   1.000  O
  O40      1.0000 0.48600  0.05970  0.91380  Biso   1.000  O
  H129     1.0000 0.98480  0.43710  0.47580  Biso   1.000  H
  H130     1.0000 0.01520  0.43710  0.02420  Biso   1.000  H
  H131     1.0000 0.48480  0.93710  0.47580  Biso   1.000  H
  H132     1.0000 0.51520  0.93710  0.02420  Biso   1.000  H
  H133     1.0000 0.01520  0.56290  0.52420  Biso   1.000  H
  H134     1.0000 0.98480  0.56290  0.97580  Biso   1.000  H
  H135     1.0000 0.51520  0.06290  0.52420  Biso   1.000  H
  H136     1.0000 0.48480  0.06290  0.97580  Biso   1.000  H
  O41      1.0000 0.00200  0.56810  0.42200  Biso   1.000  O
  O42      1.0000 0.99800  0.56810  0.07800  Biso   1.000  O
  O43      1.0000 0.50200  0.06810  0.42200  Biso   1.000  O
  O44      1.0000 0.49800  0.06810  0.07800  Biso   1.000  O
  O45      1.0000 0.99800  0.43190  0.57800  Biso   1.000  O
  O46      1.0000 0.00200  0.43190  0.92200  Biso   1.000  O
  O47      1.0000 0.49800  0.93190  0.57800  Biso   1.000  O
  O48      1.0000 0.50200  0.93190  0.92200  Biso   1.000  O
  O49      1.0000 0.01550  0.56880  0.96410  Biso   1.000  O
  O50      1.0000 0.98450  0.56880  0.53590  Biso   1.000  O
  O51      1.0000 0.51550  0.06880  0.96410  Biso   1.000  O
  O52      1.0000 0.48450  0.06880  0.53590  Biso   1.000  O
  O53      1.0000 0.98450  0.43120  0.03590  Biso   1.000  O
  O54      1.0000 0.01550  0.43120  0.46410  Biso   1.000  O
  O55      1.0000 0.48450  0.93120  0.03590  Biso   1.000  O
  O56      1.0000 0.51550  0.93120  0.46410  Biso   1.000  O
  H137     1.0000 0.01770  0.57380  0.90270  Biso   1.000  H
  H138     1.0000 0.98230  0.57380  0.59730  Biso   1.000  H
  H139     1.0000 0.51770  0.07380  0.90270  Biso   1.000  H
  H140     1.0000 0.48230  0.07380  0.59730  Biso   1.000  H
  H141     1.0000 0.98230  0.42620  0.09730  Biso   1.000  H
  H142     1.0000 0.01770  0.42620  0.40270  Biso   1.000  H
  H143     1.0000 0.48230  0.92620  0.09730  Biso   1.000  H
  H144     1.0000 0.51770  0.92620  0.40270  Biso   1.000  H
  O57      1.0000 0.99500  0.43750  0.95120  Biso   1.000  O
  O58      1.0000 0.00500  0.43750  0.54880  Biso   1.000  O
  O59      1.0000 0.49500  0.93750  0.95120  Biso   1.000  O
  O60      1.0000 0.50500  0.93750  0.54880  Biso   1.000  O
  O61      1.0000 0.00500  0.56250  0.04880  Biso   1.000  O
  O62      1.0000 0.99500  0.56250  0.45120  Biso   1.000  O
  O63      1.0000 0.50500  0.06250  0.04880  Biso   1.000  O
  O64      1.0000 0.49500  0.06250  0.45120  Biso   1.000  O
  C177     1.0000 0.99600  0.50350  0.27990  Biso   1.000  C
  C178     1.0000 0.00400  0.50350  0.22010  Biso   1.000  C
  C179     1.0000 0.49600  0.00350  0.27990  Biso   1.000  C
  C180     1.0000 0.50400  0.00350  0.22010  Biso   1.000  C
  C181     1.0000 0.00400  0.49650  0.72010  Biso   1.000  C
  C182     1.0000 0.99600  0.49650  0.77990  Biso   1.000  C
  C183     1.0000 0.50400  0.99650  0.72010  Biso   1.000  C
  C184     1.0000 0.49600  0.99650  0.77990  Biso   1.000  C
  C185     1.0000 0.00400  0.43580  0.23780  Biso   1.000  C
  C186     1.0000 0.99600  0.43580  0.26220  Biso   1.000  C
  C187     1.0000 0.50400  0.93580  0.23780  Biso   1.000  C
  C188     1.0000 0.49600  0.93580  0.26220  Biso   1.000  C
  C189     1.0000 0.99600  0.56420  0.76220  Biso   1.000  C
  C190     1.0000 0.00400  0.56420  0.73780  Biso   1.000  C
  C191     1.0000 0.49600  0.06420  0.76220  Biso   1.000  C
  C192     1.0000 0.50400  0.06420  0.73780  Biso   1.000  C
  H145     1.0000 0.00720  0.39080  0.27150  Biso   1.000  H
  H146     1.0000 0.99280  0.39080  0.22850  Biso   1.000  H
  H147     1.0000 0.50720  0.89080  0.27150  Biso   1.000  H
  H148     1.0000 0.49280  0.89080  0.22850  Biso   1.000  H
  H149     1.0000 0.99280  0.60920  0.72850  Biso   1.000  H
  H150     1.0000 0.00720  0.60920  0.77150  Biso   1.000  H
  H151     1.0000 0.49280  0.10920  0.72850  Biso   1.000  H
  H152     1.0000 0.50720  0.10920  0.77150  Biso   1.000  H
  C193     1.0000 0.00700  0.43560  0.14530  Biso   1.000  C
  C194     1.0000 0.99300  0.43560  0.35470  Biso   1.000  C
  C195     1.0000 0.50700  0.93560  0.14530  Biso   1.000  C
  C196     1.0000 0.49300  0.93560  0.35470  Biso   1.000  C
  C197     1.0000 0.99300  0.56440  0.85470  Biso   1.000  C
  C198     1.0000 0.00700  0.56440  0.64530  Biso   1.000  C
  C199     1.0000 0.49300  0.06440  0.85470  Biso   1.000  C
  C200     1.0000 0.50700  0.06440  0.64530  Biso   1.000  C
  H153     1.0000 0.01190  0.39040  0.11710  Biso   1.000  H
  H154     1.0000 0.98810  0.39040  0.38290  Biso   1.000  H
  H155     1.0000 0.51190  0.89040  0.11710  Biso   1.000  H
  H156     1.0000 0.48810  0.89040  0.38290  Biso   1.000  H
  H157     1.0000 0.98810  0.60960  0.88290  Biso   1.000  H
  H158     1.0000 0.01190  0.60960  0.61710  Biso   1.000  H
  H159     1.0000 0.48810  0.10960  0.88290  Biso   1.000  H
  H160     1.0000 0.51190  0.10960  0.61710  Biso   1.000  H
  C201     1.0000 0.00200  0.50300  0.09490  Biso   1.000  C
  C202     1.0000 0.99800  0.50300  0.40510  Biso   1.000  C
  C203     1.0000 0.50200  0.00300  0.09490  Biso   1.000  C
  C204     1.0000 0.49800  0.00300  0.40510  Biso   1.000  C
  C205     1.0000 0.99800  0.49700  0.90510  Biso   1.000  C
  C206     1.0000 0.00200  0.49700  0.59490  Biso   1.000  C
  C207     1.0000 0.49800  0.99700  0.90510  Biso   1.000  C
  C208     1.0000 0.50200  0.99700  0.59490  Biso   1.000  C
  C209     1.0000 0.99500  0.57060  0.13710  Biso   1.000  C
  C210     1.0000 0.00500  0.57060  0.36290  Biso   1.000  C
  C211     1.0000 0.49500  0.07060  0.13710  Biso   1.000  C
  C212     1.0000 0.50500  0.07060  0.36290  Biso   1.000  C
  C213     1.0000 0.00500  0.42940  0.86290  Biso   1.000  C
  C214     1.0000 0.99500  0.42940  0.63710  Biso   1.000  C
  C215     1.0000 0.50500  0.92940  0.86290  Biso   1.000  C
  C216     1.0000 0.49500  0.92940  0.63710  Biso   1.000  C
  H161     1.0000 0.99140  0.61570  0.10340  Biso   1.000  H
  H162     1.0000 0.00860  0.61570  0.39660  Biso   1.000  H
  H163     1.0000 0.49140  0.11570  0.10340  Biso   1.000  H
  H164     1.0000 0.50860  0.11570  0.39660  Biso   1.000  H
  H165     1.0000 0.00860  0.38430  0.89660  Biso   1.000  H
  H166     1.0000 0.99140  0.38430  0.60340  Biso   1.000  H
  H167     1.0000 0.50860  0.88430  0.89660  Biso   1.000  H
  H168     1.0000 0.49140  0.88430  0.60340  Biso   1.000  H
  C217     1.0000 0.99200  0.57080  0.22960  Biso   1.000  C
  C218     1.0000 0.00800  0.57080  0.27040  Biso   1.000  C
  C219     1.0000 0.49200  0.07080  0.22960  Biso   1.000  C
  C220     1.0000 0.50800  0.07080  0.27040  Biso   1.000  C
  C221     1.0000 0.00800  0.42920  0.77040  Biso   1.000  C
  C222     1.0000 0.99200  0.42920  0.72960  Biso   1.000  C
  C223     1.0000 0.50800  0.92920  0.77040  Biso   1.000  C
  C224     1.0000 0.49200  0.92920  0.72960  Biso   1.000  C
  H169     1.0000 0.98670  0.61610  0.25780  Biso   1.000  H
  H170     1.0000 0.01330  0.61610  0.24220  Biso   1.000  H
  H171     1.0000 0.48670  0.11610  0.25780  Biso   1.000  H
  H172     1.0000 0.51330  0.11610  0.24220  Biso   1.000  H
  H173     1.0000 0.01330  0.38390  0.74220  Biso   1.000  H
  H174     1.0000 0.98670  0.38390  0.75780  Biso   1.000  H
  H175     1.0000 0.51330  0.88390  0.74220  Biso   1.000  H
  H176     1.0000 0.48670  0.88390  0.75780  Biso   1.000  H
  C225     1.0000 0.99480  0.50400  0.38040  Biso   1.000  C
  C226     1.0000 0.00520  0.50400  0.11960  Biso   1.000  C
  C227     1.0000 0.49480  0.00400  0.38040  Biso   1.000  C
  C228     1.0000 0.50520  0.00400  0.11960  Biso   1.000  C
  C229     1.0000 0.00520  0.49600  0.61960  Biso   1.000  C
  C230     1.0000 0.99480  0.49600  0.88040  Biso   1.000  C
  C231     1.0000 0.50520  0.99600  0.61960  Biso   1.000  C
  C232     1.0000 0.49480  0.99600  0.88040  Biso   1.000  C
  C233     1.0000 0.00430  0.50310  0.99360  Biso   1.000  C
  C234     1.0000 0.99570  0.50310  0.50640  Biso   1.000  C
  C235     1.0000 0.50430  0.00310  0.99360  Biso   1.000  C
  C236     1.0000 0.49570  0.00310  0.50640  Biso   1.000  C
  C237     1.0000 0.99570  0.49690  0.00640  Biso   1.000  C
  C238     1.0000 0.00430  0.49690  0.49360  Biso   1.000  C
  C239     1.0000 0.49570  0.99690  0.00640  Biso   1.000  C
  C240     1.0000 0.50430  0.99690  0.49360  Biso   1.000  C
