data_image0
_cell_length_a       12.981
_cell_length_b       17.089
_cell_length_c       13.206
_cell_angle_alpha    90
_cell_angle_beta     115.63
_cell_angle_gamma    90

_symmetry_space_group_name_H-M    "P 1"
_symmetry_int_tables_number       1

loop_
  _symmetry_equiv_pos_as_xyz
  'x, y, z'

loop_
  _atom_site_label
  _atom_site_occupancy
  _atom_site_fract_x
  _atom_site_fract_y
  _atom_site_fract_z
  _atom_site_thermal_displace_type
  _atom_site_B_iso_or_equiv
  _atom_site_type_symbol
  C1       1.0000 0.95290  0.71290  0.60340  Biso   1.000  C
  C2       1.0000 0.04710  0.21290  0.89660  Biso   1.000  C
  C3       1.0000 0.04710  0.28710  0.39660  Biso   1.000  C
  C4       1.0000 0.95290  0.78710  0.10340  Biso   1.000  C
  C5       1.0000 0.91160  0.77330  0.52870  Biso   1.000  C
  C6       1.0000 0.08840  0.27330  0.97130  Biso   1.000  C
  C7       1.0000 0.08840  0.22670  0.47130  Biso   1.000  C
  C8       1.0000 0.91160  0.72670  0.02870  Biso   1.000  C
  H1       1.0000 0.89010  0.76450  0.45270  Biso   1.000  H
  H2       1.0000 0.10990  0.26450  0.04730  Biso   1.000  H
  H3       1.0000 0.10990  0.23550  0.54730  Biso   1.000  H
  H4       1.0000 0.89010  0.73550  0.95270  Biso   1.000  H
  C9       1.0000 0.85920  0.91380  0.49370  Biso   1.000  C
  C10      1.0000 0.14080  0.41380  0.00630  Biso   1.000  C
  C11      1.0000 0.14080  0.08620  0.50630  Biso   1.000  C
  C12      1.0000 0.85920  0.58620  0.99370  Biso   1.000  C
  H5       1.0000 0.83760  0.90730  0.41730  Biso   1.000  H
  H6       1.0000 0.16240  0.40730  0.08270  Biso   1.000  H
  H7       1.0000 0.16240  0.09270  0.58270  Biso   1.000  H
  H8       1.0000 0.83760  0.59270  0.91730  Biso   1.000  H
  C13      1.0000 0.84950  0.98400  0.53310  Biso   1.000  C
  C14      1.0000 0.15050  0.48400  0.96690  Biso   1.000  C
  C15      1.0000 0.15050  0.01600  0.46690  Biso   1.000  C
  C16      1.0000 0.84950  0.51600  0.03310  Biso   1.000  C
  H9       1.0000 0.81800  0.02600  0.48460  Biso   1.000  H
  H10      1.0000 0.18200  0.52600  0.01540  Biso   1.000  H
  H11      1.0000 0.18200  0.97400  0.51540  Biso   1.000  H
  H12      1.0000 0.81800  0.47400  0.98460  Biso   1.000  H
  C17      1.0000 0.88830  0.99300  0.65000  Biso   1.000  C
  C18      1.0000 0.11170  0.49300  0.85000  Biso   1.000  C
  C19      1.0000 0.11170  0.00700  0.35000  Biso   1.000  C
  C20      1.0000 0.88830  0.50700  0.15000  Biso   1.000  C
  H13      1.0000 0.88310  0.04240  0.67700  Biso   1.000  H
  H14      1.0000 0.11690  0.54240  0.82300  Biso   1.000  H
  H15      1.0000 0.11690  0.95760  0.32300  Biso   1.000  H
  H16      1.0000 0.88310  0.45760  0.17700  Biso   1.000  H
  C21      1.0000 0.98030  0.79950  0.75740  Biso   1.000  C
  C22      1.0000 0.01970  0.29950  0.74260  Biso   1.000  C
  C23      1.0000 0.01970  0.20050  0.24260  Biso   1.000  C
  C24      1.0000 0.98030  0.70050  0.25740  Biso   1.000  C
  H17      1.0000 0.00370  0.80770  0.83380  Biso   1.000  H
  H18      1.0000 0.99630  0.30770  0.66620  Biso   1.000  H
  H19      1.0000 0.99630  0.19230  0.16620  Biso   1.000  H
  H20      1.0000 0.00370  0.69230  0.33380  Biso   1.000  H
  C25      1.0000 0.98710  0.72660  0.71790  Biso   1.000  C
  C26      1.0000 0.01290  0.22660  0.78210  Biso   1.000  C
  C27      1.0000 0.01290  0.27340  0.28210  Biso   1.000  C
  C28      1.0000 0.98710  0.77340  0.21790  Biso   1.000  C
  H21      1.0000 0.01510  0.68520  0.76830  Biso   1.000  H
  H22      1.0000 0.98490  0.18520  0.73170  Biso   1.000  H
  H23      1.0000 0.98490  0.31480  0.23170  Biso   1.000  H
  H24      1.0000 0.01510  0.81480  0.26830  Biso   1.000  H
  C29      1.0000 0.90150  0.84970  0.56640  Biso   1.000  C
  C30      1.0000 0.09850  0.34970  0.93360  Biso   1.000  C
  C31      1.0000 0.09850  0.15030  0.43360  Biso   1.000  C
  C32      1.0000 0.90150  0.65030  0.06640  Biso   1.000  C
  C33      1.0000 0.93780  0.86200  0.68140  Biso   1.000  C
  C34      1.0000 0.06220  0.36200  0.81860  Biso   1.000  C
  C35      1.0000 0.06220  0.13800  0.31860  Biso   1.000  C
  C36      1.0000 0.93780  0.63800  0.18140  Biso   1.000  C
  C37      1.0000 0.96510  0.63400  0.56210  Biso   1.000  C
  C38      1.0000 0.03490  0.13400  0.93790  Biso   1.000  C
  C39      1.0000 0.03490  0.36600  0.43790  Biso   1.000  C
  C40      1.0000 0.96510  0.86600  0.06210  Biso   1.000  C
  C41      1.0000 0.33480  0.95500  0.10490  Biso   1.000  C
  C42      1.0000 0.66520  0.45500  0.39510  Biso   1.000  C
  C43      1.0000 0.66520  0.04500  0.89510  Biso   1.000  C
  C44      1.0000 0.33480  0.54500  0.60490  Biso   1.000  C
  C45      1.0000 0.37600  0.92210  0.03600  Biso   1.000  C
  C46      1.0000 0.62400  0.42210  0.46400  Biso   1.000  C
  C47      1.0000 0.62400  0.07790  0.96400  Biso   1.000  C
  C48      1.0000 0.37600  0.57790  0.53600  Biso   1.000  C
  H25      1.0000 0.32520  0.90600  0.96440  Biso   1.000  H
  H26      1.0000 0.67480  0.40600  0.53560  Biso   1.000  H
  H27      1.0000 0.67480  0.09400  0.03560  Biso   1.000  H
  H28      1.0000 0.32520  0.59400  0.46440  Biso   1.000  H
  C49      1.0000 0.54240  0.87950  0.00100  Biso   1.000  C
  C50      1.0000 0.45760  0.37950  0.49900  Biso   1.000  C
  C51      1.0000 0.45760  0.12050  0.99900  Biso   1.000  C
  C52      1.0000 0.54240  0.62050  0.50100  Biso   1.000  C
  H29      1.0000 0.49590  0.86030  0.92980  Biso   1.000  H
  H30      1.0000 0.50410  0.36030  0.57020  Biso   1.000  H
  H31      1.0000 0.50410  0.13970  0.07020  Biso   1.000  H
  H32      1.0000 0.49590  0.63970  0.42980  Biso   1.000  H
  C53      1.0000 0.65900  0.87780  0.04330  Biso   1.000  C
  C54      1.0000 0.34100  0.37780  0.45670  Biso   1.000  C
  C55      1.0000 0.34100  0.12220  0.95670  Biso   1.000  C
  C56      1.0000 0.65900  0.62220  0.54330  Biso   1.000  C
  H33      1.0000 0.69290  0.85700  0.99990  Biso   1.000  H
  H34      1.0000 0.30710  0.35700  0.50010  Biso   1.000  H
  H35      1.0000 0.30710  0.14300  0.00010  Biso   1.000  H
  H36      1.0000 0.69290  0.64300  0.49990  Biso   1.000  H
  C57      1.0000 0.72700  0.90620  0.14860  Biso   1.000  C
  C58      1.0000 0.27300  0.40620  0.35140  Biso   1.000  C
  C59      1.0000 0.27300  0.09380  0.85140  Biso   1.000  C
  C60      1.0000 0.72700  0.59380  0.64860  Biso   1.000  C
  H37      1.0000 0.80580  0.90360  0.17370  Biso   1.000  H
  H38      1.0000 0.19420  0.40360  0.32630  Biso   1.000  H
  H39      1.0000 0.19420  0.09640  0.82630  Biso   1.000  H
  H40      1.0000 0.80580  0.59640  0.67370  Biso   1.000  H
  C61      1.0000 0.52680  0.97140  0.24830  Biso   1.000  C
  C62      1.0000 0.47320  0.47140  0.25170  Biso   1.000  C
  C63      1.0000 0.47320  0.02860  0.75170  Biso   1.000  C
  C64      1.0000 0.52680  0.52860  0.74830  Biso   1.000  C
  H41      1.0000 0.57610  0.98820  0.32000  Biso   1.000  H
  H42      1.0000 0.42390  0.48820  0.18000  Biso   1.000  H
  H43      1.0000 0.42390  0.01180  0.68000  Biso   1.000  H
  H44      1.0000 0.57610  0.51180  0.82000  Biso   1.000  H
  C65      1.0000 0.41190  0.97850  0.21240  Biso   1.000  C
  C66      1.0000 0.58810  0.47850  0.28760  Biso   1.000  C
  C67      1.0000 0.58810  0.02150  0.78760  Biso   1.000  C
  C68      1.0000 0.41190  0.52150  0.71240  Biso   1.000  C
  H45      1.0000 0.38400  0.99960  0.26060  Biso   1.000  H
  H46      1.0000 0.61600  0.49960  0.23940  Biso   1.000  H
  H47      1.0000 0.61600  0.00040  0.73940  Biso   1.000  H
  H48      1.0000 0.38400  0.50040  0.76060  Biso   1.000  H
  C69      1.0000 0.49600  0.91200  0.07140  Biso   1.000  C
  C70      1.0000 0.50400  0.41200  0.42860  Biso   1.000  C
  C71      1.0000 0.50400  0.08800  0.92860  Biso   1.000  C
  C72      1.0000 0.49600  0.58800  0.57140  Biso   1.000  C
  C73      1.0000 0.57120  0.93900  0.17830  Biso   1.000  C
  C74      1.0000 0.42880  0.43900  0.32170  Biso   1.000  C
  C75      1.0000 0.42880  0.06100  0.82170  Biso   1.000  C
  C76      1.0000 0.57120  0.56100  0.67830  Biso   1.000  C
  C77      1.0000 0.20980  0.96720  0.06600  Biso   1.000  C
  C78      1.0000 0.79020  0.46720  0.43400  Biso   1.000  C
  C79      1.0000 0.79020  0.03280  0.93400  Biso   1.000  C
  C80      1.0000 0.20980  0.53280  0.56600  Biso   1.000  C
  Cu1      1.0000 0.97825  0.96984  0.89857  Biso   1.000  Cu
  Cu2      1.0000 0.02175  0.46984  0.60143  Biso   1.000  Cu
  Cu3      1.0000 0.02175  0.03016  0.10143  Biso   1.000  Cu
  Cu4      1.0000 0.97825  0.53016  0.39857  Biso   1.000  Cu
  N1       1.0000 0.93140  0.93610  0.72330  Biso   1.000  N
  N2       1.0000 0.06860  0.43610  0.77670  Biso   1.000  N
  N3       1.0000 0.06860  0.06390  0.27670  Biso   1.000  N
  N4       1.0000 0.93140  0.56390  0.22330  Biso   1.000  N
  N5       1.0000 0.68760  0.93680  0.21630  Biso   1.000  N
  N6       1.0000 0.31240  0.43680  0.28370  Biso   1.000  N
  N7       1.0000 0.31240  0.06320  0.78370  Biso   1.000  N
  N8       1.0000 0.68760  0.56320  0.71630  Biso   1.000  N
  O1       1.0000 0.95290  0.62720  0.46230  Biso   1.000  O
  O2       1.0000 0.04710  0.12720  0.03770  Biso   1.000  O
  O3       1.0000 0.04710  0.37280  0.53770  Biso   1.000  O
  O4       1.0000 0.95290  0.87280  0.96230  Biso   1.000  O
  O5       1.0000 0.99060  0.57790  0.63140  Biso   1.000  O
  O6       1.0000 0.00940  0.07790  0.86860  Biso   1.000  O
  O7       1.0000 0.00940  0.42210  0.36860  Biso   1.000  O
  O8       1.0000 0.99060  0.92210  0.13140  Biso   1.000  O
  O9       1.0000 0.14360  0.94800  0.96560  Biso   1.000  O
  O10      1.0000 0.85640  0.44800  0.53440  Biso   1.000  O
  O11      1.0000 0.85640  0.05200  0.03440  Biso   1.000  O
  O12      1.0000 0.14360  0.55200  0.46560  Biso   1.000  O
  O13      1.0000 0.17850  0.99830  0.13440  Biso   1.000  O
  O14      1.0000 0.82150  0.49830  0.36560  Biso   1.000  O
  O15      1.0000 0.82150  0.00170  0.86560  Biso   1.000  O
  O16      1.0000 0.17850  0.50170  0.63440  Biso   1.000  O
  O17      1.0000 0.16280  0.82050  0.49150  Biso   1.000  O
  O18      1.0000 0.83720  0.32050  0.00850  Biso   1.000  O
  O19      1.0000 0.83720  0.17950  0.50850  Biso   1.000  O
  O20      1.0000 0.16280  0.67950  0.99150  Biso   1.000  O
  N9       1.0000 0.22700  0.78200  0.67200  Biso   1.000  N
  N10      1.0000 0.77300  0.28200  0.82800  Biso   1.000  N
  N11      1.0000 0.77300  0.21800  0.32800  Biso   1.000  N
  N12      1.0000 0.22700  0.71800  0.17200  Biso   1.000  N
  C81      1.0000 0.19370  0.76800  0.56090  Biso   1.000  C
  C82      1.0000 0.80630  0.26800  0.93910  Biso   1.000  C
  C83      1.0000 0.80630  0.23200  0.43910  Biso   1.000  C
  C84      1.0000 0.19370  0.73200  0.06090  Biso   1.000  C
  C85      1.0000 0.23020  0.85870  0.71120  Biso   1.000  C
  C86      1.0000 0.76980  0.35870  0.78880  Biso   1.000  C
  C87      1.0000 0.76980  0.14130  0.28880  Biso   1.000  C
  C88      1.0000 0.23020  0.64130  0.21120  Biso   1.000  C
  C89      1.0000 0.26740  0.71900  0.74870  Biso   1.000  C
  C90      1.0000 0.73260  0.21900  0.75130  Biso   1.000  C
  C91      1.0000 0.73260  0.28100  0.25130  Biso   1.000  C
  C92      1.0000 0.26740  0.78100  0.24870  Biso   1.000  C
  N13      1.0000 0.42430  0.17920  0.36070  Biso   1.000  N
  N14      1.0000 0.57570  0.67920  0.13930  Biso   1.000  N
  N15      1.0000 0.57570  0.82080  0.63930  Biso   1.000  N
  N16      1.0000 0.42430  0.32080  0.86070  Biso   1.000  N
  C93      1.0000 0.43300  0.14100  0.45620  Biso   1.000  C
  C94      1.0000 0.56700  0.64100  0.04380  Biso   1.000  C
  C95      1.0000 0.56700  0.85900  0.54380  Biso   1.000  C
  C96      1.0000 0.43300  0.35900  0.95620  Biso   1.000  C
  C97      1.0000 0.31290  0.19010  0.27760  Biso   1.000  C
  C98      1.0000 0.68710  0.69010  0.22240  Biso   1.000  C
  C99      1.0000 0.68710  0.80990  0.72240  Biso   1.000  C
  C100     1.0000 0.31290  0.30990  0.77760  Biso   1.000  C
  C101     1.0000 0.50990  0.19180  0.32700  Biso   1.000  C
  C102     1.0000 0.49010  0.69180  0.17300  Biso   1.000  C
  C103     1.0000 0.49010  0.80820  0.67300  Biso   1.000  C
  C104     1.0000 0.50990  0.30820  0.82700  Biso   1.000  C
  O21      1.0000 0.47310  0.22170  0.23200  Biso   1.000  O
  O22      1.0000 0.52690  0.72170  0.26800  Biso   1.000  O
  O23      1.0000 0.52690  0.77830  0.76800  Biso   1.000  O
  O24      1.0000 0.47310  0.27830  0.73200  Biso   1.000  O
