data_image0
_cell_length_a       11.0995
_cell_length_b       15.7759
_cell_length_c       17.3702
_cell_angle_alpha    92.867
_cell_angle_beta     104.082
_cell_angle_gamma    108.293

_symmetry_space_group_name_H-M    "P 1"
_symmetry_int_tables_number       1

loop_
  _symmetry_equiv_pos_as_xyz
  'x, y, z'

loop_
  _atom_site_label
  _atom_site_occupancy
  _atom_site_fract_x
  _atom_site_fract_y
  _atom_site_fract_z
  _atom_site_thermal_displace_type
  _atom_site_B_iso_or_equiv
  _atom_site_type_symbol
  Cu1      1.0000 0.75234  0.74038  0.01387  Biso   1.000  Cu
  Cu2      1.0000 0.24766  0.25962  0.98613  Biso   1.000  Cu
  N1       1.0000 0.71448  0.69228  0.11555  Biso   1.000  N
  N2       1.0000 0.28552  0.30772  0.88445  Biso   1.000  N
  C1       1.0000 0.77440  0.63919  0.15492  Biso   1.000  C
  C2       1.0000 0.22560  0.36081  0.84508  Biso   1.000  C
  H1       1.0000 0.82780  0.61610  0.13080  Biso   1.000  H
  H2       1.0000 0.17220  0.38390  0.86920  Biso   1.000  H
  C3       1.0000 0.76160  0.61661  0.22906  Biso   1.000  C
  C4       1.0000 0.23840  0.38339  0.77094  Biso   1.000  C
  H3       1.0000 0.80660  0.57920  0.25500  Biso   1.000  H
  H4       1.0000 0.19340  0.42080  0.74500  Biso   1.000  H
  C5       1.0000 0.68360  0.64830  0.26569  Biso   1.000  C
  C6       1.0000 0.31640  0.35170  0.73431  Biso   1.000  C
  C7       1.0000 0.61960  0.70172  0.22387  Biso   1.000  C
  C8       1.0000 0.38040  0.29828  0.77613  Biso   1.000  C
  H5       1.0000 0.56370  0.72440  0.24600  Biso   1.000  H
  H6       1.0000 0.43630  0.27560  0.75400  Biso   1.000  H
  C9       1.0000 0.63730  0.72174  0.15014  Biso   1.000  C
  C10      1.0000 0.36270  0.27826  0.84986  Biso   1.000  C
  H7       1.0000 0.59230  0.75830  0.12260  Biso   1.000  H
  H8       1.0000 0.40770  0.24170  0.87740  Biso   1.000  H
  C11      1.0000 0.66850  0.62856  0.34741  Biso   1.000  C
  C12      1.0000 0.33150  0.37144  0.65259  Biso   1.000  C
  H9       1.0000 0.71130  0.68510  0.38540  Biso   1.000  H
  H10      1.0000 0.28870  0.31490  0.61460  Biso   1.000  H
  H11      1.0000 0.71510  0.58600  0.36600  Biso   1.000  H
  H12      1.0000 0.28490  0.41400  0.63400  Biso   1.000  H
  C13      1.0000 0.52420  0.58818  0.34902  Biso   1.000  C
  C14      1.0000 0.47580  0.41182  0.65098  Biso   1.000  C
  H13      1.0000 0.52160  0.58400  0.40530  Biso   1.000  H
  H14      1.0000 0.47840  0.41600  0.59470  Biso   1.000  H
  H15      1.0000 0.47690  0.62960  0.32820  Biso   1.000  H
  H16      1.0000 0.52310  0.37040  0.67180  Biso   1.000  H
  C15      1.0000 0.45150  0.49460  0.29981  Biso   1.000  C
  C16      1.0000 0.54850  0.50540  0.70019  Biso   1.000  C
  H17      1.0000 0.35680  0.47640  0.29780  Biso   1.000  H
  H18      1.0000 0.64320  0.52360  0.70220  Biso   1.000  H
  H19      1.0000 0.45880  0.49730  0.24420  Biso   1.000  H
  H20      1.0000 0.54120  0.50270  0.75580  Biso   1.000  H
  N3       1.0000 0.55633  0.71517  0.96134  Biso   1.000  N
  N4       1.0000 0.44367  0.28483  0.03866  Biso   1.000  N
  C17      1.0000 0.46770  0.63324  0.95766  Biso   1.000  C
  C18      1.0000 0.53230  0.36676  0.04234  Biso   1.000  C
  H21      1.0000 0.49790  0.58730  0.97970  Biso   1.000  H
  H22      1.0000 0.50210  0.41270  0.02030  Biso   1.000  H
  C19      1.0000 0.33490  0.61334  0.92323  Biso   1.000  C
  C20      1.0000 0.66510  0.38666  0.07677  Biso   1.000  C
  H23      1.0000 0.27560  0.55470  0.92260  Biso   1.000  H
  H24      1.0000 0.72440  0.44530  0.07740  Biso   1.000  H
  C21      1.0000 0.28660  0.67781  0.88954  Biso   1.000  C
  C22      1.0000 0.71340  0.32219  0.11046  Biso   1.000  C
  C23      1.0000 0.37860  0.76216  0.89326  Biso   1.000  C
  C24      1.0000 0.62140  0.23784  0.10674  Biso   1.000  C
  H25      1.0000 0.35100  0.80890  0.87090  Biso   1.000  H
  H26      1.0000 0.64900  0.19110  0.12910  Biso   1.000  H
  C25      1.0000 0.51060  0.77801  0.92968  Biso   1.000  C
  C26      1.0000 0.48940  0.22199  0.07032  Biso   1.000  C
  H27      1.0000 0.57170  0.83650  0.93230  Biso   1.000  H
  H28      1.0000 0.42830  0.16350  0.06770  Biso   1.000  H
  C27      1.0000 0.14130  0.65674  0.85136  Biso   1.000  C
  C28      1.0000 0.85870  0.34326  0.14864  Biso   1.000  C
  H29      1.0000 0.12640  0.71100  0.83070  Biso   1.000  H
  H30      1.0000 0.87360  0.28900  0.16930  Biso   1.000  H
  H31      1.0000 0.09290  0.64110  0.89250  Biso   1.000  H
  H32      1.0000 0.90710  0.35890  0.10750  Biso   1.000  H
  C29      1.0000 0.08640  0.57864  0.78262  Biso   1.000  C
  C30      1.0000 0.91360  0.42136  0.21738  Biso   1.000  C
  H33      1.0000 0.13270  0.59530  0.74070  Biso   1.000  H
  H34      1.0000 0.86730  0.40470  0.25930  Biso   1.000  H
  H35      1.0000 0.10470  0.52520  0.80300  Biso   1.000  H
  H36      1.0000 0.89530  0.47480  0.19700  Biso   1.000  H
  C31      1.0000 0.93790  0.55374  0.74509  Biso   1.000  C
  C32      1.0000 0.06210  0.44626  0.25491  Biso   1.000  C
  H37      1.0000 0.89110  0.54010  0.78710  Biso   1.000  H
  H38      1.0000 0.10890  0.45990  0.21290  Biso   1.000  H
  H39      1.0000 0.91930  0.60550  0.72110  Biso   1.000  H
  H40      1.0000 0.08070  0.39450  0.27890  Biso   1.000  H
  N5       1.0000 0.79472  0.79400  0.91558  Biso   1.000  N
  N6       1.0000 0.20528  0.20600  0.08442  Biso   1.000  N
  C33      1.0000 0.86430  0.88154  0.91925  Biso   1.000  C
  C34      1.0000 0.13570  0.11846  0.08075  Biso   1.000  C
  H41      1.0000 0.89800  0.91820  0.96990  Biso   1.000  H
  H42      1.0000 0.10200  0.08180  0.03010  Biso   1.000  H
  C35      1.0000 0.88900  0.92048  0.85339  Biso   1.000  C
  C36      1.0000 0.11100  0.07952  0.14661  Biso   1.000  C
  H43      1.0000 0.93790  0.98290  0.85910  Biso   1.000  H
  H44      1.0000 0.06210  0.01710  0.14090  Biso   1.000  H
  C37      1.0000 0.84300  0.86925  0.77856  Biso   1.000  C
  C38      1.0000 0.15700  0.13075  0.22144  Biso   1.000  C
  C39      1.0000 0.77280  0.77829  0.77469  Biso   1.000  C
  C40      1.0000 0.22720  0.22171  0.22531  Biso   1.000  C
  H45      1.0000 0.74040  0.74000  0.72490  Biso   1.000  H
  H46      1.0000 0.25960  0.26000  0.27510  Biso   1.000  H
  C41      1.0000 0.75030  0.74365  0.84306  Biso   1.000  C
  C42      1.0000 0.24970  0.25635  0.15694  Biso   1.000  C
  H47      1.0000 0.70120  0.68150  0.83890  Biso   1.000  H
  H48      1.0000 0.29880  0.31850  0.16110  Biso   1.000  H
  C43      1.0000 0.86530  0.90883  0.70403  Biso   1.000  C
  C44      1.0000 0.13470  0.09117  0.29597  Biso   1.000  C
  H49      1.0000 0.82240  0.95520  0.69540  Biso   1.000  H
  H50      1.0000 0.17760  0.04480  0.30460  Biso   1.000  H
  H51      1.0000 0.82240  0.86070  0.65750  Biso   1.000  H
  H52      1.0000 0.17760  0.13930  0.34250  Biso   1.000  H
  C45      1.0000 0.00990  0.95120  0.70726  Biso   1.000  C
  C46      1.0000 0.99010  0.04880  0.29274  Biso   1.000  C
  H53      1.0000 0.05680  0.90900  0.72620  Biso   1.000  H
  H54      1.0000 0.94320  0.09100  0.27380  Biso   1.000  H
  H55      1.0000 0.04900  0.00680  0.74650  Biso   1.000  H
  H56      1.0000 0.95100  0.99320  0.25350  Biso   1.000  H
  C47      1.0000 0.03100  0.97471  0.62528  Biso   1.000  C
  C48      1.0000 0.96900  0.02529  0.37472  Biso   1.000  C
  H57      1.0000 0.12640  0.00460  0.63170  Biso   1.000  H
  H58      1.0000 0.87360  0.99540  0.36830  Biso   1.000  H
  H59      1.0000 0.00130  0.91830  0.58770  Biso   1.000  H
  H60      1.0000 0.99870  0.08170  0.41230  Biso   1.000  H
  N7       1.0000 0.94822  0.77051  0.06580  Biso   1.000  N
  N8       1.0000 0.05178  0.22949  0.93420  Biso   1.000  N
  C49      1.0000 0.02210  0.73991  0.02809  Biso   1.000  C
  C50      1.0000 0.97790  0.26009  0.97191  Biso   1.000  C
  H61      1.0000 0.98130  0.70630  0.97620  Biso   1.000  H
  H62      1.0000 0.01870  0.29370  0.02380  Biso   1.000  H
  C51      1.0000 0.15370  0.75525  0.06139  Biso   1.000  C
  C52      1.0000 0.84630  0.24475  0.93861  Biso   1.000  C
  H63      1.0000 0.20180  0.73240  0.03240  Biso   1.000  H
  H64      1.0000 0.79820  0.26760  0.96760  Biso   1.000  H
  C53      1.0000 0.21690  0.80384  0.13697  Biso   1.000  C
  C54      1.0000 0.78310  0.19616  0.86303  Biso   1.000  C
  C55      1.0000 0.13960  0.83501  0.17577  Biso   1.000  C
  C56      1.0000 0.86040  0.16499  0.82423  Biso   1.000  C
  H65      1.0000 0.17800  0.86840  0.22790  Biso   1.000  H
  H66      1.0000 0.82200  0.13160  0.77210  Biso   1.000  H
  C57      1.0000 0.00840  0.81764  0.13909  Biso   1.000  C
  C58      1.0000 0.99160  0.18236  0.86091  Biso   1.000  C
  H67      1.0000 0.95810  0.83990  0.16670  Biso   1.000  H
  H68      1.0000 0.04190  0.16010  0.83330  Biso   1.000  H
  C59      1.0000 0.36140  0.82178  0.17367  Biso   1.000  C
  C60      1.0000 0.63860  0.17822  0.82633  Biso   1.000  C
  H69      1.0000 0.37770  0.76360  0.17510  Biso   1.000  H
  H70      1.0000 0.62230  0.23640  0.82490  Biso   1.000  H
  H71      1.0000 0.38610  0.85110  0.22960  Biso   1.000  H
  H72      1.0000 0.61390  0.14890  0.77040  Biso   1.000  H
  C61      1.0000 0.44890  0.88133  0.12858  Biso   1.000  C
  C62      1.0000 0.55110  0.11867  0.87142  Biso   1.000  C
  H73      1.0000 0.42070  0.85340  0.07190  Biso   1.000  H
  H74      1.0000 0.57930  0.14660  0.92810  Biso   1.000  H
  H75      1.0000 0.54080  0.88340  0.15150  Biso   1.000  H
  H76      1.0000 0.45920  0.11660  0.84850  Biso   1.000  H
  C63      1.0000 0.44660  0.97734  0.13102  Biso   1.000  C
  C64      1.0000 0.55340  0.02266  0.86898  Biso   1.000  C
  H77      1.0000 0.49390  0.00830  0.09340  Biso   1.000  H
  H78      1.0000 0.50610  0.99170  0.90660  Biso   1.000  H
  H79      1.0000 0.35410  0.97570  0.11290  Biso   1.000  H
  H80      1.0000 0.64590  0.02430  0.88710  Biso   1.000  H
  N9       1.0000 0.73180  0.59418  0.96120  Biso   1.000  N
  N10      1.0000 0.26820  0.40582  0.03880  Biso   1.000  N
  C65      1.0000 0.73740  0.52921  0.93266  Biso   1.000  C
  C66      1.0000 0.26260  0.47079  0.06734  Biso   1.000  C
  S1       1.0000 0.72910  0.43320  0.88990  Biso   1.000  S
  S2       1.0000 0.27090  0.56680  0.11010  Biso   1.000  S
  S3       1.0000 0.77900  0.44220  0.90150  Biso   1.000  S
  S4       1.0000 0.22100  0.55780  0.09850  Biso   1.000  S
  N11      1.0000 0.76920  0.88975  0.07725  Biso   1.000  N
  N12      1.0000 0.23080  0.11025  0.92275  Biso   1.000  N
  C67      1.0000 0.77220  0.96401  0.07392  Biso   1.000  C
  C68      1.0000 0.22780  0.03599  0.92608  Biso   1.000  C
  S5       1.0000 0.78028  0.06882  0.06741  Biso   1.000  S
  S6       1.0000 0.21972  0.93118  0.93259  Biso   1.000  S
  Cu3      1.0000 0.71412  0.22275  0.46761  Biso   1.000  Cu
  Cu4      1.0000 0.28588  0.77725  0.53239  Biso   1.000  Cu
  N13      1.0000 0.81826  0.14742  0.52328  Biso   1.000  N
  N14      1.0000 0.18174  0.85258  0.47672  Biso   1.000  N
  C69      1.0000 0.75960  0.05728  0.51518  Biso   1.000  C
  C70      1.0000 0.24040  0.94272  0.48482  Biso   1.000  C
  H81      1.0000 0.66880  0.03180  0.48710  Biso   1.000  H
  H82      1.0000 0.33120  0.96820  0.51290  Biso   1.000  H
  C71      1.0000 0.82610  0.00087  0.54593  Biso   1.000  C
  C72      1.0000 0.17390  0.99913  0.45407  Biso   1.000  C
  H83      1.0000 0.78160  0.93760  0.53720  Biso   1.000  H
  H84      1.0000 0.21840  0.06240  0.46280  Biso   1.000  H
  C73      1.0000 0.95750  0.03563  0.58958  Biso   1.000  C
  C74      1.0000 0.04250  0.96437  0.41042  Biso   1.000  C
  C75      1.0000 0.01700  0.12841  0.59858  Biso   1.000  C
  C76      1.0000 0.98300  0.87159  0.40142  Biso   1.000  C
  H85      1.0000 0.10690  0.15560  0.62810  Biso   1.000  H
  H86      1.0000 0.89310  0.84440  0.37190  Biso   1.000  H
  C77      1.0000 0.94590  0.18104  0.56470  Biso   1.000  C
  C78      1.0000 0.05410  0.81896  0.43530  Biso   1.000  C
  H87      1.0000 0.98940  0.24430  0.57090  Biso   1.000  H
  H88      1.0000 0.01060  0.75570  0.42910  Biso   1.000  H
  N15      1.0000 0.79980  0.32466  0.56184  Biso   1.000  N
  N16      1.0000 0.20020  0.67534  0.43816  Biso   1.000  N
  C79      1.0000 0.86280  0.40793  0.54883  Biso   1.000  C
  C80      1.0000 0.13720  0.59207  0.45117  Biso   1.000  C
  H89      1.0000 0.87690  0.41580  0.49750  Biso   1.000  H
  H90      1.0000 0.12310  0.58420  0.50250  Biso   1.000  H
  C81      1.0000 0.90810  0.48253  0.60586  Biso   1.000  C
  C82      1.0000 0.09190  0.51747  0.39414  Biso   1.000  C
  H91      1.0000 0.95260  0.54010  0.59360  Biso   1.000  H
  H92      1.0000 0.04740  0.45990  0.40640  Biso   1.000  H
  C83      1.0000 0.88850  0.47338  0.68173  Biso   1.000  C
  C84      1.0000 0.11150  0.52662  0.31827  Biso   1.000  C
  C85      1.0000 0.82590  0.38666  0.69559  Biso   1.000  C
  C86      1.0000 0.17410  0.61334  0.30441  Biso   1.000  C
  H93      1.0000 0.81220  0.37670  0.74680  Biso   1.000  H
  H94      1.0000 0.18780  0.62330  0.25320  Biso   1.000  H
  C87      1.0000 0.78340  0.31513  0.63532  Biso   1.000  C
  C88      1.0000 0.21660  0.68487  0.36468  Biso   1.000  C
  H95      1.0000 0.74070  0.25650  0.64630  Biso   1.000  H
  H96      1.0000 0.25930  0.74350  0.35370  Biso   1.000  H
  N17      1.0000 0.62010  0.30373  0.40896  Biso   1.000  N
  N18      1.0000 0.37990  0.69627  0.59104  Biso   1.000  N
  C89      1.0000 0.63780  0.32955  0.33860  Biso   1.000  C
  C90      1.0000 0.36220  0.67045  0.66140  Biso   1.000  C
  H97      1.0000 0.68990  0.30560  0.31390  Biso   1.000  H
  H98      1.0000 0.31010  0.69440  0.68610  Biso   1.000  H
  C91      1.0000 0.58380  0.38900  0.30090  Biso   1.000  C
  C92      1.0000 0.41620  0.61100  0.69910  Biso   1.000  C
  H99      1.0000 0.59900  0.40530  0.25130  Biso   1.000  H
  H100     1.0000 0.40100  0.59470  0.74870  Biso   1.000  H
  C93      1.0000 0.50720  0.42527  0.33521  Biso   1.000  C
  C94      1.0000 0.49280  0.57473  0.66479  Biso   1.000  C
  C95      1.0000 0.48710  0.39707  0.40741  Biso   1.000  C
  C96      1.0000 0.51290  0.60293  0.59259  Biso   1.000  C
  H101     1.0000 0.43410  0.41910  0.43290  Biso   1.000  H
  H102     1.0000 0.56590  0.58090  0.56710  Biso   1.000  H
  C97      1.0000 0.54410  0.33741  0.44145  Biso   1.000  C
  C98      1.0000 0.45590  0.66259  0.55855  Biso   1.000  C
  H103     1.0000 0.52890  0.31910  0.49050  Biso   1.000  H
  H104     1.0000 0.47110  0.68090  0.50950  Biso   1.000  H
  N19      1.0000 0.62921  0.13114  0.36588  Biso   1.000  N
  N20      1.0000 0.37079  0.86886  0.63412  Biso   1.000  N
  C99      1.0000 0.70060  0.10920  0.32124  Biso   1.000  C
  C100     1.0000 0.29940  0.89080  0.67876  Biso   1.000  C
  H105     1.0000 0.79380  0.12920  0.34210  Biso   1.000  H
  H106     1.0000 0.20620  0.87080  0.65790  Biso   1.000  H
  C101     1.0000 0.64510  0.05910  0.24652  Biso   1.000  C
  C102     1.0000 0.35490  0.94090  0.75348  Biso   1.000  C
  H107     1.0000 0.69970  0.04420  0.21750  Biso   1.000  H
  H108     1.0000 0.30030  0.95580  0.78250  Biso   1.000  H
  C103     1.0000 0.50940  0.03033  0.21354  Biso   1.000  C
  C104     1.0000 0.49060  0.96967  0.78646  Biso   1.000  C
  C105     1.0000 0.43660  0.05153  0.26048  Biso   1.000  C
  C106     1.0000 0.56340  0.94847  0.73952  Biso   1.000  C
  H109     1.0000 0.34320  0.03200  0.24100  Biso   1.000  H
  H110     1.0000 0.65680  0.96800  0.75900  Biso   1.000  H
  C107     1.0000 0.49810  0.10094  0.33556  Biso   1.000  C
  C108     1.0000 0.50190  0.89906  0.66444  Biso   1.000  C
  H111     1.0000 0.44520  0.11400  0.36690  Biso   1.000  H
  H112     1.0000 0.55480  0.88600  0.63310  Biso   1.000  H
  N21      1.0000 0.90490  0.29135  0.41110  Biso   1.000  N
  N22      1.0000 0.09510  0.70865  0.58890  Biso   1.000  N
  C109     1.0000 0.01270  0.29310  0.41845  Biso   1.000  C
  C110     1.0000 0.98730  0.70690  0.58155  Biso   1.000  C
  S7       1.0000 0.16594  0.29825  0.42986  Biso   1.000  S
  S8       1.0000 0.83406  0.70175  0.57014  Biso   1.000  S
  N23      1.0000 0.54000  0.15701  0.51790  Biso   1.000  N
  N24      1.0000 0.46000  0.84299  0.48210  Biso   1.000  N
  C111     1.0000 0.48200  0.15032  0.56524  Biso   1.000  C
  C112     1.0000 0.51800  0.84968  0.43476  Biso   1.000  C
  S9       1.0000 0.39713  0.14100  0.63141  Biso   1.000  S
  S10      1.0000 0.60287  0.85900  0.36859  Biso   1.000  S
