data_image0
_cell_length_a       18.6227
_cell_length_b       14.2708
_cell_length_c       17.5255
_cell_angle_alpha    90
_cell_angle_beta     91.65
_cell_angle_gamma    90

_symmetry_space_group_name_H-M    "P 1"
_symmetry_int_tables_number       1

loop_
  _symmetry_equiv_pos_as_xyz
  'x, y, z'

loop_
  _atom_site_label
  _atom_site_occupancy
  _atom_site_fract_x
  _atom_site_fract_y
  _atom_site_fract_z
  _atom_site_thermal_displace_type
  _atom_site_B_iso_or_equiv
  _atom_site_type_symbol
  Cu1      1.0000 0.49983  0.63521  0.26101  Biso   1.000  Cu
  Cu2      1.0000 0.49983  0.86479  0.76101  Biso   1.000  Cu
  Cu3      1.0000 0.50017  0.36479  0.73899  Biso   1.000  Cu
  Cu4      1.0000 0.50017  0.13521  0.23899  Biso   1.000  Cu
  S1       1.0000 0.56188  0.40902  0.19495  Biso   1.000  S
  S2       1.0000 0.56188  0.09098  0.69495  Biso   1.000  S
  S3       1.0000 0.43812  0.59098  0.80505  Biso   1.000  S
  S4       1.0000 0.43812  0.90902  0.30505  Biso   1.000  S
  O1       1.0000 0.51062  0.47713  0.22565  Biso   1.000  O
  O2       1.0000 0.51062  0.02287  0.72565  Biso   1.000  O
  O3       1.0000 0.48938  0.52287  0.77435  Biso   1.000  O
  O4       1.0000 0.48938  0.97713  0.27435  Biso   1.000  O
  O5       1.0000 0.58860  0.44394  0.12128  Biso   1.000  O
  O6       1.0000 0.58860  0.05606  0.62128  Biso   1.000  O
  O7       1.0000 0.41140  0.55606  0.87872  Biso   1.000  O
  O8       1.0000 0.41140  0.94394  0.37872  Biso   1.000  O
  O9       1.0000 0.52640  0.31775  0.18358  Biso   1.000  O
  O10      1.0000 0.52640  0.18225  0.68358  Biso   1.000  O
  O11      1.0000 0.47360  0.68225  0.81642  Biso   1.000  O
  O12      1.0000 0.47360  0.81775  0.31642  Biso   1.000  O
  O13      1.0000 0.62412  0.39925  0.24876  Biso   1.000  O
  O14      1.0000 0.62412  0.10075  0.74876  Biso   1.000  O
  O15      1.0000 0.37588  0.60075  0.75124  Biso   1.000  O
  O16      1.0000 0.37588  0.89925  0.25124  Biso   1.000  O
  N1       1.0000 0.53634  0.60772  0.36746  Biso   1.000  N
  N2       1.0000 0.53634  0.89228  0.86746  Biso   1.000  N
  N3       1.0000 0.46366  0.39228  0.63254  Biso   1.000  N
  N4       1.0000 0.46366  0.10772  0.13254  Biso   1.000  N
  N5       1.0000 0.55952  0.62442  0.49020  Biso   1.000  N
  N6       1.0000 0.55952  0.87558  0.99020  Biso   1.000  N
  N7       1.0000 0.44048  0.37558  0.50980  Biso   1.000  N
  N8       1.0000 0.44048  0.12442  0.00980  Biso   1.000  N
  N9       1.0000 0.39944  0.60916  0.29611  Biso   1.000  N
  N10      1.0000 0.39944  0.89084  0.79611  Biso   1.000  N
  N11      1.0000 0.60056  0.39084  0.70389  Biso   1.000  N
  N12      1.0000 0.60056  0.10916  0.20389  Biso   1.000  N
  N13      1.0000 0.29024  0.62550  0.33868  Biso   1.000  N
  N14      1.0000 0.29024  0.87450  0.83868  Biso   1.000  N
  N15      1.0000 0.70976  0.37450  0.66132  Biso   1.000  N
  N16      1.0000 0.70976  0.12550  0.16132  Biso   1.000  N
  N17      1.0000 0.46004  0.66897  0.15786  Biso   1.000  N
  N18      1.0000 0.46004  0.83103  0.65786  Biso   1.000  N
  N19      1.0000 0.53996  0.33103  0.84214  Biso   1.000  N
  N20      1.0000 0.53996  0.16897  0.34214  Biso   1.000  N
  N21      1.0000 0.39526  0.73285  0.06540  Biso   1.000  N
  N22      1.0000 0.39526  0.76715  0.56540  Biso   1.000  N
  N23      1.0000 0.60474  0.26715  0.93460  Biso   1.000  N
  N24      1.0000 0.60474  0.23285  0.43460  Biso   1.000  N
  N25      1.0000 0.59807  0.68059  0.23184  Biso   1.000  N
  N26      1.0000 0.59807  0.81941  0.73184  Biso   1.000  N
  N27      1.0000 0.40193  0.31941  0.76816  Biso   1.000  N
  N28      1.0000 0.40193  0.18059  0.26816  Biso   1.000  N
  N29      1.0000 0.70692  0.68962  0.18733  Biso   1.000  N
  N30      1.0000 0.70692  0.81038  0.68733  Biso   1.000  N
  N31      1.0000 0.29308  0.31038  0.81267  Biso   1.000  N
  N32      1.0000 0.29308  0.18962  0.31267  Biso   1.000  N
  C1       1.0000 0.53201  0.66464  0.42659  Biso   1.000  C
  C2       1.0000 0.53201  0.83536  0.92659  Biso   1.000  C
  C3       1.0000 0.46799  0.33536  0.57341  Biso   1.000  C
  C4       1.0000 0.46799  0.16464  0.07341  Biso   1.000  C
  H1       1.0000 0.51250  0.72460  0.42440  Biso   1.000  H
  H2       1.0000 0.51250  0.77540  0.92440  Biso   1.000  H
  H3       1.0000 0.48750  0.27540  0.57560  Biso   1.000  H
  H4       1.0000 0.48750  0.22460  0.07560  Biso   1.000  H
  C5       1.0000 0.58244  0.53675  0.47032  Biso   1.000  C
  C6       1.0000 0.58244  0.96325  0.97032  Biso   1.000  C
  C7       1.0000 0.41756  0.46325  0.52968  Biso   1.000  C
  C8       1.0000 0.41756  0.03675  0.02968  Biso   1.000  C
  H5       1.0000 0.60360  0.49240  0.50270  Biso   1.000  H
  H6       1.0000 0.60360  0.00760  0.00270  Biso   1.000  H
  H7       1.0000 0.39640  0.50760  0.49730  Biso   1.000  H
  H8       1.0000 0.39640  0.99240  0.99730  Biso   1.000  H
  C9       1.0000 0.56829  0.52702  0.39436  Biso   1.000  C
  C10      1.0000 0.56829  0.97298  0.89436  Biso   1.000  C
  C11      1.0000 0.43171  0.47298  0.60564  Biso   1.000  C
  C12      1.0000 0.43171  0.02702  0.10564  Biso   1.000  C
  H9       1.0000 0.57850  0.47440  0.36530  Biso   1.000  H
  H10      1.0000 0.57850  0.02560  0.86530  Biso   1.000  H
  H11      1.0000 0.42150  0.52560  0.63470  Biso   1.000  H
  H12      1.0000 0.42150  0.97440  0.13470  Biso   1.000  H
  C13      1.0000 0.56646  0.66611  0.56580  Biso   1.000  C
  C14      1.0000 0.56646  0.83389  0.06580  Biso   1.000  C
  C15      1.0000 0.43354  0.33389  0.43420  Biso   1.000  C
  C16      1.0000 0.43354  0.16611  0.93420  Biso   1.000  C
  H13      1.0000 0.54940  0.72960  0.56390  Biso   1.000  H
  H14      1.0000 0.54940  0.77040  0.06390  Biso   1.000  H
  H15      1.0000 0.45060  0.27040  0.43610  Biso   1.000  H
  H16      1.0000 0.45060  0.22960  0.93610  Biso   1.000  H
  H17      1.0000 0.53860  0.63080  0.60090  Biso   1.000  H
  H18      1.0000 0.53860  0.86920  0.10090  Biso   1.000  H
  H19      1.0000 0.46140  0.36920  0.39910  Biso   1.000  H
  H20      1.0000 0.46140  0.13080  0.89910  Biso   1.000  H
  H21      1.0000 0.61600  0.66560  0.58250  Biso   1.000  H
  H22      1.0000 0.61600  0.83440  0.08250  Biso   1.000  H
  H23      1.0000 0.38400  0.33440  0.41750  Biso   1.000  H
  H24      1.0000 0.38400  0.16560  0.91750  Biso   1.000  H
  C17      1.0000 0.34909  0.66986  0.31491  Biso   1.000  C
  C18      1.0000 0.34909  0.83014  0.81491  Biso   1.000  C
  C19      1.0000 0.65091  0.33014  0.68509  Biso   1.000  C
  C20      1.0000 0.65091  0.16986  0.18509  Biso   1.000  C
  H25      1.0000 0.35390  0.73460  0.31200  Biso   1.000  H
  H26      1.0000 0.35390  0.76540  0.81200  Biso   1.000  H
  H27      1.0000 0.64610  0.26540  0.68800  Biso   1.000  H
  H28      1.0000 0.64610  0.23460  0.18800  Biso   1.000  H
  C21      1.0000 0.30355  0.53144  0.33476  Biso   1.000  C
  C22      1.0000 0.30355  0.96856  0.83476  Biso   1.000  C
  C23      1.0000 0.69645  0.46856  0.66524  Biso   1.000  C
  C24      1.0000 0.69645  0.03144  0.16524  Biso   1.000  C
  H29      1.0000 0.27250  0.48330  0.34780  Biso   1.000  H
  H30      1.0000 0.27250  0.01670  0.84780  Biso   1.000  H
  H31      1.0000 0.72750  0.51670  0.65220  Biso   1.000  H
  H32      1.0000 0.72750  0.98330  0.15220  Biso   1.000  H
  C25      1.0000 0.37101  0.52213  0.30812  Biso   1.000  C
  C26      1.0000 0.37101  0.97787  0.80812  Biso   1.000  C
  C27      1.0000 0.62899  0.47787  0.69188  Biso   1.000  C
  C28      1.0000 0.62899  0.02213  0.19188  Biso   1.000  C
  H33      1.0000 0.39420  0.46560  0.29940  Biso   1.000  H
  H34      1.0000 0.39420  0.03440  0.79940  Biso   1.000  H
  H35      1.0000 0.60580  0.53440  0.70060  Biso   1.000  H
  H36      1.0000 0.60580  0.96560  0.20060  Biso   1.000  H
  C29      1.0000 0.22391  0.66977  0.36372  Biso   1.000  C
  C30      1.0000 0.22391  0.83023  0.86372  Biso   1.000  C
  C31      1.0000 0.77609  0.33023  0.63628  Biso   1.000  C
  C32      1.0000 0.77609  0.16977  0.13628  Biso   1.000  C
  H37      1.0000 0.22760  0.73650  0.35800  Biso   1.000  H
  H38      1.0000 0.22760  0.76350  0.85800  Biso   1.000  H
  H39      1.0000 0.77240  0.26350  0.64200  Biso   1.000  H
  H40      1.0000 0.77240  0.23650  0.14200  Biso   1.000  H
  H41      1.0000 0.18400  0.64710  0.33320  Biso   1.000  H
  H42      1.0000 0.18400  0.85290  0.83320  Biso   1.000  H
  H43      1.0000 0.81600  0.35290  0.66680  Biso   1.000  H
  H44      1.0000 0.81600  0.14710  0.16680  Biso   1.000  H
  H45      1.0000 0.21670  0.65480  0.41630  Biso   1.000  H
  H46      1.0000 0.21670  0.84520  0.91630  Biso   1.000  H
  H47      1.0000 0.78330  0.34520  0.58370  Biso   1.000  H
  H48      1.0000 0.78330  0.15480  0.08370  Biso   1.000  H
  C33      1.0000 0.41537  0.73768  0.13968  Biso   1.000  C
  C34      1.0000 0.41537  0.76232  0.63968  Biso   1.000  C
  C35      1.0000 0.58463  0.26232  0.86032  Biso   1.000  C
  C36      1.0000 0.58463  0.23768  0.36032  Biso   1.000  C
  H49      1.0000 0.39990  0.78310  0.17350  Biso   1.000  H
  H50      1.0000 0.39990  0.71690  0.67350  Biso   1.000  H
  H51      1.0000 0.60010  0.21690  0.82650  Biso   1.000  H
  H52      1.0000 0.60010  0.28310  0.32650  Biso   1.000  H
  C37      1.0000 0.42908  0.65680  0.03436  Biso   1.000  C
  C38      1.0000 0.42908  0.84320  0.53436  Biso   1.000  C
  C39      1.0000 0.57092  0.34320  0.96564  Biso   1.000  C
  C40      1.0000 0.57092  0.15680  0.46564  Biso   1.000  C
  H53      1.0000 0.42530  0.63620  0.98410  Biso   1.000  H
  H54      1.0000 0.42530  0.86380  0.48410  Biso   1.000  H
  H55      1.0000 0.57470  0.36380  0.01590  Biso   1.000  H
  H56      1.0000 0.57470  0.13620  0.51590  Biso   1.000  H
  C41      1.0000 0.46922  0.61783  0.09217  Biso   1.000  C
  C42      1.0000 0.46922  0.88217  0.59217  Biso   1.000  C
  C43      1.0000 0.53078  0.38217  0.90783  Biso   1.000  C
  C44      1.0000 0.53078  0.11783  0.40783  Biso   1.000  C
  H57      1.0000 0.49820  0.56510  0.08800  Biso   1.000  H
  H58      1.0000 0.49820  0.93490  0.58800  Biso   1.000  H
  H59      1.0000 0.50180  0.43490  0.91200  Biso   1.000  H
  H60      1.0000 0.50180  0.06510  0.41200  Biso   1.000  H
  C45      1.0000 0.34355  0.79384  0.02593  Biso   1.000  C
  C46      1.0000 0.34355  0.70616  0.52593  Biso   1.000  C
  C47      1.0000 0.65645  0.20616  0.97407  Biso   1.000  C
  C48      1.0000 0.65645  0.29384  0.47407  Biso   1.000  C
  H61      1.0000 0.32410  0.83740  0.06170  Biso   1.000  H
  H62      1.0000 0.32410  0.66260  0.56170  Biso   1.000  H
  H63      1.0000 0.67590  0.16260  0.93830  Biso   1.000  H
  H64      1.0000 0.67590  0.33740  0.43830  Biso   1.000  H
  H65      1.0000 0.36710  0.82770  0.98640  Biso   1.000  H
  H66      1.0000 0.36710  0.67230  0.48640  Biso   1.000  H
  H67      1.0000 0.63290  0.17230  0.01360  Biso   1.000  H
  H68      1.0000 0.63290  0.32770  0.51360  Biso   1.000  H
  H69      1.0000 0.30540  0.75670  0.00370  Biso   1.000  H
  H70      1.0000 0.30540  0.74330  0.50370  Biso   1.000  H
  H71      1.0000 0.69460  0.24330  0.99630  Biso   1.000  H
  H72      1.0000 0.69460  0.25670  0.49630  Biso   1.000  H
  C49      1.0000 0.64755  0.63675  0.19260  Biso   1.000  C
  C50      1.0000 0.64755  0.86325  0.69260  Biso   1.000  C
  C51      1.0000 0.35245  0.36325  0.80740  Biso   1.000  C
  C52      1.0000 0.35245  0.13675  0.30740  Biso   1.000  C
  H73      1.0000 0.64200  0.57730  0.17150  Biso   1.000  H
  H74      1.0000 0.64200  0.92270  0.67150  Biso   1.000  H
  H75      1.0000 0.35800  0.42270  0.82850  Biso   1.000  H
  H76      1.0000 0.35800  0.07730  0.32850  Biso   1.000  H
  C53      1.0000 0.69444  0.77175  0.22447  Biso   1.000  C
  C54      1.0000 0.69444  0.72825  0.72447  Biso   1.000  C
  C55      1.0000 0.30556  0.22825  0.77553  Biso   1.000  C
  C56      1.0000 0.30556  0.27175  0.27553  Biso   1.000  C
  H77      1.0000 0.72590  0.82210  0.22990  Biso   1.000  H
  H78      1.0000 0.72590  0.67790  0.72990  Biso   1.000  H
  H79      1.0000 0.27410  0.17790  0.77010  Biso   1.000  H
  H80      1.0000 0.27410  0.32210  0.27010  Biso   1.000  H
  C57      1.0000 0.62721  0.76585  0.25195  Biso   1.000  C
  C58      1.0000 0.62721  0.73415  0.75195  Biso   1.000  C
  C59      1.0000 0.37279  0.23415  0.74805  Biso   1.000  C
  C60      1.0000 0.37279  0.26585  0.24805  Biso   1.000  C
  H81      1.0000 0.60450  0.81210  0.27990  Biso   1.000  H
  H82      1.0000 0.60450  0.68790  0.77990  Biso   1.000  H
  H83      1.0000 0.39550  0.18790  0.72010  Biso   1.000  H
  H84      1.0000 0.39550  0.31210  0.22010  Biso   1.000  H
  C61      1.0000 0.77291  0.66402  0.14854  Biso   1.000  C
  C62      1.0000 0.77291  0.83598  0.64854  Biso   1.000  C
  C63      1.0000 0.22709  0.33598  0.85146  Biso   1.000  C
  C64      1.0000 0.22709  0.16402  0.35146  Biso   1.000  C
  H85      1.0000 0.77760  0.70230  0.10390  Biso   1.000  H
  H86      1.0000 0.77760  0.79770  0.60390  Biso   1.000  H
  H87      1.0000 0.22240  0.29770  0.89610  Biso   1.000  H
  H88      1.0000 0.22240  0.20230  0.39610  Biso   1.000  H
  H89      1.0000 0.81360  0.67380  0.18250  Biso   1.000  H
  H90      1.0000 0.81360  0.82620  0.68250  Biso   1.000  H
  H91      1.0000 0.18640  0.32620  0.81750  Biso   1.000  H
  H92      1.0000 0.18640  0.17380  0.31750  Biso   1.000  H
  H93      1.0000 0.77070  0.59930  0.13380  Biso   1.000  H
  H94      1.0000 0.77070  0.90070  0.63380  Biso   1.000  H
  H95      1.0000 0.22930  0.40070  0.86620  Biso   1.000  H
  H96      1.0000 0.22930  0.09930  0.36620  Biso   1.000  H
  Cu5      1.0000 0.01392  0.58344  0.26401  Biso   1.000  Cu
  Cu6      1.0000 0.01392  0.91656  0.76401  Biso   1.000  Cu
  Cu7      1.0000 0.98608  0.41656  0.73599  Biso   1.000  Cu
  Cu8      1.0000 0.98608  0.08344  0.23599  Biso   1.000  Cu
  S5       1.0000 0.07097  0.84279  0.29701  Biso   1.000  S
  S6       1.0000 0.07097  0.65721  0.79701  Biso   1.000  S
  S7       1.0000 0.92903  0.15721  0.70299  Biso   1.000  S
  S8       1.0000 0.92903  0.34279  0.20299  Biso   1.000  S
  O17      1.0000 0.06826  0.74521  0.27022  Biso   1.000  O
  O18      1.0000 0.06826  0.75479  0.77022  Biso   1.000  O
  O19      1.0000 0.93174  0.25479  0.72978  Biso   1.000  O
  O20      1.0000 0.93174  0.24521  0.22978  Biso   1.000  O
  O21      1.0000 0.02589  0.90366  0.24730  Biso   1.000  O
  O22      1.0000 0.02589  0.59634  0.74730  Biso   1.000  O
  O23      1.0000 0.97411  0.09634  0.75270  Biso   1.000  O
  O24      1.0000 0.97411  0.40366  0.25270  Biso   1.000  O
  O25      1.0000 0.14642  0.87726  0.29653  Biso   1.000  O
  O26      1.0000 0.14642  0.62274  0.79653  Biso   1.000  O
  O27      1.0000 0.85358  0.12274  0.70347  Biso   1.000  O
  O28      1.0000 0.85358  0.37726  0.20347  Biso   1.000  O
  O29      1.0000 0.04528  0.84639  0.37623  Biso   1.000  O
  O30      1.0000 0.04528  0.65361  0.87623  Biso   1.000  O
  O31      1.0000 0.95472  0.15361  0.62377  Biso   1.000  O
  O32      1.0000 0.95472  0.34639  0.12377  Biso   1.000  O
  N33      1.0000 0.97643  0.62223  0.16061  Biso   1.000  N
  N34      1.0000 0.97643  0.87777  0.66061  Biso   1.000  N
  N35      1.0000 0.02357  0.37777  0.83939  Biso   1.000  N
  N36      1.0000 0.02357  0.12223  0.33939  Biso   1.000  N
  N37      1.0000 0.93054  0.61694  0.04398  Biso   1.000  N
  N38      1.0000 0.93054  0.88306  0.54398  Biso   1.000  N
  N39      1.0000 0.06946  0.38306  0.95602  Biso   1.000  N
  N40      1.0000 0.06946  0.11694  0.45602  Biso   1.000  N
  N41      1.0000 0.10588  0.54170  0.21926  Biso   1.000  N
  N42      1.0000 0.10588  0.95830  0.71926  Biso   1.000  N
  N43      1.0000 0.89412  0.45830  0.78074  Biso   1.000  N
  N44      1.0000 0.89412  0.04170  0.28074  Biso   1.000  N
  N45      1.0000 0.20856  0.55350  0.16179  Biso   1.000  N
  N46      1.0000 0.20856  0.94650  0.66179  Biso   1.000  N
  N47      1.0000 0.79144  0.44650  0.83821  Biso   1.000  N
  N48      1.0000 0.79144  0.05350  0.33821  Biso   1.000  N
  N49      1.0000 0.05209  0.55652  0.37098  Biso   1.000  N
  N50      1.0000 0.05209  0.94348  0.87098  Biso   1.000  N
  N51      1.0000 0.94791  0.44348  0.62902  Biso   1.000  N
  N52      1.0000 0.94791  0.05652  0.12902  Biso   1.000  N
  N53      1.0000 0.08916  0.58071  0.48961  Biso   1.000  N
  N54      1.0000 0.08916  0.91929  0.98961  Biso   1.000  N
  N55      1.0000 0.91084  0.41929  0.51039  Biso   1.000  N
  N56      1.0000 0.91084  0.08071  0.01039  Biso   1.000  N
  N57      1.0000 0.91979  0.61759  0.30791  Biso   1.000  N
  N58      1.0000 0.91979  0.88241  0.80791  Biso   1.000  N
  N59      1.0000 0.08021  0.38241  0.69209  Biso   1.000  N
  N60      1.0000 0.08021  0.11759  0.19209  Biso   1.000  N
  N61      1.0000 0.80957  0.60699  0.34700  Biso   1.000  N
  N62      1.0000 0.80957  0.89301  0.84700  Biso   1.000  N
  N63      1.0000 0.19043  0.39301  0.65300  Biso   1.000  N
  N64      1.0000 0.19043  0.10699  0.15300  Biso   1.000  N
  C65      1.0000 0.95188  0.56696  0.10547  Biso   1.000  C
  C66      1.0000 0.95188  0.93304  0.60547  Biso   1.000  C
  C67      1.0000 0.04812  0.43304  0.89453  Biso   1.000  C
  C68      1.0000 0.04812  0.06696  0.39453  Biso   1.000  C
  H97      1.0000 0.94960  0.50200  0.10870  Biso   1.000  H
  H98      1.0000 0.94960  0.99800  0.60870  Biso   1.000  H
  H99      1.0000 0.05040  0.49800  0.89130  Biso   1.000  H
  H100     1.0000 0.05040  0.00200  0.39130  Biso   1.000  H
  C69      1.0000 0.94244  0.70960  0.06113  Biso   1.000  C
  C70      1.0000 0.94244  0.79040  0.56113  Biso   1.000  C
  C71      1.0000 0.05756  0.29040  0.93887  Biso   1.000  C
  C72      1.0000 0.05756  0.20960  0.43887  Biso   1.000  C
  H101     1.0000 0.93300  0.76070  0.02940  Biso   1.000  H
  H102     1.0000 0.93300  0.73930  0.52940  Biso   1.000  H
  H103     1.0000 0.06700  0.23930  0.97060  Biso   1.000  H
  H104     1.0000 0.06700  0.26070  0.47060  Biso   1.000  H
  C73      1.0000 0.97061  0.71215  0.13308  Biso   1.000  C
  C74      1.0000 0.97061  0.78785  0.63308  Biso   1.000  C
  C75      1.0000 0.02939  0.28785  0.86692  Biso   1.000  C
  C76      1.0000 0.02939  0.21215  0.36692  Biso   1.000  C
  H105     1.0000 0.98390  0.76610  0.15970  Biso   1.000  H
  H106     1.0000 0.98390  0.73390  0.65970  Biso   1.000  H
  H107     1.0000 0.01610  0.23390  0.84030  Biso   1.000  H
  H108     1.0000 0.01610  0.26610  0.34030  Biso   1.000  H
  C77      1.0000 0.89955  0.58026  0.97295  Biso   1.000  C
  C78      1.0000 0.89955  0.91974  0.47295  Biso   1.000  C
  C79      1.0000 0.10045  0.41974  0.02705  Biso   1.000  C
  C80      1.0000 0.10045  0.08026  0.52705  Biso   1.000  C
  H109     1.0000 0.89690  0.51320  0.97580  Biso   1.000  H
  H110     1.0000 0.89690  0.98680  0.47580  Biso   1.000  H
  H111     1.0000 0.10310  0.48680  0.02420  Biso   1.000  H
  H112     1.0000 0.10310  0.01320  0.52420  Biso   1.000  H
  H113     1.0000 0.85210  0.60540  0.96480  Biso   1.000  H
  H114     1.0000 0.85210  0.89460  0.46480  Biso   1.000  H
  H115     1.0000 0.14790  0.39460  0.03520  Biso   1.000  H
  H116     1.0000 0.14790  0.10540  0.53520  Biso   1.000  H
  H117     1.0000 0.92910  0.59800  0.93130  Biso   1.000  H
  H118     1.0000 0.92910  0.90200  0.43130  Biso   1.000  H
  H119     1.0000 0.07090  0.40200  0.06870  Biso   1.000  H
  H120     1.0000 0.07090  0.09800  0.56870  Biso   1.000  H
  C81      1.0000 0.15110  0.59962  0.18670  Biso   1.000  C
  C82      1.0000 0.15110  0.90038  0.68670  Biso   1.000  C
  C83      1.0000 0.84890  0.40038  0.81330  Biso   1.000  C
  C84      1.0000 0.84890  0.09962  0.31330  Biso   1.000  C
  H121     1.0000 0.14400  0.66390  0.18170  Biso   1.000  H
  H122     1.0000 0.14400  0.83610  0.68170  Biso   1.000  H
  H123     1.0000 0.85600  0.33610  0.81830  Biso   1.000  H
  H124     1.0000 0.85600  0.16390  0.31830  Biso   1.000  H
  C85      1.0000 0.19960  0.46051  0.17914  Biso   1.000  C
  C86      1.0000 0.19960  0.03949  0.67914  Biso   1.000  C
  C87      1.0000 0.80040  0.53949  0.82086  Biso   1.000  C
  C88      1.0000 0.80040  0.96051  0.32086  Biso   1.000  C
  H125     1.0000 0.23090  0.41170  0.16870  Biso   1.000  H
  H126     1.0000 0.23090  0.08830  0.66870  Biso   1.000  H
  H127     1.0000 0.76910  0.58830  0.83130  Biso   1.000  H
  H128     1.0000 0.76910  0.91170  0.33130  Biso   1.000  H
  C89      1.0000 0.13586  0.45392  0.21454  Biso   1.000  C
  C90      1.0000 0.13586  0.04608  0.71454  Biso   1.000  C
  C91      1.0000 0.86414  0.54608  0.78546  Biso   1.000  C
  C92      1.0000 0.86414  0.95392  0.28546  Biso   1.000  C
  H129     1.0000 0.11570  0.39890  0.23270  Biso   1.000  H
  H130     1.0000 0.11570  0.10110  0.73270  Biso   1.000  H
  H131     1.0000 0.88430  0.60110  0.76730  Biso   1.000  H
  H132     1.0000 0.88430  0.89890  0.26730  Biso   1.000  H
  C93      1.0000 0.26920  0.59631  0.12410  Biso   1.000  C
  C94      1.0000 0.26920  0.90369  0.62410  Biso   1.000  C
  C95      1.0000 0.73080  0.40369  0.87590  Biso   1.000  C
  C96      1.0000 0.73080  0.09631  0.37590  Biso   1.000  C
  H133     1.0000 0.26410  0.66320  0.12460  Biso   1.000  H
  H134     1.0000 0.26410  0.83680  0.62460  Biso   1.000  H
  H135     1.0000 0.73590  0.33680  0.87540  Biso   1.000  H
  H136     1.0000 0.73590  0.16320  0.37540  Biso   1.000  H
  H137     1.0000 0.31310  0.57910  0.15060  Biso   1.000  H
  H138     1.0000 0.31310  0.92090  0.65060  Biso   1.000  H
  H139     1.0000 0.68690  0.42090  0.84940  Biso   1.000  H
  H140     1.0000 0.68690  0.07910  0.34940  Biso   1.000  H
  H141     1.0000 0.27040  0.57470  0.07230  Biso   1.000  H
  H142     1.0000 0.27040  0.92530  0.57230  Biso   1.000  H
  H143     1.0000 0.72960  0.42530  0.92770  Biso   1.000  H
  H144     1.0000 0.72960  0.07470  0.42770  Biso   1.000  H
  C97      1.0000 0.06346  0.62027  0.42501  Biso   1.000  C
  C98      1.0000 0.06346  0.87973  0.92501  Biso   1.000  C
  C99      1.0000 0.93654  0.37973  0.57499  Biso   1.000  C
  C100     1.0000 0.93654  0.12027  0.07499  Biso   1.000  C
  H145     1.0000 0.05480  0.68400  0.41890  Biso   1.000  H
  H146     1.0000 0.05480  0.81600  0.91890  Biso   1.000  H
  H147     1.0000 0.94520  0.31600  0.58110  Biso   1.000  H
  H148     1.0000 0.94520  0.18400  0.08110  Biso   1.000  H
  C101     1.0000 0.09426  0.48589  0.47659  Biso   1.000  C
  C102     1.0000 0.09426  0.01411  0.97659  Biso   1.000  C
  C103     1.0000 0.90574  0.51411  0.52341  Biso   1.000  C
  C104     1.0000 0.90574  0.98589  0.02341  Biso   1.000  C
  H149     1.0000 0.11010  0.44040  0.51110  Biso   1.000  H
  H150     1.0000 0.11010  0.05960  0.01110  Biso   1.000  H
  H151     1.0000 0.88990  0.55960  0.48890  Biso   1.000  H
  H152     1.0000 0.88990  0.94040  0.98890  Biso   1.000  H
  C105     1.0000 0.07140  0.47227  0.40300  Biso   1.000  C
  C106     1.0000 0.07140  0.02773  0.90300  Biso   1.000  C
  C107     1.0000 0.92860  0.52773  0.59700  Biso   1.000  C
  C108     1.0000 0.92860  0.97227  0.09700  Biso   1.000  C
  H153     1.0000 0.06920  0.41470  0.37820  Biso   1.000  H
  H154     1.0000 0.06920  0.08530  0.87820  Biso   1.000  H
  H155     1.0000 0.93080  0.58530  0.62180  Biso   1.000  H
  H156     1.0000 0.93080  0.91470  0.12180  Biso   1.000  H
  C109     1.0000 0.10936  0.62903  0.56068  Biso   1.000  C
  C110     1.0000 0.10936  0.87097  0.06068  Biso   1.000  C
  C111     1.0000 0.89064  0.37097  0.43932  Biso   1.000  C
  C112     1.0000 0.89064  0.12903  0.93932  Biso   1.000  C
  H157     1.0000 0.10430  0.69540  0.55360  Biso   1.000  H
  H158     1.0000 0.10430  0.80460  0.05360  Biso   1.000  H
  H159     1.0000 0.89570  0.30460  0.44640  Biso   1.000  H
  H160     1.0000 0.89570  0.19540  0.94640  Biso   1.000  H
  H161     1.0000 0.07860  0.60880  0.60050  Biso   1.000  H
  H162     1.0000 0.07860  0.89120  0.10050  Biso   1.000  H
  H163     1.0000 0.92140  0.39120  0.39950  Biso   1.000  H
  H164     1.0000 0.92140  0.10880  0.89950  Biso   1.000  H
  H165     1.0000 0.15840  0.61460  0.57460  Biso   1.000  H
  H166     1.0000 0.15840  0.88540  0.07460  Biso   1.000  H
  H167     1.0000 0.84160  0.38540  0.42540  Biso   1.000  H
  H168     1.0000 0.84160  0.11460  0.92540  Biso   1.000  H
  C113     1.0000 0.86224  0.56391  0.30975  Biso   1.000  C
  C114     1.0000 0.86224  0.93609  0.80975  Biso   1.000  C
  C115     1.0000 0.13776  0.43609  0.69025  Biso   1.000  C
  C116     1.0000 0.13776  0.06391  0.19025  Biso   1.000  C
  H169     1.0000 0.85860  0.50450  0.28820  Biso   1.000  H
  H170     1.0000 0.85860  0.99550  0.78820  Biso   1.000  H
  H171     1.0000 0.14140  0.49550  0.71180  Biso   1.000  H
  H172     1.0000 0.14140  0.00450  0.21180  Biso   1.000  H
  C117     1.0000 0.83511  0.69280  0.37052  Biso   1.000  C
  C118     1.0000 0.83511  0.80720  0.87052  Biso   1.000  C
  C119     1.0000 0.16489  0.30720  0.62948  Biso   1.000  C
  C120     1.0000 0.16489  0.19280  0.12948  Biso   1.000  C
  H173     1.0000 0.81050  0.73780  0.39790  Biso   1.000  H
  H174     1.0000 0.81050  0.76220  0.89790  Biso   1.000  H
  H175     1.0000 0.18950  0.26220  0.60210  Biso   1.000  H
  H176     1.0000 0.18950  0.23780  0.10210  Biso   1.000  H
  C121     1.0000 0.90349  0.69881  0.34576  Biso   1.000  C
  C122     1.0000 0.90349  0.80119  0.84576  Biso   1.000  C
  C123     1.0000 0.09651  0.30119  0.65424  Biso   1.000  C
  C124     1.0000 0.09651  0.19881  0.15424  Biso   1.000  C
  H177     1.0000 0.93420  0.74960  0.35320  Biso   1.000  H
  H178     1.0000 0.93420  0.75040  0.85320  Biso   1.000  H
  H179     1.0000 0.06580  0.25040  0.64680  Biso   1.000  H
  H180     1.0000 0.06580  0.24960  0.14680  Biso   1.000  H
  C125     1.0000 0.73844  0.56883  0.36292  Biso   1.000  C
  C126     1.0000 0.73844  0.93117  0.86292  Biso   1.000  C
  C127     1.0000 0.26156  0.43117  0.63708  Biso   1.000  C
  C128     1.0000 0.26156  0.06883  0.13708  Biso   1.000  C
  H181     1.0000 0.73680  0.55170  0.41580  Biso   1.000  H
  H182     1.0000 0.73680  0.94830  0.91580  Biso   1.000  H
  H183     1.0000 0.26320  0.44830  0.58420  Biso   1.000  H
  H184     1.0000 0.26320  0.05170  0.08420  Biso   1.000  H
  H185     1.0000 0.70240  0.61530  0.35160  Biso   1.000  H
  H186     1.0000 0.70240  0.88470  0.85160  Biso   1.000  H
  H187     1.0000 0.29760  0.38470  0.64840  Biso   1.000  H
  H188     1.0000 0.29760  0.11530  0.14840  Biso   1.000  H
  H189     1.0000 0.72960  0.51450  0.33180  Biso   1.000  H
  H190     1.0000 0.72960  0.98550  0.83180  Biso   1.000  H
  H191     1.0000 0.27040  0.48550  0.66820  Biso   1.000  H
  H192     1.0000 0.27040  0.01450  0.16820  Biso   1.000  H
  O33      1.0000 0.24702  0.82486  0.19041  Biso   1.000  O
  O34      1.0000 0.24702  0.67514  0.69041  Biso   1.000  O
  O35      1.0000 0.75298  0.17514  0.80959  Biso   1.000  O
  O36      1.0000 0.75298  0.32486  0.30959  Biso   1.000  O
  H193     1.0000 0.21410  0.83800  0.21800  Biso   1.000  H
  H194     1.0000 0.21410  0.66200  0.71800  Biso   1.000  H
  H195     1.0000 0.78590  0.16200  0.78200  Biso   1.000  H
  H196     1.0000 0.78590  0.33800  0.28200  Biso   1.000  H
  H197     1.0000 0.27910  0.84400  0.20940  Biso   1.000  H
  H198     1.0000 0.27910  0.65600  0.70940  Biso   1.000  H
  H199     1.0000 0.72090  0.15600  0.79060  Biso   1.000  H
  H200     1.0000 0.72090  0.34400  0.29060  Biso   1.000  H
  O37      1.0000 0.26049  0.92404  0.40307  Biso   1.000  O
  O38      1.0000 0.26049  0.57596  0.90307  Biso   1.000  O
  O39      1.0000 0.73951  0.07596  0.59693  Biso   1.000  O
  O40      1.0000 0.73951  0.42404  0.09693  Biso   1.000  O
  H201     1.0000 0.30000  0.92600  0.38770  Biso   1.000  H
  H202     1.0000 0.30000  0.57400  0.88770  Biso   1.000  H
  H203     1.0000 0.70000  0.07400  0.61230  Biso   1.000  H
  H204     1.0000 0.70000  0.42600  0.11230  Biso   1.000  H
  H205     1.0000 0.23520  0.91700  0.36500  Biso   1.000  H
  H206     1.0000 0.23520  0.58300  0.86500  Biso   1.000  H
  H207     1.0000 0.76480  0.08300  0.63500  Biso   1.000  H
  H208     1.0000 0.76480  0.41700  0.13500  Biso   1.000  H
  O41      1.0000 0.14936  0.84363  0.49416  Biso   1.000  O
  O42      1.0000 0.14936  0.65637  0.99416  Biso   1.000  O
  O43      1.0000 0.85064  0.15637  0.50584  Biso   1.000  O
  O44      1.0000 0.85064  0.34363  0.00584  Biso   1.000  O
  H209     1.0000 0.11830  0.84600  0.45960  Biso   1.000  H
  H210     1.0000 0.11830  0.65400  0.95960  Biso   1.000  H
  H211     1.0000 0.88170  0.15400  0.54040  Biso   1.000  H
  H212     1.0000 0.88170  0.34600  0.04040  Biso   1.000  H
  H213     1.0000 0.18120  0.86300  0.47600  Biso   1.000  H
  H214     1.0000 0.18120  0.63700  0.97600  Biso   1.000  H
  H215     1.0000 0.81880  0.13700  0.52400  Biso   1.000  H
  H216     1.0000 0.81880  0.36300  0.02400  Biso   1.000  H
  N65      1.0000 0.70259  0.78398  0.47097  Biso   1.000  N
  N66      1.0000 0.70259  0.71602  0.97097  Biso   1.000  N
  N67      1.0000 0.29741  0.21602  0.52903  Biso   1.000  N
  N68      1.0000 0.29741  0.28398  0.02903  Biso   1.000  N
  C129     1.0000 0.66087  0.84048  0.46150  Biso   1.000  C
  C130     1.0000 0.66087  0.65952  0.96150  Biso   1.000  C
  C131     1.0000 0.33913  0.15952  0.53850  Biso   1.000  C
  C132     1.0000 0.33913  0.34048  0.03850  Biso   1.000  C
  C133     1.0000 0.60682  0.91312  0.44966  Biso   1.000  C
  C134     1.0000 0.60682  0.58688  0.94966  Biso   1.000  C
  C135     1.0000 0.39318  0.08688  0.55034  Biso   1.000  C
  C136     1.0000 0.39318  0.41312  0.05034  Biso   1.000  C
  H217     1.0000 0.56000  0.88500  0.44640  Biso   1.000  H
  H218     1.0000 0.56000  0.61500  0.94640  Biso   1.000  H
  H219     1.0000 0.44000  0.11500  0.55360  Biso   1.000  H
  H220     1.0000 0.44000  0.38500  0.05360  Biso   1.000  H
  H221     1.0000 0.61580  0.94600  0.40310  Biso   1.000  H
  H222     1.0000 0.61580  0.55400  0.90310  Biso   1.000  H
  H223     1.0000 0.38420  0.05400  0.59690  Biso   1.000  H
  H224     1.0000 0.38420  0.44600  0.09690  Biso   1.000  H
  H225     1.0000 0.60900  0.95630  0.49170  Biso   1.000  H
  H226     1.0000 0.60900  0.54370  0.99170  Biso   1.000  H
  H227     1.0000 0.39100  0.04370  0.50830  Biso   1.000  H
  H228     1.0000 0.39100  0.45630  0.00830  Biso   1.000  H
