data_image0
_cell_length_a       7.5297
_cell_length_b       23.628
_cell_length_c       9.2916
_cell_angle_alpha    90
_cell_angle_beta     104.175
_cell_angle_gamma    90

_symmetry_space_group_name_H-M    "P 1"
_symmetry_int_tables_number       1

loop_
  _symmetry_equiv_pos_as_xyz
  'x, y, z'

loop_
  _atom_site_label
  _atom_site_occupancy
  _atom_site_fract_x
  _atom_site_fract_y
  _atom_site_fract_z
  _atom_site_thermal_displace_type
  _atom_site_B_iso_or_equiv
  _atom_site_type_symbol
  Cu1      1.0000 0.92344  0.11189  0.34920  Biso   1.000  Cu
  Cu2      1.0000 0.92344  0.38811  0.84920  Biso   1.000  Cu
  Cu3      1.0000 0.07656  0.88811  0.65080  Biso   1.000  Cu
  Cu4      1.0000 0.07656  0.61189  0.15080  Biso   1.000  Cu
  N1       1.0000 0.11360  0.24195  0.68048  Biso   1.000  N
  N2       1.0000 0.11360  0.25805  0.18048  Biso   1.000  N
  N3       1.0000 0.88640  0.75805  0.31952  Biso   1.000  N
  N4       1.0000 0.88640  0.74195  0.81952  Biso   1.000  N
  N5       1.0000 0.19650  0.34243  0.69090  Biso   1.000  N
  N6       1.0000 0.19650  0.15757  0.19090  Biso   1.000  N
  N7       1.0000 0.80350  0.65757  0.30910  Biso   1.000  N
  N8       1.0000 0.80350  0.84243  0.80910  Biso   1.000  N
  N9       1.0000 0.97250  0.18147  0.47044  Biso   1.000  N
  N10      1.0000 0.97250  0.31853  0.97044  Biso   1.000  N
  N11      1.0000 0.02750  0.81853  0.52956  Biso   1.000  N
  N12      1.0000 0.02750  0.68147  0.02956  Biso   1.000  N
  N13      1.0000 0.47370  0.06293  0.59410  Biso   1.000  N
  N14      1.0000 0.47370  0.43707  0.09410  Biso   1.000  N
  N15      1.0000 0.52630  0.93707  0.40590  Biso   1.000  N
  N16      1.0000 0.52630  0.56293  0.90590  Biso   1.000  N
  N17      1.0000 0.72750  0.07599  0.47291  Biso   1.000  N
  N18      1.0000 0.72750  0.42401  0.97291  Biso   1.000  N
  N19      1.0000 0.27250  0.92401  0.52709  Biso   1.000  N
  N20      1.0000 0.27250  0.57599  0.02709  Biso   1.000  N
  N21      1.0000 0.14900  0.07578  0.46986  Biso   1.000  N
  N22      1.0000 0.14900  0.42422  0.96986  Biso   1.000  N
  N23      1.0000 0.85100  0.92422  0.53014  Biso   1.000  N
  N24      1.0000 0.85100  0.57578  0.03014  Biso   1.000  N
  N25      1.0000 0.74664  0.15045  0.17939  Biso   1.000  N
  N26      1.0000 0.74664  0.34955  0.67939  Biso   1.000  N
  N27      1.0000 0.25336  0.84955  0.82061  Biso   1.000  N
  N28      1.0000 0.25336  0.65045  0.32061  Biso   1.000  N
  N29      1.0000 0.86930  0.04704  0.20603  Biso   1.000  N
  N30      1.0000 0.86930  0.45296  0.70603  Biso   1.000  N
  N31      1.0000 0.13070  0.95296  0.79397  Biso   1.000  N
  N32      1.0000 0.13070  0.54704  0.29397  Biso   1.000  N
  C1       1.0000 0.15580  0.29573  0.67720  Biso   1.000  C
  C2       1.0000 0.15580  0.20427  0.17720  Biso   1.000  C
  C3       1.0000 0.84420  0.70427  0.32280  Biso   1.000  C
  C4       1.0000 0.84420  0.79573  0.82280  Biso   1.000  C
  C5       1.0000 0.03950  0.21286  0.56320  Biso   1.000  C
  C6       1.0000 0.03950  0.28714  0.06320  Biso   1.000  C
  C7       1.0000 0.96050  0.78714  0.43680  Biso   1.000  C
  C8       1.0000 0.96050  0.71286  0.93680  Biso   1.000  C
  C9       1.0000 0.60260  0.07021  0.52289  Biso   1.000  C
  C10      1.0000 0.60260  0.42979  0.02289  Biso   1.000  C
  C11      1.0000 0.39740  0.92979  0.47711  Biso   1.000  C
  C12      1.0000 0.39740  0.57021  0.97711  Biso   1.000  C
  C13      1.0000 0.30330  0.07041  0.52202  Biso   1.000  C
  C14      1.0000 0.30330  0.42959  0.02202  Biso   1.000  C
  C15      1.0000 0.69670  0.92959  0.47798  Biso   1.000  C
  C16      1.0000 0.69670  0.57041  0.97798  Biso   1.000  C
  C17      1.0000 0.69740  0.20507  0.17390  Biso   1.000  C
  C18      1.0000 0.69740  0.29493  0.67390  Biso   1.000  C
  C19      1.0000 0.30260  0.79493  0.82610  Biso   1.000  C
  C20      1.0000 0.30260  0.70507  0.32610  Biso   1.000  C
  C21      1.0000 0.57750  0.22947  0.05150  Biso   1.000  C
  C22      1.0000 0.57750  0.27053  0.55150  Biso   1.000  C
  C23      1.0000 0.42250  0.77053  0.94850  Biso   1.000  C
  C24      1.0000 0.42250  0.72947  0.44850  Biso   1.000  C
  C25      1.0000 0.50500  0.19421  0.93250  Biso   1.000  C
  C26      1.0000 0.50500  0.30579  0.43250  Biso   1.000  C
  C27      1.0000 0.49500  0.80579  0.06750  Biso   1.000  C
  C28      1.0000 0.49500  0.69421  0.56750  Biso   1.000  C
  C29      1.0000 0.55690  0.13790  0.93560  Biso   1.000  C
  C30      1.0000 0.55690  0.36210  0.43560  Biso   1.000  C
  C31      1.0000 0.44310  0.86210  0.06440  Biso   1.000  C
  C32      1.0000 0.44310  0.63790  0.56440  Biso   1.000  C
  C33      1.0000 0.68030  0.11705  0.06041  Biso   1.000  C
  C34      1.0000 0.68030  0.38295  0.56041  Biso   1.000  C
  C35      1.0000 0.31970  0.88295  0.93959  Biso   1.000  C
  C36      1.0000 0.31970  0.61705  0.43959  Biso   1.000  C
  C37      1.0000 0.53220  0.29145  0.04860  Biso   1.000  C
  C38      1.0000 0.53220  0.20855  0.54860  Biso   1.000  C
  C39      1.0000 0.46780  0.70855  0.95140  Biso   1.000  C
  C40      1.0000 0.46780  0.79145  0.45140  Biso   1.000  C
  C41      1.0000 0.93540  0.99456  0.23325  Biso   1.000  C
  C42      1.0000 0.93540  0.50544  0.73325  Biso   1.000  C
  C43      1.0000 0.06460  0.00544  0.76675  Biso   1.000  C
  C44      1.0000 0.06460  0.49456  0.26675  Biso   1.000  C
  C45      1.0000 0.88930  0.95053  0.13140  Biso   1.000  C
  C46      1.0000 0.88930  0.54947  0.63140  Biso   1.000  C
  C47      1.0000 0.11070  0.04947  0.86860  Biso   1.000  C
  C48      1.0000 0.11070  0.45053  0.36860  Biso   1.000  C
  C49      1.0000 0.77120  0.96306  0.99470  Biso   1.000  C
  C50      1.0000 0.77120  0.53694  0.49470  Biso   1.000  C
  C51      1.0000 0.22880  0.03694  0.00530  Biso   1.000  C
  C52      1.0000 0.22880  0.46306  0.50530  Biso   1.000  C
  C53      1.0000 0.70020  0.01720  0.96630  Biso   1.000  C
  C54      1.0000 0.70020  0.48280  0.46630  Biso   1.000  C
  C55      1.0000 0.29980  0.98280  0.03370  Biso   1.000  C
  C56      1.0000 0.29980  0.51720  0.53370  Biso   1.000  C
  C57      1.0000 0.75020  0.05849  0.07514  Biso   1.000  C
  C58      1.0000 0.75020  0.44151  0.57514  Biso   1.000  C
  C59      1.0000 0.24980  0.94151  0.92486  Biso   1.000  C
  C60      1.0000 0.24980  0.55849  0.42486  Biso   1.000  C
  C61      1.0000 0.96570  0.89209  0.17000  Biso   1.000  C
  C62      1.0000 0.96570  0.60791  0.67000  Biso   1.000  C
  C63      1.0000 0.03430  0.10791  0.83000  Biso   1.000  C
  C64      1.0000 0.03430  0.39209  0.33000  Biso   1.000  C
  H1       1.0000 0.74670  0.22830  0.25770  Biso   1.000  H
  H2       1.0000 0.74670  0.27170  0.75770  Biso   1.000  H
  H3       1.0000 0.25330  0.77170  0.74230  Biso   1.000  H
  H4       1.0000 0.25330  0.72830  0.24230  Biso   1.000  H
  H5       1.0000 0.41910  0.20880  0.84820  Biso   1.000  H
  H6       1.0000 0.41910  0.29120  0.34820  Biso   1.000  H
  H7       1.0000 0.58090  0.79120  0.15180  Biso   1.000  H
  H8       1.0000 0.58090  0.70880  0.65180  Biso   1.000  H
  H9       1.0000 0.50850  0.11390  0.85330  Biso   1.000  H
  H10      1.0000 0.50850  0.38610  0.35330  Biso   1.000  H
  H11      1.0000 0.49150  0.88610  0.14670  Biso   1.000  H
  H12      1.0000 0.49150  0.61390  0.64670  Biso   1.000  H
  H13      1.0000 0.54530  0.30800  0.95500  Biso   1.000  H
  H14      1.0000 0.54530  0.19200  0.45500  Biso   1.000  H
  H15      1.0000 0.45470  0.69200  0.04500  Biso   1.000  H
  H16      1.0000 0.45470  0.80800  0.54500  Biso   1.000  H
  H17      1.0000 0.61600  0.31050  0.13200  Biso   1.000  H
  H18      1.0000 0.61600  0.18950  0.63200  Biso   1.000  H
  H19      1.0000 0.38400  0.68950  0.86800  Biso   1.000  H
  H20      1.0000 0.38400  0.81050  0.36800  Biso   1.000  H
  H21      1.0000 0.40590  0.29630  0.05690  Biso   1.000  H
  H22      1.0000 0.40590  0.20370  0.55690  Biso   1.000  H
  H23      1.0000 0.59410  0.70370  0.94310  Biso   1.000  H
  H24      1.0000 0.59410  0.79630  0.44310  Biso   1.000  H
  H25      1.0000 0.01770  0.98700  0.32640  Biso   1.000  H
  H26      1.0000 0.01770  0.51300  0.82640  Biso   1.000  H
  H27      1.0000 0.98230  0.01300  0.67360  Biso   1.000  H
  H28      1.0000 0.98230  0.48700  0.17360  Biso   1.000  H
  H29      1.0000 0.73920  0.93450  0.92090  Biso   1.000  H
  H30      1.0000 0.73920  0.56550  0.42090  Biso   1.000  H
  H31      1.0000 0.26080  0.06550  0.07910  Biso   1.000  H
  H32      1.0000 0.26080  0.43450  0.57910  Biso   1.000  H
  H33      1.0000 0.61840  0.02590  0.87370  Biso   1.000  H
  H34      1.0000 0.61840  0.47410  0.37370  Biso   1.000  H
  H35      1.0000 0.38160  0.97410  0.12630  Biso   1.000  H
  H36      1.0000 0.38160  0.52590  0.62630  Biso   1.000  H
  H37      1.0000 0.06520  0.89380  0.26040  Biso   1.000  H
  H38      1.0000 0.06520  0.60620  0.76040  Biso   1.000  H
  H39      1.0000 0.93480  0.10620  0.73960  Biso   1.000  H
  H40      1.0000 0.93480  0.39380  0.23960  Biso   1.000  H
  H41      1.0000 0.01300  0.87730  0.08810  Biso   1.000  H
  H42      1.0000 0.01300  0.62270  0.58810  Biso   1.000  H
  H43      1.0000 0.98700  0.12270  0.91190  Biso   1.000  H
  H44      1.0000 0.98700  0.37730  0.41190  Biso   1.000  H
  H45      1.0000 0.86860  0.86710  0.18650  Biso   1.000  H
  H46      1.0000 0.86860  0.63290  0.68650  Biso   1.000  H
  H47      1.0000 0.13140  0.13290  0.81350  Biso   1.000  H
  H48      1.0000 0.13140  0.36710  0.31350  Biso   1.000  H
