data_image0
_cell_length_a       8.862
_cell_length_b       18.299
_cell_length_c       13.333
_cell_angle_alpha    90
_cell_angle_beta     98.1
_cell_angle_gamma    90

_symmetry_space_group_name_H-M    "P 1"
_symmetry_int_tables_number       1

loop_
  _symmetry_equiv_pos_as_xyz
  'x, y, z'

loop_
  _atom_site_label
  _atom_site_occupancy
  _atom_site_fract_x
  _atom_site_fract_y
  _atom_site_fract_z
  _atom_site_thermal_displace_type
  _atom_site_B_iso_or_equiv
  _atom_site_type_symbol
  Cu1      1.0000 0.02568  0.07110  0.44163  Biso   1.000  Cu
  Cu2      1.0000 0.52568  0.57110  0.44163  Biso   1.000  Cu
  Cu3      1.0000 0.97432  0.07110  0.05837  Biso   1.000  Cu
  Cu4      1.0000 0.47432  0.57110  0.05837  Biso   1.000  Cu
  Cu5      1.0000 0.97432  0.92890  0.55837  Biso   1.000  Cu
  Cu6      1.0000 0.47432  0.42890  0.55837  Biso   1.000  Cu
  Cu7      1.0000 0.02568  0.92890  0.94163  Biso   1.000  Cu
  Cu8      1.0000 0.52568  0.42890  0.94163  Biso   1.000  Cu
  Cu9      1.0000 0.00000  0.17768  0.25000  Biso   1.000  Cu
  Cu10     1.0000 0.50000  0.67768  0.25000  Biso   1.000  Cu
  Cu11     1.0000 0.00000  0.82232  0.75000  Biso   1.000  Cu
  Cu12     1.0000 0.50000  0.32232  0.75000  Biso   1.000  Cu
  N1       1.0000 0.89060  0.15792  0.39860  Biso   1.000  N
  N2       1.0000 0.39060  0.65792  0.39860  Biso   1.000  N
  N3       1.0000 0.10940  0.15792  0.10140  Biso   1.000  N
  N4       1.0000 0.60940  0.65792  0.10140  Biso   1.000  N
  N5       1.0000 0.10940  0.84208  0.60140  Biso   1.000  N
  N6       1.0000 0.60940  0.34208  0.60140  Biso   1.000  N
  N7       1.0000 0.89060  0.84208  0.89860  Biso   1.000  N
  N8       1.0000 0.39060  0.34208  0.89860  Biso   1.000  N
  N9       1.0000 0.75950  0.16461  0.41220  Biso   1.000  N
  N10      1.0000 0.25950  0.66461  0.41220  Biso   1.000  N
  N11      1.0000 0.24050  0.16461  0.08780  Biso   1.000  N
  N12      1.0000 0.74050  0.66461  0.08780  Biso   1.000  N
  N13      1.0000 0.24050  0.83539  0.58780  Biso   1.000  N
  N14      1.0000 0.74050  0.33539  0.58780  Biso   1.000  N
  N15      1.0000 0.75950  0.83539  0.91220  Biso   1.000  N
  N16      1.0000 0.25950  0.33539  0.91220  Biso   1.000  N
  N17      1.0000 0.63440  0.17320  0.42210  Biso   1.000  N
  N18      1.0000 0.13440  0.67320  0.42210  Biso   1.000  N
  N19      1.0000 0.36560  0.17320  0.07790  Biso   1.000  N
  N20      1.0000 0.86560  0.67320  0.07790  Biso   1.000  N
  N21      1.0000 0.36560  0.82680  0.57790  Biso   1.000  N
  N22      1.0000 0.86560  0.32680  0.57790  Biso   1.000  N
  N23      1.0000 0.63440  0.82680  0.92210  Biso   1.000  N
  N24      1.0000 0.13440  0.32680  0.92210  Biso   1.000  N
  N25      1.0000 0.13150  0.09908  0.32630  Biso   1.000  N
  N26      1.0000 0.63150  0.59908  0.32630  Biso   1.000  N
  N27      1.0000 0.86850  0.09908  0.17370  Biso   1.000  N
  N28      1.0000 0.36850  0.59908  0.17370  Biso   1.000  N
  N29      1.0000 0.86850  0.90092  0.67370  Biso   1.000  N
  N30      1.0000 0.36850  0.40092  0.67370  Biso   1.000  N
  N31      1.0000 0.13150  0.90092  0.82630  Biso   1.000  N
  N32      1.0000 0.63150  0.40092  0.82630  Biso   1.000  N
  N33      1.0000 0.21300  0.06021  0.28270  Biso   1.000  N
  N34      1.0000 0.71300  0.56021  0.28270  Biso   1.000  N
  N35      1.0000 0.78700  0.06021  0.21730  Biso   1.000  N
  N36      1.0000 0.28700  0.56021  0.21730  Biso   1.000  N
  N37      1.0000 0.78700  0.93979  0.71730  Biso   1.000  N
  N38      1.0000 0.28700  0.43979  0.71730  Biso   1.000  N
  N39      1.0000 0.21300  0.93979  0.78270  Biso   1.000  N
  N40      1.0000 0.71300  0.43979  0.78270  Biso   1.000  N
  N41      1.0000 0.29280  0.02570  0.24280  Biso   1.000  N
  N42      1.0000 0.79280  0.52570  0.24280  Biso   1.000  N
  N43      1.0000 0.70720  0.02570  0.25720  Biso   1.000  N
  N44      1.0000 0.20720  0.52570  0.25720  Biso   1.000  N
  N45      1.0000 0.70720  0.97430  0.75720  Biso   1.000  N
  N46      1.0000 0.20720  0.47430  0.75720  Biso   1.000  N
  N47      1.0000 0.29280  0.97430  0.74280  Biso   1.000  N
  N48      1.0000 0.79280  0.47430  0.74280  Biso   1.000  N
  N49      1.0000 0.90610  0.03436  0.54820  Biso   1.000  N
  N50      1.0000 0.40610  0.53436  0.54820  Biso   1.000  N
  N51      1.0000 0.09390  0.03436  0.95180  Biso   1.000  N
  N52      1.0000 0.59390  0.53436  0.95180  Biso   1.000  N
  N53      1.0000 0.09390  0.96564  0.45180  Biso   1.000  N
  N54      1.0000 0.59390  0.46564  0.45180  Biso   1.000  N
  N55      1.0000 0.90610  0.96564  0.04820  Biso   1.000  N
  N56      1.0000 0.40610  0.46564  0.04820  Biso   1.000  N
  N57      1.0000 0.86070  0.07587  0.60930  Biso   1.000  N
  N58      1.0000 0.36070  0.57587  0.60930  Biso   1.000  N
  N59      1.0000 0.13930  0.07587  0.89070  Biso   1.000  N
  N60      1.0000 0.63930  0.57587  0.89070  Biso   1.000  N
  N61      1.0000 0.13930  0.92413  0.39070  Biso   1.000  N
  N62      1.0000 0.63930  0.42413  0.39070  Biso   1.000  N
  N63      1.0000 0.86070  0.92413  0.10930  Biso   1.000  N
  N64      1.0000 0.36070  0.42413  0.10930  Biso   1.000  N
  N65      1.0000 0.81530  0.11560  0.66380  Biso   1.000  N
  N66      1.0000 0.31530  0.61560  0.66380  Biso   1.000  N
  N67      1.0000 0.18470  0.11560  0.83620  Biso   1.000  N
  N68      1.0000 0.68470  0.61560  0.83620  Biso   1.000  N
  N69      1.0000 0.18470  0.88440  0.33620  Biso   1.000  N
  N70      1.0000 0.68470  0.38440  0.33620  Biso   1.000  N
  N71      1.0000 0.81530  0.88440  0.16380  Biso   1.000  N
  N72      1.0000 0.31530  0.38440  0.16380  Biso   1.000  N
  N73      1.0000 0.68650  0.35785  0.05590  Biso   1.000  N
  N74      1.0000 0.18650  0.85785  0.05590  Biso   1.000  N
  N75      1.0000 0.31350  0.35785  0.44410  Biso   1.000  N
  N76      1.0000 0.81350  0.85785  0.44410  Biso   1.000  N
  N77      1.0000 0.31350  0.64215  0.94410  Biso   1.000  N
  N78      1.0000 0.81350  0.14215  0.94410  Biso   1.000  N
  N79      1.0000 0.68650  0.64215  0.55590  Biso   1.000  N
  N80      1.0000 0.18650  0.14215  0.55590  Biso   1.000  N
  C1       1.0000 0.83860  0.36657  0.07830  Biso   1.000  C
  C2       1.0000 0.33860  0.86657  0.07830  Biso   1.000  C
  C3       1.0000 0.16140  0.36657  0.42170  Biso   1.000  C
  C4       1.0000 0.66140  0.86657  0.42170  Biso   1.000  C
  C5       1.0000 0.16140  0.63343  0.92170  Biso   1.000  C
  C6       1.0000 0.66140  0.13343  0.92170  Biso   1.000  C
  C7       1.0000 0.83860  0.63343  0.57830  Biso   1.000  C
  C8       1.0000 0.33860  0.13343  0.57830  Biso   1.000  C
  C9       1.0000 0.92590  0.31381  0.13570  Biso   1.000  C
  C10      1.0000 0.42590  0.81381  0.13570  Biso   1.000  C
  C11      1.0000 0.07410  0.31381  0.36430  Biso   1.000  C
  C12      1.0000 0.57410  0.81381  0.36430  Biso   1.000  C
  C13      1.0000 0.07410  0.68619  0.86430  Biso   1.000  C
  C14      1.0000 0.57410  0.18619  0.86430  Biso   1.000  C
  C15      1.0000 0.92590  0.68619  0.63570  Biso   1.000  C
  C16      1.0000 0.42590  0.18619  0.63570  Biso   1.000  C
  H1       1.0000 0.03120  0.31946  0.14750  Biso   1.000  H
  H2       1.0000 0.53120  0.81946  0.14750  Biso   1.000  H
  H3       1.0000 0.96880  0.31946  0.35250  Biso   1.000  H
  H4       1.0000 0.46880  0.81946  0.35250  Biso   1.000  H
  H5       1.0000 0.96880  0.68054  0.85250  Biso   1.000  H
  H6       1.0000 0.46880  0.18054  0.85250  Biso   1.000  H
  H7       1.0000 0.03120  0.68054  0.64750  Biso   1.000  H
  H8       1.0000 0.53120  0.18054  0.64750  Biso   1.000  H
  N81      1.0000 0.86380  0.25549  0.17430  Biso   1.000  N
  N82      1.0000 0.36380  0.75549  0.17430  Biso   1.000  N
  N83      1.0000 0.13620  0.25549  0.32570  Biso   1.000  N
  N84      1.0000 0.63620  0.75549  0.32570  Biso   1.000  N
  N85      1.0000 0.13620  0.74451  0.82570  Biso   1.000  N
  N86      1.0000 0.63620  0.24451  0.82570  Biso   1.000  N
  N87      1.0000 0.86380  0.74451  0.67430  Biso   1.000  N
  N88      1.0000 0.36380  0.24451  0.67430  Biso   1.000  N
  C17      1.0000 0.71140  0.24807  0.15420  Biso   1.000  C
  C18      1.0000 0.21140  0.74807  0.15420  Biso   1.000  C
  C19      1.0000 0.28860  0.24807  0.34580  Biso   1.000  C
  C20      1.0000 0.78860  0.74807  0.34580  Biso   1.000  C
  C21      1.0000 0.28860  0.75193  0.84580  Biso   1.000  C
  C22      1.0000 0.78860  0.25193  0.84580  Biso   1.000  C
  C23      1.0000 0.71140  0.75193  0.65420  Biso   1.000  C
  C24      1.0000 0.21140  0.25193  0.65420  Biso   1.000  C
  H9       1.0000 0.66380  0.20876  0.18090  Biso   1.000  H
  H10      1.0000 0.16380  0.70876  0.18090  Biso   1.000  H
  H11      1.0000 0.33620  0.20876  0.31910  Biso   1.000  H
  H12      1.0000 0.83620  0.70876  0.31910  Biso   1.000  H
  H13      1.0000 0.33620  0.79124  0.81910  Biso   1.000  H
  H14      1.0000 0.83620  0.29124  0.81910  Biso   1.000  H
  H15      1.0000 0.66380  0.79124  0.68090  Biso   1.000  H
  H16      1.0000 0.16380  0.29124  0.68090  Biso   1.000  H
  C25      1.0000 0.62520  0.29889  0.09370  Biso   1.000  C
  C26      1.0000 0.12520  0.79889  0.09370  Biso   1.000  C
  C27      1.0000 0.37480  0.29889  0.40630  Biso   1.000  C
  C28      1.0000 0.87480  0.79889  0.40630  Biso   1.000  C
  C29      1.0000 0.37480  0.70111  0.90630  Biso   1.000  C
  C30      1.0000 0.87480  0.20111  0.90630  Biso   1.000  C
  C31      1.0000 0.62520  0.70111  0.59370  Biso   1.000  C
  C32      1.0000 0.12520  0.20111  0.59370  Biso   1.000  C
  H17      1.0000 0.52060  0.29166  0.07880  Biso   1.000  H
  H18      1.0000 0.02060  0.79166  0.07880  Biso   1.000  H
  H19      1.0000 0.47940  0.29166  0.42120  Biso   1.000  H
  H20      1.0000 0.97940  0.79166  0.42120  Biso   1.000  H
  H21      1.0000 0.47940  0.70834  0.92120  Biso   1.000  H
  H22      1.0000 0.97940  0.20834  0.92120  Biso   1.000  H
  H23      1.0000 0.52060  0.70834  0.57880  Biso   1.000  H
  H24      1.0000 0.02060  0.20834  0.57880  Biso   1.000  H
  C33      1.0000 0.91110  0.43290  0.04040  Biso   1.000  C
  C34      1.0000 0.41110  0.93290  0.04040  Biso   1.000  C
  C35      1.0000 0.08890  0.43290  0.45960  Biso   1.000  C
  C36      1.0000 0.58890  0.93290  0.45960  Biso   1.000  C
  C37      1.0000 0.08890  0.56710  0.95960  Biso   1.000  C
  C38      1.0000 0.58890  0.06710  0.95960  Biso   1.000  C
  C39      1.0000 0.91110  0.56710  0.54040  Biso   1.000  C
  C40      1.0000 0.41110  0.06710  0.54040  Biso   1.000  C
  H25      1.0000 0.00930  0.44040  0.07960  Biso   1.000  H
  H26      1.0000 0.50930  0.94040  0.07960  Biso   1.000  H
  H27      1.0000 0.99070  0.44040  0.42040  Biso   1.000  H
  H28      1.0000 0.49070  0.94040  0.42040  Biso   1.000  H
  H29      1.0000 0.99070  0.55960  0.92040  Biso   1.000  H
  H30      1.0000 0.49070  0.05960  0.92040  Biso   1.000  H
  H31      1.0000 0.00930  0.55960  0.57960  Biso   1.000  H
  H32      1.0000 0.50930  0.05960  0.57960  Biso   1.000  H
  H33      1.0000 0.92270  0.42610  0.97050  Biso   1.000  H
  H34      1.0000 0.42270  0.92610  0.97050  Biso   1.000  H
  H35      1.0000 0.07730  0.42610  0.52950  Biso   1.000  H
  H36      1.0000 0.57730  0.92610  0.52950  Biso   1.000  H
  H37      1.0000 0.07730  0.57390  0.02950  Biso   1.000  H
  H38      1.0000 0.57730  0.07390  0.02950  Biso   1.000  H
  H39      1.0000 0.92270  0.57390  0.47050  Biso   1.000  H
  H40      1.0000 0.42270  0.07390  0.47050  Biso   1.000  H
  H41      1.0000 0.84780  0.47470  0.04680  Biso   1.000  H
  H42      1.0000 0.34780  0.97470  0.04680  Biso   1.000  H
  H43      1.0000 0.15220  0.47470  0.45320  Biso   1.000  H
  H44      1.0000 0.65220  0.97470  0.45320  Biso   1.000  H
  H45      1.0000 0.15220  0.52530  0.95320  Biso   1.000  H
  H46      1.0000 0.65220  0.02530  0.95320  Biso   1.000  H
  H47      1.0000 0.84780  0.52530  0.54680  Biso   1.000  H
  H48      1.0000 0.34780  0.02530  0.54680  Biso   1.000  H
