data_image0
_cell_length_a       15.925
_cell_length_b       9.367
_cell_length_c       24.765
_cell_angle_alpha    90
_cell_angle_beta     94.39
_cell_angle_gamma    90

_symmetry_space_group_name_H-M    "P 1"
_symmetry_int_tables_number       1

loop_
  _symmetry_equiv_pos_as_xyz
  'x, y, z'

loop_
  _atom_site_label
  _atom_site_occupancy
  _atom_site_fract_x
  _atom_site_fract_y
  _atom_site_fract_z
  _atom_site_thermal_displace_type
  _atom_site_B_iso_or_equiv
  _atom_site_type_symbol
  Cu1      1.0000 0.80349  0.05920  0.27680  Biso   1.000  Cu
  Cu2      1.0000 0.30349  0.55920  0.77680  Biso   1.000  Cu
  Cu3      1.0000 0.69651  0.05920  0.72320  Biso   1.000  Cu
  Cu4      1.0000 0.19651  0.55920  0.22320  Biso   1.000  Cu
  Cu5      1.0000 0.19651  0.94080  0.72320  Biso   1.000  Cu
  Cu6      1.0000 0.69651  0.44080  0.22320  Biso   1.000  Cu
  Cu7      1.0000 0.30349  0.94080  0.27680  Biso   1.000  Cu
  Cu8      1.0000 0.80349  0.44080  0.77680  Biso   1.000  Cu
  Cu9      1.0000 0.97992  0.12790  0.23651  Biso   1.000  Cu
  Cu10     1.0000 0.47992  0.62790  0.73651  Biso   1.000  Cu
  Cu11     1.0000 0.52008  0.12790  0.76349  Biso   1.000  Cu
  Cu12     1.0000 0.02008  0.62790  0.26349  Biso   1.000  Cu
  Cu13     1.0000 0.02008  0.87210  0.76349  Biso   1.000  Cu
  Cu14     1.0000 0.52008  0.37210  0.26349  Biso   1.000  Cu
  Cu15     1.0000 0.47992  0.87210  0.23651  Biso   1.000  Cu
  Cu16     1.0000 0.97992  0.37210  0.73651  Biso   1.000  Cu
  N1       1.0000 0.92140  0.12080  0.30540  Biso   1.000  N
  N2       1.0000 0.42140  0.62080  0.80540  Biso   1.000  N
  N3       1.0000 0.57860  0.12080  0.69460  Biso   1.000  N
  N4       1.0000 0.07860  0.62080  0.19460  Biso   1.000  N
  N5       1.0000 0.07860  0.87920  0.69460  Biso   1.000  N
  N6       1.0000 0.57860  0.37920  0.19460  Biso   1.000  N
  N7       1.0000 0.42140  0.87920  0.30540  Biso   1.000  N
  N8       1.0000 0.92140  0.37920  0.80540  Biso   1.000  N
  N9       1.0000 0.95380  0.11020  0.35070  Biso   1.000  N
  N10      1.0000 0.45380  0.61020  0.85070  Biso   1.000  N
  N11      1.0000 0.54620  0.11020  0.64930  Biso   1.000  N
  N12      1.0000 0.04620  0.61020  0.14930  Biso   1.000  N
  N13      1.0000 0.04620  0.88980  0.64930  Biso   1.000  N
  N14      1.0000 0.54620  0.38980  0.14930  Biso   1.000  N
  N15      1.0000 0.45380  0.88980  0.35070  Biso   1.000  N
  N16      1.0000 0.95380  0.38980  0.85070  Biso   1.000  N
  N17      1.0000 0.98360  0.10150  0.39410  Biso   1.000  N
  N18      1.0000 0.48360  0.60150  0.89410  Biso   1.000  N
  N19      1.0000 0.51640  0.10150  0.60590  Biso   1.000  N
  N20      1.0000 0.01640  0.60150  0.10590  Biso   1.000  N
  N21      1.0000 0.01640  0.89850  0.60590  Biso   1.000  N
  N22      1.0000 0.51640  0.39850  0.10590  Biso   1.000  N
  N23      1.0000 0.48360  0.89850  0.39410  Biso   1.000  N
  N24      1.0000 0.98360  0.39850  0.89410  Biso   1.000  N
  N25      1.0000 0.86450  0.06150  0.20930  Biso   1.000  N
  N26      1.0000 0.36450  0.56150  0.70930  Biso   1.000  N
  N27      1.0000 0.63550  0.06150  0.79070  Biso   1.000  N
  N28      1.0000 0.13550  0.56150  0.29070  Biso   1.000  N
  N29      1.0000 0.13550  0.93850  0.79070  Biso   1.000  N
  N30      1.0000 0.63550  0.43850  0.29070  Biso   1.000  N
  N31      1.0000 0.36450  0.93850  0.20930  Biso   1.000  N
  N32      1.0000 0.86450  0.43850  0.70930  Biso   1.000  N
  N33      1.0000 0.84070  0.00090  0.16760  Biso   1.000  N
  N34      1.0000 0.34070  0.50090  0.66760  Biso   1.000  N
  N35      1.0000 0.65930  0.00090  0.83240  Biso   1.000  N
  N36      1.0000 0.15930  0.50090  0.33240  Biso   1.000  N
  N37      1.0000 0.15930  0.99910  0.83240  Biso   1.000  N
  N38      1.0000 0.65930  0.49910  0.33240  Biso   1.000  N
  N39      1.0000 0.34070  0.99910  0.16760  Biso   1.000  N
  N40      1.0000 0.84070  0.49910  0.66760  Biso   1.000  N
  N41      1.0000 0.81670  0.94460  0.12830  Biso   1.000  N
  N42      1.0000 0.31670  0.44460  0.62830  Biso   1.000  N
  N43      1.0000 0.68330  0.94460  0.87170  Biso   1.000  N
  N44      1.0000 0.18330  0.44460  0.37170  Biso   1.000  N
  N45      1.0000 0.18330  0.05540  0.87170  Biso   1.000  N
  N46      1.0000 0.68330  0.55540  0.37170  Biso   1.000  N
  N47      1.0000 0.31670  0.05540  0.12830  Biso   1.000  N
  N48      1.0000 0.81670  0.55540  0.62830  Biso   1.000  N
  N49      1.0000 0.82100  0.82290  0.28280  Biso   1.000  N
  N50      1.0000 0.32100  0.32290  0.78280  Biso   1.000  N
  N51      1.0000 0.67900  0.82290  0.71720  Biso   1.000  N
  N52      1.0000 0.17900  0.32290  0.21720  Biso   1.000  N
  N53      1.0000 0.17900  0.17710  0.71720  Biso   1.000  N
  N54      1.0000 0.67900  0.67710  0.21720  Biso   1.000  N
  N55      1.0000 0.32100  0.17710  0.28280  Biso   1.000  N
  N56      1.0000 0.82100  0.67710  0.78280  Biso   1.000  N
  N57      1.0000 0.86670  0.76260  0.25590  Biso   1.000  N
  N58      1.0000 0.36670  0.26260  0.75590  Biso   1.000  N
  N59      1.0000 0.63330  0.76260  0.74410  Biso   1.000  N
  N60      1.0000 0.13330  0.26260  0.24410  Biso   1.000  N
  N61      1.0000 0.13330  0.23740  0.74410  Biso   1.000  N
  N62      1.0000 0.63330  0.73740  0.24410  Biso   1.000  N
  N63      1.0000 0.36670  0.23740  0.25590  Biso   1.000  N
  N64      1.0000 0.86670  0.73740  0.75590  Biso   1.000  N
  N65      1.0000 0.91270  0.69990  0.22800  Biso   1.000  N
  N66      1.0000 0.41270  0.19990  0.72800  Biso   1.000  N
  N67      1.0000 0.58730  0.69990  0.77200  Biso   1.000  N
  N68      1.0000 0.08730  0.19990  0.27200  Biso   1.000  N
  N69      1.0000 0.08730  0.30010  0.77200  Biso   1.000  N
  N70      1.0000 0.58730  0.80010  0.27200  Biso   1.000  N
  N71      1.0000 0.41270  0.30010  0.22800  Biso   1.000  N
  N72      1.0000 0.91270  0.80010  0.72800  Biso   1.000  N
  N73      1.0000 0.69440  0.09190  0.23560  Biso   1.000  N
  N74      1.0000 0.19440  0.59190  0.73560  Biso   1.000  N
  N75      1.0000 0.80560  0.09190  0.76440  Biso   1.000  N
  N76      1.0000 0.30560  0.59190  0.26440  Biso   1.000  N
  N77      1.0000 0.30560  0.90810  0.76440  Biso   1.000  N
  N78      1.0000 0.80560  0.40810  0.26440  Biso   1.000  N
  N79      1.0000 0.19440  0.90810  0.23560  Biso   1.000  N
  N80      1.0000 0.69440  0.40810  0.73560  Biso   1.000  N
  N81      1.0000 0.62900  0.10630  0.25590  Biso   1.000  N
  N82      1.0000 0.12900  0.60630  0.75590  Biso   1.000  N
  N83      1.0000 0.87100  0.10630  0.74410  Biso   1.000  N
  N84      1.0000 0.37100  0.60630  0.24410  Biso   1.000  N
  N85      1.0000 0.37100  0.89370  0.74410  Biso   1.000  N
  N86      1.0000 0.87100  0.39370  0.24410  Biso   1.000  N
  N87      1.0000 0.12900  0.89370  0.25590  Biso   1.000  N
  N88      1.0000 0.62900  0.39370  0.75590  Biso   1.000  N
  N89      1.0000 0.56360  0.12040  0.27300  Biso   1.000  N
  N90      1.0000 0.06360  0.62040  0.77300  Biso   1.000  N
  N91      1.0000 0.93640  0.12040  0.72700  Biso   1.000  N
  N92      1.0000 0.43640  0.62040  0.22700  Biso   1.000  N
  N93      1.0000 0.43640  0.87960  0.72700  Biso   1.000  N
  N94      1.0000 0.93640  0.37960  0.22700  Biso   1.000  N
  N95      1.0000 0.06360  0.87960  0.27300  Biso   1.000  N
  N96      1.0000 0.56360  0.37960  0.77300  Biso   1.000  N
  N97      1.0000 0.02250  0.11090  0.16350  Biso   1.000  N
  N98      1.0000 0.52250  0.61090  0.66350  Biso   1.000  N
  N99      1.0000 0.47750  0.11090  0.83650  Biso   1.000  N
  N100     1.0000 0.97750  0.61090  0.33650  Biso   1.000  N
  N101     1.0000 0.97750  0.88910  0.83650  Biso   1.000  N
  N102     1.0000 0.47750  0.38910  0.33650  Biso   1.000  N
  N103     1.0000 0.52250  0.88910  0.16350  Biso   1.000  N
  N104     1.0000 0.02250  0.38910  0.66350  Biso   1.000  N
  C1       1.0000 0.03670  0.22870  0.13390  Biso   1.000  C
  C2       1.0000 0.53670  0.72870  0.63390  Biso   1.000  C
  C3       1.0000 0.46330  0.22870  0.86610  Biso   1.000  C
  C4       1.0000 0.96330  0.72870  0.36610  Biso   1.000  C
  C5       1.0000 0.96330  0.77130  0.86610  Biso   1.000  C
  C6       1.0000 0.46330  0.27130  0.36610  Biso   1.000  C
  C7       1.0000 0.53670  0.77130  0.13390  Biso   1.000  C
  C8       1.0000 0.03670  0.27130  0.63390  Biso   1.000  C
  H1       1.0000 0.02440  0.31750  0.14820  Biso   1.000  H
  H2       1.0000 0.52440  0.81750  0.64820  Biso   1.000  H
  H3       1.0000 0.47560  0.31750  0.85180  Biso   1.000  H
  H4       1.0000 0.97560  0.81750  0.35180  Biso   1.000  H
  H5       1.0000 0.97560  0.68250  0.85180  Biso   1.000  H
  H6       1.0000 0.47560  0.18250  0.35180  Biso   1.000  H
  H7       1.0000 0.52440  0.68250  0.14820  Biso   1.000  H
  H8       1.0000 0.02440  0.18250  0.64820  Biso   1.000  H
  C9       1.0000 0.06840  0.22390  0.08380  Biso   1.000  C
  C10      1.0000 0.56840  0.72390  0.58380  Biso   1.000  C
  C11      1.0000 0.43160  0.22390  0.91620  Biso   1.000  C
  C12      1.0000 0.93160  0.72390  0.41620  Biso   1.000  C
  C13      1.0000 0.93160  0.77610  0.91620  Biso   1.000  C
  C14      1.0000 0.43160  0.27610  0.41620  Biso   1.000  C
  C15      1.0000 0.56840  0.77610  0.08380  Biso   1.000  C
  C16      1.0000 0.06840  0.27610  0.58380  Biso   1.000  C
  H9       1.0000 0.07740  0.30700  0.06460  Biso   1.000  H
  H10      1.0000 0.57740  0.80700  0.56460  Biso   1.000  H
  H11      1.0000 0.42260  0.30700  0.93540  Biso   1.000  H
  H12      1.0000 0.92260  0.80700  0.43540  Biso   1.000  H
  H13      1.0000 0.92260  0.69300  0.93540  Biso   1.000  H
  H14      1.0000 0.42260  0.19300  0.43540  Biso   1.000  H
  H15      1.0000 0.57740  0.69300  0.06460  Biso   1.000  H
  H16      1.0000 0.07740  0.19300  0.56460  Biso   1.000  H
  C17      1.0000 0.08660  0.08950  0.06290  Biso   1.000  C
  C18      1.0000 0.58660  0.58950  0.56290  Biso   1.000  C
  C19      1.0000 0.41340  0.08950  0.93710  Biso   1.000  C
  C20      1.0000 0.91340  0.58950  0.43710  Biso   1.000  C
  C21      1.0000 0.91340  0.91050  0.93710  Biso   1.000  C
  C22      1.0000 0.41340  0.41050  0.43710  Biso   1.000  C
  C23      1.0000 0.58660  0.91050  0.06290  Biso   1.000  C
  C24      1.0000 0.08660  0.41050  0.56290  Biso   1.000  C
  C25      1.0000 0.07100  0.96650  0.09210  Biso   1.000  C
  C26      1.0000 0.57100  0.46650  0.59210  Biso   1.000  C
  C27      1.0000 0.42900  0.96650  0.90790  Biso   1.000  C
  C28      1.0000 0.92900  0.46650  0.40790  Biso   1.000  C
  C29      1.0000 0.92900  0.03350  0.90790  Biso   1.000  C
  C30      1.0000 0.42900  0.53350  0.40790  Biso   1.000  C
  C31      1.0000 0.57100  0.03350  0.09210  Biso   1.000  C
  C32      1.0000 0.07100  0.53350  0.59210  Biso   1.000  C
  H17      1.0000 0.08150  0.87640  0.07840  Biso   1.000  H
  H18      1.0000 0.58150  0.37640  0.57840  Biso   1.000  H
  H19      1.0000 0.41850  0.87640  0.92160  Biso   1.000  H
  H20      1.0000 0.91850  0.37640  0.42160  Biso   1.000  H
  H21      1.0000 0.91850  0.12360  0.92160  Biso   1.000  H
  H22      1.0000 0.41850  0.62360  0.42160  Biso   1.000  H
  H23      1.0000 0.58150  0.12360  0.07840  Biso   1.000  H
  H24      1.0000 0.08150  0.62360  0.57840  Biso   1.000  H
  C33      1.0000 0.03920  0.98280  0.14240  Biso   1.000  C
  C34      1.0000 0.53920  0.48280  0.64240  Biso   1.000  C
  C35      1.0000 0.46080  0.98280  0.85760  Biso   1.000  C
  C36      1.0000 0.96080  0.48280  0.35760  Biso   1.000  C
  C37      1.0000 0.96080  0.01720  0.85760  Biso   1.000  C
  C38      1.0000 0.46080  0.51720  0.35760  Biso   1.000  C
  C39      1.0000 0.53920  0.01720  0.14240  Biso   1.000  C
  C40      1.0000 0.03920  0.51720  0.64240  Biso   1.000  C
  H25      1.0000 0.02890  0.90140  0.16230  Biso   1.000  H
  H26      1.0000 0.52890  0.40140  0.66230  Biso   1.000  H
  H27      1.0000 0.47110  0.90140  0.83770  Biso   1.000  H
  H28      1.0000 0.97110  0.40140  0.33770  Biso   1.000  H
  H29      1.0000 0.97110  0.09860  0.83770  Biso   1.000  H
  H30      1.0000 0.47110  0.59860  0.33770  Biso   1.000  H
  H31      1.0000 0.52890  0.09860  0.16230  Biso   1.000  H
  H32      1.0000 0.02890  0.59860  0.66230  Biso   1.000  H
  Br1      1.0000 0.12705  0.07834  0.99360  Biso   1.000  Br
  Br2      1.0000 0.62705  0.57834  0.49360  Biso   1.000  Br
  Br3      1.0000 0.37295  0.07834  0.00640  Biso   1.000  Br
  Br4      1.0000 0.87295  0.57834  0.50640  Biso   1.000  Br
  Br5      1.0000 0.87295  0.92166  0.00640  Biso   1.000  Br
  Br6      1.0000 0.37295  0.42166  0.50640  Biso   1.000  Br
  Br7      1.0000 0.62705  0.92166  0.99360  Biso   1.000  Br
  Br8      1.0000 0.12705  0.42166  0.49360  Biso   1.000  Br
  N105     1.0000 0.75420  0.06830  0.34830  Biso   1.000  N
  N106     1.0000 0.25420  0.56830  0.84830  Biso   1.000  N
  N107     1.0000 0.74580  0.06830  0.65170  Biso   1.000  N
  N108     1.0000 0.24580  0.56830  0.15170  Biso   1.000  N
  N109     1.0000 0.24580  0.93170  0.65170  Biso   1.000  N
  N110     1.0000 0.74580  0.43170  0.15170  Biso   1.000  N
  N111     1.0000 0.25420  0.93170  0.34830  Biso   1.000  N
  N112     1.0000 0.75420  0.43170  0.84830  Biso   1.000  N
  C41      1.0000 0.72230  0.95150  0.37100  Biso   1.000  C
  C42      1.0000 0.22230  0.45150  0.87100  Biso   1.000  C
  C43      1.0000 0.77770  0.95150  0.62900  Biso   1.000  C
  C44      1.0000 0.27770  0.45150  0.12900  Biso   1.000  C
  C45      1.0000 0.27770  0.04850  0.62900  Biso   1.000  C
  C46      1.0000 0.77770  0.54850  0.12900  Biso   1.000  C
  C47      1.0000 0.22230  0.04850  0.37100  Biso   1.000  C
  C48      1.0000 0.72230  0.54850  0.87100  Biso   1.000  C
  H33      1.0000 0.73020  0.86330  0.35490  Biso   1.000  H
  H34      1.0000 0.23020  0.36330  0.85490  Biso   1.000  H
  H35      1.0000 0.76980  0.86330  0.64510  Biso   1.000  H
  H36      1.0000 0.26980  0.36330  0.14510  Biso   1.000  H
  H37      1.0000 0.26980  0.13670  0.64510  Biso   1.000  H
  H38      1.0000 0.76980  0.63670  0.14510  Biso   1.000  H
  H39      1.0000 0.23020  0.13670  0.35490  Biso   1.000  H
  H40      1.0000 0.73020  0.63670  0.85490  Biso   1.000  H
  C49      1.0000 0.67840  0.95660  0.41700  Biso   1.000  C
  C50      1.0000 0.17840  0.45660  0.91700  Biso   1.000  C
  C51      1.0000 0.82160  0.95660  0.58300  Biso   1.000  C
  C52      1.0000 0.32160  0.45660  0.08300  Biso   1.000  C
  C53      1.0000 0.32160  0.04340  0.58300  Biso   1.000  C
  C54      1.0000 0.82160  0.54340  0.08300  Biso   1.000  C
  C55      1.0000 0.17840  0.04340  0.41700  Biso   1.000  C
  C56      1.0000 0.67840  0.54340  0.91700  Biso   1.000  C
  H41      1.0000 0.65710  0.87420  0.43170  Biso   1.000  H
  H42      1.0000 0.15710  0.37420  0.93170  Biso   1.000  H
  H43      1.0000 0.84290  0.87420  0.56830  Biso   1.000  H
  H44      1.0000 0.34290  0.37420  0.06830  Biso   1.000  H
  H45      1.0000 0.34290  0.12580  0.56830  Biso   1.000  H
  H46      1.0000 0.84290  0.62580  0.06830  Biso   1.000  H
  H47      1.0000 0.15710  0.12580  0.43170  Biso   1.000  H
  H48      1.0000 0.65710  0.62580  0.93170  Biso   1.000  H
  C57      1.0000 0.66760  0.08790  0.44000  Biso   1.000  C
  C58      1.0000 0.16760  0.58790  0.94000  Biso   1.000  C
  C59      1.0000 0.83240  0.08790  0.56000  Biso   1.000  C
  C60      1.0000 0.33240  0.58790  0.06000  Biso   1.000  C
  C61      1.0000 0.33240  0.91210  0.56000  Biso   1.000  C
  C62      1.0000 0.83240  0.41210  0.06000  Biso   1.000  C
  C63      1.0000 0.16760  0.91210  0.44000  Biso   1.000  C
  C64      1.0000 0.66760  0.41210  0.94000  Biso   1.000  C
  C65      1.0000 0.70000  0.21030  0.41800  Biso   1.000  C
  C66      1.0000 0.20000  0.71030  0.91800  Biso   1.000  C
  C67      1.0000 0.80000  0.21030  0.58200  Biso   1.000  C
  C68      1.0000 0.30000  0.71030  0.08200  Biso   1.000  C
  C69      1.0000 0.30000  0.78970  0.58200  Biso   1.000  C
  C70      1.0000 0.80000  0.28970  0.08200  Biso   1.000  C
  C71      1.0000 0.20000  0.78970  0.41800  Biso   1.000  C
  C72      1.0000 0.70000  0.28970  0.91800  Biso   1.000  C
  H49      1.0000 0.69310  0.29930  0.43370  Biso   1.000  H
  H50      1.0000 0.19310  0.79930  0.93370  Biso   1.000  H
  H51      1.0000 0.80690  0.29930  0.56630  Biso   1.000  H
  H52      1.0000 0.30690  0.79930  0.06630  Biso   1.000  H
  H53      1.0000 0.30690  0.70070  0.56630  Biso   1.000  H
  H54      1.0000 0.80690  0.20070  0.06630  Biso   1.000  H
  H55      1.0000 0.19310  0.70070  0.43370  Biso   1.000  H
  H56      1.0000 0.69310  0.20070  0.93370  Biso   1.000  H
  C73      1.0000 0.74310  0.19550  0.37150  Biso   1.000  C
  C74      1.0000 0.24310  0.69550  0.87150  Biso   1.000  C
  C75      1.0000 0.75690  0.19550  0.62850  Biso   1.000  C
  C76      1.0000 0.25690  0.69550  0.12850  Biso   1.000  C
  C77      1.0000 0.25690  0.80450  0.62850  Biso   1.000  C
  C78      1.0000 0.75690  0.30450  0.12850  Biso   1.000  C
  C79      1.0000 0.24310  0.80450  0.37150  Biso   1.000  C
  C80      1.0000 0.74310  0.30450  0.87150  Biso   1.000  C
  H57      1.0000 0.76490  0.27650  0.35600  Biso   1.000  H
  H58      1.0000 0.26490  0.77650  0.85600  Biso   1.000  H
  H59      1.0000 0.73510  0.27650  0.64400  Biso   1.000  H
  H60      1.0000 0.23510  0.77650  0.14400  Biso   1.000  H
  H61      1.0000 0.23510  0.72350  0.64400  Biso   1.000  H
  H62      1.0000 0.73510  0.22350  0.14400  Biso   1.000  H
  H63      1.0000 0.26490  0.72350  0.35600  Biso   1.000  H
  H64      1.0000 0.76490  0.22350  0.85600  Biso   1.000  H
  Br9      1.0000 0.60647  0.10354  0.50226  Biso   1.000  Br
  Br10     1.0000 0.10647  0.60354  0.00226  Biso   1.000  Br
  Br11     1.0000 0.89353  0.10354  0.49774  Biso   1.000  Br
  Br12     1.0000 0.39353  0.60354  0.99774  Biso   1.000  Br
  Br13     1.0000 0.39353  0.89646  0.49774  Biso   1.000  Br
  Br14     1.0000 0.89353  0.39646  0.99774  Biso   1.000  Br
  Br15     1.0000 0.10647  0.89646  0.50226  Biso   1.000  Br
  Br16     1.0000 0.60647  0.39646  0.00226  Biso   1.000  Br
