data_image0
_cell_length_a       12.4518
_cell_length_b       14.2871
_cell_length_c       18.894
_cell_angle_alpha    90
_cell_angle_beta     90
_cell_angle_gamma    90

_symmetry_space_group_name_H-M    "P 1"
_symmetry_int_tables_number       1

loop_
  _symmetry_equiv_pos_as_xyz
  'x, y, z'

loop_
  _atom_site_label
  _atom_site_occupancy
  _atom_site_fract_x
  _atom_site_fract_y
  _atom_site_fract_z
  _atom_site_thermal_displace_type
  _atom_site_B_iso_or_equiv
  _atom_site_type_symbol
  Se1      1.0000 0.10958  0.08876  0.36433  Biso   1.000  Se
  Se2      1.0000 0.39042  0.91124  0.86433  Biso   1.000  Se
  Se3      1.0000 0.89042  0.58876  0.13567  Biso   1.000  Se
  Se4      1.0000 0.60958  0.41124  0.63567  Biso   1.000  Se
  Cu1      1.0000 0.33538  0.58179  0.37059  Biso   1.000  Cu
  Cu2      1.0000 0.16462  0.41821  0.87059  Biso   1.000  Cu
  Cu3      1.0000 0.66462  0.08179  0.12941  Biso   1.000  Cu
  Cu4      1.0000 0.83538  0.91821  0.62941  Biso   1.000  Cu
  Cu5      1.0000 0.21570  0.22523  0.26118  Biso   1.000  Cu
  Cu6      1.0000 0.28430  0.77477  0.76118  Biso   1.000  Cu
  Cu7      1.0000 0.78430  0.72523  0.23882  Biso   1.000  Cu
  Cu8      1.0000 0.71570  0.27477  0.73882  Biso   1.000  Cu
  Cu9      1.0000 0.16794  0.92820  0.06941  Biso   1.000  Cu
  Cu10     1.0000 0.33206  0.07180  0.56941  Biso   1.000  Cu
  Cu11     1.0000 0.83206  0.42820  0.43059  Biso   1.000  Cu
  Cu12     1.0000 0.66794  0.57180  0.93059  Biso   1.000  Cu
  O1       1.0000 0.21714  0.52922  0.32828  Biso   1.000  O
  O2       1.0000 0.28286  0.47078  0.82828  Biso   1.000  O
  O3       1.0000 0.78286  0.02922  0.17172  Biso   1.000  O
  O4       1.0000 0.71714  0.97078  0.67172  Biso   1.000  O
  O5       1.0000 0.37055  0.42694  0.37138  Biso   1.000  O
  O6       1.0000 0.12945  0.57306  0.87138  Biso   1.000  O
  O7       1.0000 0.62945  0.92694  0.12862  Biso   1.000  O
  O8       1.0000 0.87055  0.07306  0.62862  Biso   1.000  O
  O9       1.0000 0.32240  0.27380  0.32206  Biso   1.000  O
  O10      1.0000 0.17760  0.72620  0.82206  Biso   1.000  O
  O11      1.0000 0.67760  0.77380  0.17794  Biso   1.000  O
  O12      1.0000 0.82240  0.22620  0.67794  Biso   1.000  O
  O13      1.0000 0.27992  0.09149  0.22902  Biso   1.000  O
  O14      1.0000 0.22008  0.90851  0.72902  Biso   1.000  O
  O15      1.0000 0.72008  0.59149  0.27098  Biso   1.000  O
  O16      1.0000 0.77992  0.40851  0.77098  Biso   1.000  O
  O17      1.0000 0.10780  0.06660  0.09646  Biso   1.000  O
  O18      1.0000 0.39220  0.93340  0.59646  Biso   1.000  O
  O19      1.0000 0.89220  0.56660  0.40354  Biso   1.000  O
  O20      1.0000 0.60780  0.43340  0.90354  Biso   1.000  O
  O21      1.0000 0.25730  0.96150  0.14912  Biso   1.000  O
  O22      1.0000 0.24270  0.03850  0.64912  Biso   1.000  O
  O23      1.0000 0.74270  0.46150  0.35088  Biso   1.000  O
  O24      1.0000 0.75730  0.53850  0.85088  Biso   1.000  O
  N1       1.0000 0.44660  0.62730  0.42969  Biso   1.000  N
  N2       1.0000 0.05340  0.37270  0.92969  Biso   1.000  N
  N3       1.0000 0.55340  0.12730  0.07031  Biso   1.000  N
  N4       1.0000 0.94660  0.87270  0.57031  Biso   1.000  N
  N5       1.0000 0.28410  0.73110  0.38370  Biso   1.000  N
  N6       1.0000 0.21590  0.26890  0.88370  Biso   1.000  N
  N7       1.0000 0.71590  0.23110  0.11630  Biso   1.000  N
  N8       1.0000 0.78410  0.76890  0.61630  Biso   1.000  N
  N9       1.0000 0.16540  0.36750  0.27965  Biso   1.000  N
  N10      1.0000 0.33460  0.63250  0.77965  Biso   1.000  N
  N11      1.0000 0.83460  0.86750  0.22035  Biso   1.000  N
  N12      1.0000 0.66540  0.13250  0.72035  Biso   1.000  N
  N13      1.0000 0.12470  0.18860  0.18909  Biso   1.000  N
  N14      1.0000 0.37530  0.81140  0.68909  Biso   1.000  N
  N15      1.0000 0.87530  0.68860  0.31091  Biso   1.000  N
  N16      1.0000 0.62470  0.31140  0.81091  Biso   1.000  N
  N17      1.0000 0.05520  0.87810  0.01167  Biso   1.000  N
  N18      1.0000 0.44480  0.12190  0.51167  Biso   1.000  N
  N19      1.0000 0.94480  0.37810  0.48833  Biso   1.000  N
  N20      1.0000 0.55520  0.62190  0.98833  Biso   1.000  N
  N21      1.0000 0.20710  0.77350  0.07181  Biso   1.000  N
  N22      1.0000 0.29290  0.22650  0.57181  Biso   1.000  N
  N23      1.0000 0.79290  0.27350  0.42819  Biso   1.000  N
  N24      1.0000 0.70710  0.72650  0.92819  Biso   1.000  N
  N25      1.0000 0.23540  0.02840  0.48240  Biso   1.000  N
  N26      1.0000 0.26460  0.97160  0.98240  Biso   1.000  N
  N27      1.0000 0.76460  0.52840  0.01760  Biso   1.000  N
  N28      1.0000 0.73540  0.47160  0.51760  Biso   1.000  N
  C1       1.0000 0.42090  0.73400  0.46010  Biso   1.000  C
  C2       1.0000 0.07910  0.26600  0.96010  Biso   1.000  C
  C3       1.0000 0.57910  0.23400  0.03990  Biso   1.000  C
  C4       1.0000 0.92090  0.76600  0.53990  Biso   1.000  C
  H1       1.0000 0.37740  0.72820  0.50370  Biso   1.000  H
  H2       1.0000 0.12260  0.27180  0.00370  Biso   1.000  H
  H3       1.0000 0.62260  0.22820  0.99630  Biso   1.000  H
  H4       1.0000 0.87740  0.77180  0.49630  Biso   1.000  H
  H5       1.0000 0.48980  0.76380  0.47330  Biso   1.000  H
  H6       1.0000 0.01020  0.23620  0.97330  Biso   1.000  H
  H7       1.0000 0.51020  0.26380  0.02670  Biso   1.000  H
  H8       1.0000 0.98980  0.73620  0.52670  Biso   1.000  H
  C5       1.0000 0.36290  0.79770  0.40960  Biso   1.000  C
  C6       1.0000 0.13710  0.20230  0.90960  Biso   1.000  C
  C7       1.0000 0.63710  0.29770  0.09040  Biso   1.000  C
  C8       1.0000 0.86290  0.70230  0.59040  Biso   1.000  C
  H9       1.0000 0.32900  0.85140  0.43410  Biso   1.000  H
  H10      1.0000 0.17100  0.14860  0.93410  Biso   1.000  H
  H11      1.0000 0.67100  0.35140  0.06590  Biso   1.000  H
  H12      1.0000 0.82900  0.64860  0.56590  Biso   1.000  H
  H13      1.0000 0.41050  0.82080  0.37140  Biso   1.000  H
  H14      1.0000 0.08950  0.17920  0.87140  Biso   1.000  H
  H15      1.0000 0.58950  0.32080  0.12860  Biso   1.000  H
  H16      1.0000 0.91050  0.67920  0.62860  Biso   1.000  H
  C9       1.0000 0.46350  0.55310  0.49020  Biso   1.000  C
  C10      1.0000 0.03650  0.44690  0.99020  Biso   1.000  C
  C11      1.0000 0.53650  0.05310  0.00980  Biso   1.000  C
  C12      1.0000 0.96350  0.94690  0.50980  Biso   1.000  C
  H17      1.0000 0.39970  0.55150  0.52060  Biso   1.000  H
  H18      1.0000 0.10030  0.44850  0.02060  Biso   1.000  H
  H19      1.0000 0.60030  0.05150  0.97940  Biso   1.000  H
  H20      1.0000 0.89970  0.94850  0.47940  Biso   1.000  H
  H21      1.0000 0.52630  0.57050  0.51850  Biso   1.000  H
  H22      1.0000 0.97370  0.42950  0.01850  Biso   1.000  H
  H23      1.0000 0.47370  0.07050  0.98150  Biso   1.000  H
  H24      1.0000 0.02630  0.92950  0.48150  Biso   1.000  H
  H25      1.0000 0.47490  0.49120  0.46920  Biso   1.000  H
  H26      1.0000 0.02510  0.50880  0.96920  Biso   1.000  H
  H27      1.0000 0.52510  0.99120  0.03080  Biso   1.000  H
  H28      1.0000 0.97490  0.00880  0.53080  Biso   1.000  H
  C13      1.0000 0.53250  0.62980  0.38730  Biso   1.000  C
  C14      1.0000 0.96750  0.37020  0.88730  Biso   1.000  C
  C15      1.0000 0.46750  0.12980  0.11270  Biso   1.000  C
  C16      1.0000 0.03250  0.87020  0.61270  Biso   1.000  C
  H29      1.0000 0.52100  0.67620  0.34980  Biso   1.000  H
  H30      1.0000 0.97900  0.32380  0.84980  Biso   1.000  H
  H31      1.0000 0.47900  0.17620  0.15020  Biso   1.000  H
  H32      1.0000 0.02100  0.82380  0.65020  Biso   1.000  H
  H33      1.0000 0.54360  0.56800  0.36600  Biso   1.000  H
  H34      1.0000 0.95640  0.43200  0.86600  Biso   1.000  H
  H35      1.0000 0.45640  0.06800  0.13400  Biso   1.000  H
  H36      1.0000 0.04360  0.93200  0.63400  Biso   1.000  H
  H37      1.0000 0.59610  0.64710  0.41490  Biso   1.000  H
  H38      1.0000 0.90390  0.35290  0.91490  Biso   1.000  H
  H39      1.0000 0.40390  0.14710  0.08510  Biso   1.000  H
  H40      1.0000 0.09610  0.85290  0.58510  Biso   1.000  H
  C17      1.0000 0.19980  0.73000  0.42970  Biso   1.000  C
  C18      1.0000 0.30020  0.27000  0.92970  Biso   1.000  C
  C19      1.0000 0.80020  0.23000  0.07030  Biso   1.000  C
  C20      1.0000 0.69980  0.77000  0.57030  Biso   1.000  C
  H41      1.0000 0.14610  0.68470  0.41350  Biso   1.000  H
  H42      1.0000 0.35390  0.31530  0.91350  Biso   1.000  H
  H43      1.0000 0.85390  0.18470  0.08650  Biso   1.000  H
  H44      1.0000 0.64610  0.81530  0.58650  Biso   1.000  H
  H45      1.0000 0.16740  0.79240  0.43190  Biso   1.000  H
  H46      1.0000 0.33260  0.20760  0.93190  Biso   1.000  H
  H47      1.0000 0.83260  0.29240  0.06810  Biso   1.000  H
  H48      1.0000 0.66740  0.70760  0.56810  Biso   1.000  H
  H49      1.0000 0.22540  0.71200  0.47690  Biso   1.000  H
  H50      1.0000 0.27460  0.28800  0.97690  Biso   1.000  H
  H51      1.0000 0.77460  0.21200  0.02310  Biso   1.000  H
  H52      1.0000 0.72540  0.78800  0.52310  Biso   1.000  H
  C21      1.0000 0.25190  0.77820  0.31460  Biso   1.000  C
  C22      1.0000 0.24810  0.22180  0.81460  Biso   1.000  C
  C23      1.0000 0.74810  0.27820  0.18540  Biso   1.000  C
  C24      1.0000 0.75190  0.72180  0.68540  Biso   1.000  C
  H53      1.0000 0.31330  0.77850  0.28210  Biso   1.000  H
  H54      1.0000 0.18670  0.22150  0.78210  Biso   1.000  H
  H55      1.0000 0.68670  0.27850  0.21790  Biso   1.000  H
  H56      1.0000 0.81330  0.72150  0.71790  Biso   1.000  H
  H57      1.0000 0.22940  0.84270  0.32410  Biso   1.000  H
  H58      1.0000 0.27060  0.15730  0.82410  Biso   1.000  H
  H59      1.0000 0.77060  0.34270  0.17590  Biso   1.000  H
  H60      1.0000 0.72940  0.65730  0.67590  Biso   1.000  H
  H61      1.0000 0.19230  0.74370  0.29300  Biso   1.000  H
  H62      1.0000 0.30770  0.25630  0.79300  Biso   1.000  H
  H63      1.0000 0.80770  0.24370  0.20700  Biso   1.000  H
  H64      1.0000 0.69230  0.75630  0.70700  Biso   1.000  H
  C25      1.0000 0.22230  0.42970  0.31359  Biso   1.000  C
  C26      1.0000 0.27770  0.57030  0.81359  Biso   1.000  C
  C27      1.0000 0.77770  0.92970  0.18641  Biso   1.000  C
  C28      1.0000 0.72230  0.07030  0.68641  Biso   1.000  C
  C29      1.0000 0.31190  0.37140  0.33760  Biso   1.000  C
  C30      1.0000 0.18810  0.62860  0.83760  Biso   1.000  C
  C31      1.0000 0.68810  0.87140  0.16240  Biso   1.000  C
  C32      1.0000 0.81190  0.12860  0.66240  Biso   1.000  C
  C33      1.0000 0.08110  0.41450  0.24902  Biso   1.000  C
  C34      1.0000 0.41890  0.58550  0.74902  Biso   1.000  C
  C35      1.0000 0.91890  0.91450  0.25098  Biso   1.000  C
  C36      1.0000 0.58110  0.08550  0.75098  Biso   1.000  C
  H65      1.0000 0.10350  0.45040  0.20670  Biso   1.000  H
  H66      1.0000 0.39650  0.54960  0.70670  Biso   1.000  H
  H67      1.0000 0.89650  0.95040  0.29330  Biso   1.000  H
  H68      1.0000 0.60350  0.04960  0.79330  Biso   1.000  H
  H69      1.0000 0.04430  0.45650  0.28290  Biso   1.000  H
  H70      1.0000 0.45570  0.54350  0.78290  Biso   1.000  H
  H71      1.0000 0.95570  0.95650  0.21710  Biso   1.000  H
  H72      1.0000 0.54430  0.04350  0.71710  Biso   1.000  H
  C37      1.0000 0.01050  0.32690  0.22920  Biso   1.000  C
  C38      1.0000 0.48950  0.67310  0.72920  Biso   1.000  C
  C39      1.0000 0.98950  0.82690  0.27080  Biso   1.000  C
  C40      1.0000 0.51050  0.17310  0.77080  Biso   1.000  C
  H73      1.0000 0.93870  0.35140  0.21660  Biso   1.000  H
  H74      1.0000 0.56130  0.64860  0.71660  Biso   1.000  H
  H75      1.0000 0.06130  0.85140  0.28340  Biso   1.000  H
  H76      1.0000 0.43870  0.14860  0.78340  Biso   1.000  H
  H77      1.0000 0.00120  0.29060  0.27340  Biso   1.000  H
  H78      1.0000 0.49880  0.70940  0.77340  Biso   1.000  H
  H79      1.0000 0.99880  0.79060  0.22660  Biso   1.000  H
  H80      1.0000 0.50120  0.20940  0.72660  Biso   1.000  H
  C41      1.0000 0.04210  0.25210  0.16830  Biso   1.000  C
  C42      1.0000 0.45790  0.74790  0.66830  Biso   1.000  C
  C43      1.0000 0.95790  0.75210  0.33170  Biso   1.000  C
  C44      1.0000 0.54210  0.24790  0.83170  Biso   1.000  C
  H81      1.0000 0.97730  0.21580  0.15530  Biso   1.000  H
  H82      1.0000 0.52270  0.78420  0.65530  Biso   1.000  H
  H83      1.0000 0.02270  0.71580  0.34470  Biso   1.000  H
  H84      1.0000 0.47730  0.28420  0.84470  Biso   1.000  H
  H85      1.0000 0.06610  0.28650  0.12560  Biso   1.000  H
  H86      1.0000 0.43390  0.71350  0.62560  Biso   1.000  H
  H87      1.0000 0.93390  0.78650  0.37440  Biso   1.000  H
  H88      1.0000 0.56610  0.21350  0.87440  Biso   1.000  H
  C45      1.0000 0.14950  0.10620  0.15107  Biso   1.000  C
  C46      1.0000 0.35050  0.89380  0.65107  Biso   1.000  C
  C47      1.0000 0.85050  0.60620  0.34893  Biso   1.000  C
  C48      1.0000 0.64950  0.39380  0.84893  Biso   1.000  C
  C49      1.0000 0.23630  0.04780  0.17930  Biso   1.000  C
  C50      1.0000 0.26370  0.95220  0.67930  Biso   1.000  C
  C51      1.0000 0.76370  0.54780  0.32070  Biso   1.000  C
  C52      1.0000 0.73630  0.45220  0.82070  Biso   1.000  C
  C53      1.0000 0.06180  0.75920  0.00327  Biso   1.000  C
  C54      1.0000 0.43820  0.24080  0.50327  Biso   1.000  C
  C55      1.0000 0.93820  0.25920  0.49673  Biso   1.000  C
  C56      1.0000 0.56180  0.74080  0.99673  Biso   1.000  C
  H89      1.0000 0.01960  0.72990  0.04170  Biso   1.000  H
  H90      1.0000 0.48040  0.27010  0.54170  Biso   1.000  H
  H91      1.0000 0.98040  0.22990  0.45830  Biso   1.000  H
  H92      1.0000 0.51960  0.77010  0.95830  Biso   1.000  H
  H93      1.0000 0.02890  0.74070  0.95770  Biso   1.000  H
  H94      1.0000 0.47110  0.25930  0.45770  Biso   1.000  H
  H95      1.0000 0.97110  0.24070  0.54230  Biso   1.000  H
  H96      1.0000 0.52890  0.75930  0.04230  Biso   1.000  H
  C57      1.0000 0.16680  0.72580  0.00590  Biso   1.000  C
  C58      1.0000 0.33320  0.27420  0.50590  Biso   1.000  C
  C59      1.0000 0.83320  0.22580  0.49410  Biso   1.000  C
  C60      1.0000 0.66680  0.77420  0.99410  Biso   1.000  C
  H97      1.0000 0.20850  0.74490  0.96360  Biso   1.000  H
  H98      1.0000 0.29150  0.25510  0.46360  Biso   1.000  H
  H99      1.0000 0.79150  0.24490  0.53640  Biso   1.000  H
  H100     1.0000 0.70850  0.75510  0.03640  Biso   1.000  H
  H101     1.0000 0.16890  0.65680  0.01060  Biso   1.000  H
  H102     1.0000 0.33110  0.34320  0.51060  Biso   1.000  H
  H103     1.0000 0.83110  0.15680  0.48940  Biso   1.000  H
  H104     1.0000 0.66890  0.84320  0.98940  Biso   1.000  H
  C61      1.0000 0.96590  0.90330  0.04930  Biso   1.000  C
  C62      1.0000 0.53410  0.09670  0.54930  Biso   1.000  C
  C63      1.0000 0.03410  0.40330  0.45070  Biso   1.000  C
  C64      1.0000 0.46590  0.59670  0.95070  Biso   1.000  C
  H105     1.0000 0.96590  0.87080  0.09500  Biso   1.000  H
  H106     1.0000 0.53410  0.12920  0.59500  Biso   1.000  H
  H107     1.0000 0.03410  0.37080  0.40500  Biso   1.000  H
  H108     1.0000 0.46590  0.62920  0.90500  Biso   1.000  H
  H109     1.0000 0.90140  0.88610  0.02270  Biso   1.000  H
  H110     1.0000 0.59860  0.11390  0.52270  Biso   1.000  H
  H111     1.0000 0.09860  0.38610  0.47730  Biso   1.000  H
  H112     1.0000 0.40140  0.61390  0.97730  Biso   1.000  H
  H113     1.0000 0.96660  0.97110  0.05730  Biso   1.000  H
  H114     1.0000 0.53340  0.02890  0.55730  Biso   1.000  H
  H115     1.0000 0.03340  0.47110  0.44270  Biso   1.000  H
  H116     1.0000 0.46660  0.52890  0.94270  Biso   1.000  H
  C65      1.0000 0.05600  0.92880  0.94080  Biso   1.000  C
  C66      1.0000 0.44400  0.07120  0.44080  Biso   1.000  C
  C67      1.0000 0.94400  0.42880  0.55920  Biso   1.000  C
  C68      1.0000 0.55600  0.57120  0.05920  Biso   1.000  C
  H117     1.0000 0.11970  0.91020  0.91390  Biso   1.000  H
  H118     1.0000 0.38030  0.08980  0.41390  Biso   1.000  H
  H119     1.0000 0.88030  0.41020  0.58610  Biso   1.000  H
  H120     1.0000 0.61970  0.58980  0.08610  Biso   1.000  H
  H121     1.0000 0.05750  0.99660  0.94890  Biso   1.000  H
  H122     1.0000 0.44250  0.00340  0.44890  Biso   1.000  H
  H123     1.0000 0.94250  0.49660  0.55110  Biso   1.000  H
  H124     1.0000 0.55750  0.50340  0.05110  Biso   1.000  H
  H125     1.0000 0.99120  0.91240  0.91410  Biso   1.000  H
  H126     1.0000 0.50880  0.08760  0.41410  Biso   1.000  H
  H127     1.0000 0.00880  0.41240  0.58590  Biso   1.000  H
  H128     1.0000 0.49120  0.58760  0.08590  Biso   1.000  H
  C69      1.0000 0.16800  0.72000  0.13590  Biso   1.000  C
  C70      1.0000 0.33200  0.28000  0.63590  Biso   1.000  C
  C71      1.0000 0.83200  0.22000  0.36410  Biso   1.000  C
  C72      1.0000 0.66800  0.78000  0.86410  Biso   1.000  C
  H129     1.0000 0.09010  0.72780  0.14060  Biso   1.000  H
  H130     1.0000 0.40990  0.27220  0.64060  Biso   1.000  H
  H131     1.0000 0.90990  0.22780  0.35940  Biso   1.000  H
  H132     1.0000 0.59010  0.77220  0.85940  Biso   1.000  H
  H133     1.0000 0.20360  0.74400  0.17840  Biso   1.000  H
  H134     1.0000 0.29640  0.25600  0.67840  Biso   1.000  H
  H135     1.0000 0.79640  0.24400  0.32160  Biso   1.000  H
  H136     1.0000 0.70360  0.75600  0.82160  Biso   1.000  H
  H137     1.0000 0.18490  0.65340  0.13020  Biso   1.000  H
  H138     1.0000 0.31510  0.34660  0.63020  Biso   1.000  H
  H139     1.0000 0.81510  0.15340  0.36980  Biso   1.000  H
  H140     1.0000 0.68490  0.84660  0.86980  Biso   1.000  H
  C73      1.0000 0.31000  0.75660  0.07100  Biso   1.000  C
  C74      1.0000 0.19000  0.24340  0.57100  Biso   1.000  C
  C75      1.0000 0.69000  0.25660  0.42900  Biso   1.000  C
  C76      1.0000 0.81000  0.74340  0.92900  Biso   1.000  C
  H141     1.0000 0.34280  0.78830  0.03040  Biso   1.000  H
  H142     1.0000 0.15720  0.21170  0.53040  Biso   1.000  H
  H143     1.0000 0.65720  0.28830  0.46960  Biso   1.000  H
  H144     1.0000 0.84280  0.71170  0.96960  Biso   1.000  H
  H145     1.0000 0.32200  0.68900  0.06720  Biso   1.000  H
  H146     1.0000 0.17800  0.31100  0.56720  Biso   1.000  H
  H147     1.0000 0.67800  0.18900  0.43280  Biso   1.000  H
  H148     1.0000 0.82200  0.81100  0.93280  Biso   1.000  H
  H149     1.0000 0.34240  0.77980  0.11490  Biso   1.000  H
  H150     1.0000 0.15760  0.22020  0.61490  Biso   1.000  H
  H151     1.0000 0.65760  0.27980  0.38510  Biso   1.000  H
  H152     1.0000 0.84240  0.72020  0.88510  Biso   1.000  H
  C77      1.0000 0.18600  0.05040  0.43620  Biso   1.000  C
  C78      1.0000 0.31400  0.94960  0.93620  Biso   1.000  C
  C79      1.0000 0.81400  0.55040  0.06380  Biso   1.000  C
  C80      1.0000 0.68600  0.44960  0.56380  Biso   1.000  C
  O25      1.0000 0.40170  0.59270  0.25849  Biso   1.000  O
  O26      1.0000 0.09830  0.40730  0.75849  Biso   1.000  O
  O27      1.0000 0.59830  0.09270  0.24151  Biso   1.000  O
  O28      1.0000 0.90170  0.90730  0.74151  Biso   1.000  O
  O29      1.0000 0.52270  0.26630  0.29645  Biso   1.000  O
  O30      1.0000 0.97730  0.73370  0.79645  Biso   1.000  O
  O31      1.0000 0.47730  0.76630  0.20355  Biso   1.000  O
  O32      1.0000 0.02270  0.23370  0.70355  Biso   1.000  O
  O33      1.0000 0.43830  0.95950  0.26904  Biso   1.000  O
  O34      1.0000 0.06170  0.04050  0.76904  Biso   1.000  O
  O35      1.0000 0.56170  0.45950  0.23096  Biso   1.000  O
  O36      1.0000 0.93830  0.54050  0.73096  Biso   1.000  O
  Cl1      1.0000 0.31265  0.40917  0.11518  Biso   1.000  Cl
  Cl2      1.0000 0.18735  0.59083  0.61518  Biso   1.000  Cl
  Cl3      1.0000 0.68735  0.90917  0.38482  Biso   1.000  Cl
  Cl4      1.0000 0.81265  0.09083  0.88482  Biso   1.000  Cl
  O37      1.0000 0.29730  0.50340  0.14520  Biso   1.000  O
  O38      1.0000 0.20270  0.49660  0.64520  Biso   1.000  O
  O39      1.0000 0.70270  0.00340  0.35480  Biso   1.000  O
  O40      1.0000 0.79730  0.99660  0.85480  Biso   1.000  O
  O41      1.0000 0.38960  0.40400  0.06190  Biso   1.000  O
  O42      1.0000 0.11040  0.59600  0.56190  Biso   1.000  O
  O43      1.0000 0.61040  0.90400  0.43810  Biso   1.000  O
  O44      1.0000 0.88960  0.09600  0.93810  Biso   1.000  O
  O45      1.0000 0.34510  0.34620  0.17520  Biso   1.000  O
  O46      1.0000 0.15490  0.65380  0.67520  Biso   1.000  O
  O47      1.0000 0.65490  0.84620  0.32480  Biso   1.000  O
  O48      1.0000 0.84510  0.15380  0.82480  Biso   1.000  O
  O49      1.0000 0.21430  0.37340  0.08950  Biso   1.000  O
  O50      1.0000 0.28570  0.62660  0.58950  Biso   1.000  O
  O51      1.0000 0.78570  0.87340  0.41050  Biso   1.000  O
  O52      1.0000 0.71430  0.12660  0.91050  Biso   1.000  O
  O53      1.0000 0.25460  0.32260  0.11230  Biso   1.000  O
  O54      1.0000 0.24540  0.67740  0.61230  Biso   1.000  O
  O55      1.0000 0.74540  0.82260  0.38770  Biso   1.000  O
  O56      1.0000 0.75460  0.17740  0.88770  Biso   1.000  O
  O57      1.0000 0.42130  0.39770  0.11170  Biso   1.000  O
  O58      1.0000 0.07870  0.60230  0.61170  Biso   1.000  O
  O59      1.0000 0.57870  0.89770  0.38830  Biso   1.000  O
  O60      1.0000 0.92130  0.10230  0.88830  Biso   1.000  O
  O61      1.0000 0.27610  0.46250  0.04820  Biso   1.000  O
  O62      1.0000 0.22390  0.53750  0.54820  Biso   1.000  O
  O63      1.0000 0.72390  0.96250  0.45180  Biso   1.000  O
  O64      1.0000 0.77610  0.03750  0.95180  Biso   1.000  O
  O65      1.0000 0.28250  0.47470  0.17080  Biso   1.000  O
  O66      1.0000 0.21750  0.52530  0.67080  Biso   1.000  O
  O67      1.0000 0.71750  0.97470  0.32920  Biso   1.000  O
  O68      1.0000 0.78250  0.02530  0.82920  Biso   1.000  O
