data_image0
_cell_length_a       12.438
_cell_length_b       14.4721
_cell_length_c       19.13
_cell_angle_alpha    90
_cell_angle_beta     90
_cell_angle_gamma    90

_symmetry_space_group_name_H-M    "P 1"
_symmetry_int_tables_number       1

loop_
  _symmetry_equiv_pos_as_xyz
  'x, y, z'

loop_
  _atom_site_label
  _atom_site_occupancy
  _atom_site_fract_x
  _atom_site_fract_y
  _atom_site_fract_z
  _atom_site_thermal_displace_type
  _atom_site_B_iso_or_equiv
  _atom_site_type_symbol
  Se1      1.0000 0.66510  0.35822  0.11793  Biso   1.000  Se
  Se2      1.0000 0.83490  0.64178  0.61793  Biso   1.000  Se
  Se3      1.0000 0.33490  0.85822  0.38207  Biso   1.000  Se
  Se4      1.0000 0.16510  0.14178  0.88207  Biso   1.000  Se
  Cu1      1.0000 0.16995  0.58005  0.12199  Biso   1.000  Cu
  Cu2      1.0000 0.33005  0.41995  0.62199  Biso   1.000  Cu
  Cu3      1.0000 0.83005  0.08005  0.37801  Biso   1.000  Cu
  Cu4      1.0000 0.66995  0.91995  0.87801  Biso   1.000  Cu
  Cu5      1.0000 0.52764  0.46689  0.01356  Biso   1.000  Cu
  Cu6      1.0000 0.97236  0.53311  0.51356  Biso   1.000  Cu
  Cu7      1.0000 0.47236  0.96689  0.48644  Biso   1.000  Cu
  Cu8      1.0000 0.02764  0.03311  0.98644  Biso   1.000  Cu
  Cu9      1.0000 0.82320  0.42571  0.82286  Biso   1.000  Cu
  Cu10     1.0000 0.67680  0.57429  0.32286  Biso   1.000  Cu
  Cu11     1.0000 0.17680  0.92571  0.67714  Biso   1.000  Cu
  Cu12     1.0000 0.32320  0.07429  0.17714  Biso   1.000  Cu
  O1       1.0000 0.22516  0.46430  0.08028  Biso   1.000  O
  O2       1.0000 0.27484  0.53570  0.58028  Biso   1.000  O
  O3       1.0000 0.77484  0.96430  0.41972  Biso   1.000  O
  O4       1.0000 0.72516  0.03570  0.91972  Biso   1.000  O
  O5       1.0000 0.32617  0.61646  0.12293  Biso   1.000  O
  O6       1.0000 0.17383  0.38354  0.62293  Biso   1.000  O
  O7       1.0000 0.67383  0.11646  0.37707  Biso   1.000  O
  O8       1.0000 0.82617  0.88354  0.87707  Biso   1.000  O
  O9       1.0000 0.47841  0.57046  0.07458  Biso   1.000  O
  O10      1.0000 0.02159  0.42954  0.57458  Biso   1.000  O
  O11      1.0000 0.52159  0.07046  0.42542  Biso   1.000  O
  O12      1.0000 0.97841  0.92954  0.92542  Biso   1.000  O
  O13      1.0000 0.66148  0.53093  0.98202  Biso   1.000  O
  O14      1.0000 0.83852  0.46907  0.48202  Biso   1.000  O
  O15      1.0000 0.33852  0.03093  0.51798  Biso   1.000  O
  O16      1.0000 0.16148  0.96907  0.01798  Biso   1.000  O
  O17      1.0000 0.68668  0.36515  0.84948  Biso   1.000  O
  O18      1.0000 0.81332  0.63485  0.34948  Biso   1.000  O
  O19      1.0000 0.31332  0.86515  0.65052  Biso   1.000  O
  O20      1.0000 0.18668  0.13485  0.15052  Biso   1.000  O
  O21      1.0000 0.78916  0.51283  0.90277  Biso   1.000  O
  O22      1.0000 0.71084  0.48717  0.40277  Biso   1.000  O
  O23      1.0000 0.21084  0.01283  0.59723  Biso   1.000  O
  O24      1.0000 0.28916  0.98717  0.09723  Biso   1.000  O
  O25      1.0000 0.15140  0.64320  0.01069  Biso   1.000  O
  O26      1.0000 0.34860  0.35680  0.51069  Biso   1.000  O
  O27      1.0000 0.84860  0.14320  0.48931  Biso   1.000  O
  O28      1.0000 0.65140  0.85680  0.98931  Biso   1.000  O
  O29      1.0000 0.79410  0.68780  0.01870  Biso   1.000  O
  O30      1.0000 0.70590  0.31220  0.51870  Biso   1.000  O
  O31      1.0000 0.20590  0.18780  0.48130  Biso   1.000  O
  O32      1.0000 0.29410  0.81220  0.98130  Biso   1.000  O
  O33      1.0000 0.98570  0.73140  0.95483  Biso   1.000  O
  O34      1.0000 0.51430  0.26860  0.45483  Biso   1.000  O
  O35      1.0000 0.01430  0.23140  0.54517  Biso   1.000  O
  O36      1.0000 0.48570  0.76860  0.04517  Biso   1.000  O
  N1       1.0000 0.12540  0.68950  0.17791  Biso   1.000  N
  N2       1.0000 0.37460  0.31050  0.67791  Biso   1.000  N
  N3       1.0000 0.87460  0.18950  0.32209  Biso   1.000  N
  N4       1.0000 0.62540  0.81050  0.82209  Biso   1.000  N
  N5       1.0000 0.02400  0.52580  0.14113  Biso   1.000  N
  N6       1.0000 0.47600  0.47420  0.64113  Biso   1.000  N
  N7       1.0000 0.97600  0.02580  0.35887  Biso   1.000  N
  N8       1.0000 0.52400  0.97420  0.85887  Biso   1.000  N
  N9       1.0000 0.38571  0.41543  0.03131  Biso   1.000  N
  N10      1.0000 0.11429  0.58457  0.53131  Biso   1.000  N
  N11      1.0000 0.61429  0.91543  0.46869  Biso   1.000  N
  N12      1.0000 0.88571  0.08457  0.96869  Biso   1.000  N
  N13      1.0000 0.56330  0.37972  0.94019  Biso   1.000  N
  N14      1.0000 0.93670  0.62028  0.44019  Biso   1.000  N
  N15      1.0000 0.43670  0.87972  0.55981  Biso   1.000  N
  N16      1.0000 0.06330  0.12028  0.05981  Biso   1.000  N
  N17      1.0000 0.87170  0.31500  0.76490  Biso   1.000  N
  N18      1.0000 0.62830  0.68500  0.26490  Biso   1.000  N
  N19      1.0000 0.12830  0.81500  0.73510  Biso   1.000  N
  N20      1.0000 0.37170  0.18500  0.23510  Biso   1.000  N
  N21      1.0000 0.98010  0.46240  0.82689  Biso   1.000  N
  N22      1.0000 0.51990  0.53760  0.32689  Biso   1.000  N
  N23      1.0000 0.01990  0.96240  0.67311  Biso   1.000  N
  N24      1.0000 0.48010  0.03760  0.17311  Biso   1.000  N
  N25      1.0000 0.72360  0.47580  0.23830  Biso   1.000  N
  N26      1.0000 0.77640  0.52420  0.73830  Biso   1.000  N
  N27      1.0000 0.27640  0.97580  0.26170  Biso   1.000  N
  N28      1.0000 0.22360  0.02420  0.76170  Biso   1.000  N
  C1       1.0000 0.01020  0.67350  0.19490  Biso   1.000  C
  C2       1.0000 0.48980  0.32650  0.69490  Biso   1.000  C
  C3       1.0000 0.98980  0.17350  0.30510  Biso   1.000  C
  C4       1.0000 0.51020  0.82650  0.80510  Biso   1.000  C
  H1       1.0000 0.99800  0.69570  0.24210  Biso   1.000  H
  H2       1.0000 0.50200  0.30430  0.74210  Biso   1.000  H
  H3       1.0000 0.00200  0.19570  0.25790  Biso   1.000  H
  H4       1.0000 0.49800  0.80430  0.75790  Biso   1.000  H
  H5       1.0000 0.96760  0.71190  0.16390  Biso   1.000  H
  H6       1.0000 0.53240  0.28810  0.66390  Biso   1.000  H
  H7       1.0000 0.03240  0.21190  0.33610  Biso   1.000  H
  H8       1.0000 0.46760  0.78810  0.83610  Biso   1.000  H
  C5       1.0000 0.97240  0.58970  0.19120  Biso   1.000  C
  C6       1.0000 0.52760  0.41030  0.69120  Biso   1.000  C
  C7       1.0000 0.02760  0.08970  0.30880  Biso   1.000  C
  C8       1.0000 0.47240  0.91030  0.80880  Biso   1.000  C
  H9       1.0000 0.89670  0.59370  0.17950  Biso   1.000  H
  H10      1.0000 0.60330  0.40630  0.67950  Biso   1.000  H
  H11      1.0000 0.10330  0.09370  0.32050  Biso   1.000  H
  H12      1.0000 0.39670  0.90630  0.82050  Biso   1.000  H
  H13      1.0000 0.97730  0.56230  0.23740  Biso   1.000  H
  H14      1.0000 0.52270  0.43770  0.73740  Biso   1.000  H
  H15      1.0000 0.02270  0.06230  0.26260  Biso   1.000  H
  H16      1.0000 0.47730  0.93770  0.76260  Biso   1.000  H
  C9       1.0000 0.18980  0.70180  0.24090  Biso   1.000  C
  C10      1.0000 0.31020  0.29820  0.74090  Biso   1.000  C
  C11      1.0000 0.81020  0.20180  0.25910  Biso   1.000  C
  C12      1.0000 0.68980  0.79820  0.75910  Biso   1.000  C
  H17      1.0000 0.18510  0.64720  0.26930  Biso   1.000  H
  H18      1.0000 0.31490  0.35280  0.76930  Biso   1.000  H
  H19      1.0000 0.81490  0.14720  0.23070  Biso   1.000  H
  H20      1.0000 0.68510  0.85280  0.73070  Biso   1.000  H
  H21      1.0000 0.16330  0.75390  0.26680  Biso   1.000  H
  H22      1.0000 0.33670  0.24610  0.76680  Biso   1.000  H
  H23      1.0000 0.83670  0.25390  0.23320  Biso   1.000  H
  H24      1.0000 0.66330  0.74610  0.73320  Biso   1.000  H
  H25      1.0000 0.26340  0.71240  0.22820  Biso   1.000  H
  H26      1.0000 0.23660  0.28760  0.72820  Biso   1.000  H
  H27      1.0000 0.73660  0.21240  0.27180  Biso   1.000  H
  H28      1.0000 0.76340  0.78760  0.77180  Biso   1.000  H
  C13      1.0000 0.13920  0.77450  0.13790  Biso   1.000  C
  C14      1.0000 0.36080  0.22550  0.63790  Biso   1.000  C
  C15      1.0000 0.86080  0.27450  0.36210  Biso   1.000  C
  C16      1.0000 0.63920  0.72550  0.86210  Biso   1.000  C
  H29      1.0000 0.09900  0.77040  0.09510  Biso   1.000  H
  H30      1.0000 0.40100  0.22960  0.59510  Biso   1.000  H
  H31      1.0000 0.90100  0.27040  0.40490  Biso   1.000  H
  H32      1.0000 0.59900  0.72960  0.90490  Biso   1.000  H
  H33      1.0000 0.21400  0.78310  0.12730  Biso   1.000  H
  H34      1.0000 0.28600  0.21690  0.62730  Biso   1.000  H
  H35      1.0000 0.78600  0.28310  0.37270  Biso   1.000  H
  H36      1.0000 0.71400  0.71690  0.87270  Biso   1.000  H
  H37      1.0000 0.11370  0.82600  0.16480  Biso   1.000  H
  H38      1.0000 0.38630  0.17400  0.66480  Biso   1.000  H
  H39      1.0000 0.88630  0.32600  0.33520  Biso   1.000  H
  H40      1.0000 0.61370  0.67400  0.83520  Biso   1.000  H
  C17      1.0000 0.96490  0.50770  0.07600  Biso   1.000  C
  C18      1.0000 0.53510  0.49230  0.57600  Biso   1.000  C
  C19      1.0000 0.03510  0.00770  0.42400  Biso   1.000  C
  C20      1.0000 0.46490  0.99230  0.92400  Biso   1.000  C
  H41      1.0000 0.95680  0.56430  0.05040  Biso   1.000  H
  H42      1.0000 0.54320  0.43570  0.55040  Biso   1.000  H
  H43      1.0000 0.04320  0.06430  0.44960  Biso   1.000  H
  H44      1.0000 0.45680  0.93570  0.94960  Biso   1.000  H
  H45      1.0000 0.89530  0.48310  0.08690  Biso   1.000  H
  H46      1.0000 0.60470  0.51690  0.58690  Biso   1.000  H
  H47      1.0000 0.10470  0.98310  0.41310  Biso   1.000  H
  H48      1.0000 0.39530  0.01690  0.91310  Biso   1.000  H
  H49      1.0000 0.00410  0.46390  0.04820  Biso   1.000  H
  H50      1.0000 0.49590  0.53610  0.54820  Biso   1.000  H
  H51      1.0000 0.99590  0.96390  0.45180  Biso   1.000  H
  H52      1.0000 0.50410  0.03610  0.95180  Biso   1.000  H
  C21      1.0000 0.03070  0.43710  0.17650  Biso   1.000  C
  C22      1.0000 0.46930  0.56290  0.67650  Biso   1.000  C
  C23      1.0000 0.96930  0.93710  0.32350  Biso   1.000  C
  C24      1.0000 0.53070  0.06290  0.82350  Biso   1.000  C
  H53      1.0000 0.06660  0.44470  0.22050  Biso   1.000  H
  H54      1.0000 0.43340  0.55530  0.72050  Biso   1.000  H
  H55      1.0000 0.93340  0.94470  0.27950  Biso   1.000  H
  H56      1.0000 0.56660  0.05530  0.77950  Biso   1.000  H
  H57      1.0000 0.07020  0.39440  0.14790  Biso   1.000  H
  H58      1.0000 0.42980  0.60560  0.64790  Biso   1.000  H
  H59      1.0000 0.92980  0.89440  0.35210  Biso   1.000  H
  H60      1.0000 0.57020  0.10560  0.85210  Biso   1.000  H
  H61      1.0000 0.95950  0.41360  0.18430  Biso   1.000  H
  H62      1.0000 0.54050  0.58640  0.68430  Biso   1.000  H
  H63      1.0000 0.04050  0.91360  0.31570  Biso   1.000  H
  H64      1.0000 0.45950  0.08640  0.81570  Biso   1.000  H
  C25      1.0000 0.32470  0.47120  0.06507  Biso   1.000  C
  C26      1.0000 0.17530  0.52880  0.56507  Biso   1.000  C
  C27      1.0000 0.67530  0.97120  0.43493  Biso   1.000  C
  C28      1.0000 0.82470  0.02880  0.93493  Biso   1.000  C
  C29      1.0000 0.38130  0.55880  0.08860  Biso   1.000  C
  C30      1.0000 0.11870  0.44120  0.58860  Biso   1.000  C
  C31      1.0000 0.61870  0.05880  0.41140  Biso   1.000  C
  C32      1.0000 0.88130  0.94120  0.91140  Biso   1.000  C
  C33      1.0000 0.34100  0.33190  0.00074  Biso   1.000  C
  C34      1.0000 0.15900  0.66810  0.50074  Biso   1.000  C
  C35      1.0000 0.65900  0.83190  0.49926  Biso   1.000  C
  C36      1.0000 0.84100  0.16810  0.99926  Biso   1.000  C
  H65      1.0000 0.29780  0.34820  0.96040  Biso   1.000  H
  H66      1.0000 0.20220  0.65180  0.46040  Biso   1.000  H
  H67      1.0000 0.70220  0.84820  0.53960  Biso   1.000  H
  H68      1.0000 0.79780  0.15180  0.03960  Biso   1.000  H
  H69      1.0000 0.29440  0.30210  0.03460  Biso   1.000  H
  H70      1.0000 0.20560  0.69790  0.53460  Biso   1.000  H
  H71      1.0000 0.70560  0.80210  0.46540  Biso   1.000  H
  H72      1.0000 0.79440  0.19790  0.96540  Biso   1.000  H
  C37      1.0000 0.42770  0.26540  0.97880  Biso   1.000  C
  C38      1.0000 0.07230  0.73460  0.47880  Biso   1.000  C
  C39      1.0000 0.57230  0.76540  0.52120  Biso   1.000  C
  C40      1.0000 0.92770  0.23460  0.02120  Biso   1.000  C
  H73      1.0000 0.39380  0.20850  0.96360  Biso   1.000  H
  H74      1.0000 0.10620  0.79150  0.46360  Biso   1.000  H
  H75      1.0000 0.60620  0.70850  0.53640  Biso   1.000  H
  H76      1.0000 0.89380  0.29150  0.03640  Biso   1.000  H
  H77      1.0000 0.47130  0.25090  0.01940  Biso   1.000  H
  H78      1.0000 0.02870  0.74910  0.51940  Biso   1.000  H
  H79      1.0000 0.52870  0.75090  0.48060  Biso   1.000  H
  H80      1.0000 0.97130  0.24910  0.98060  Biso   1.000  H
  C41      1.0000 0.50230  0.29920  0.92027  Biso   1.000  C
  C42      1.0000 0.99770  0.70080  0.42027  Biso   1.000  C
  C43      1.0000 0.49770  0.79920  0.57973  Biso   1.000  C
  C44      1.0000 0.00230  0.20080  0.07973  Biso   1.000  C
  H81      1.0000 0.55150  0.24990  0.90780  Biso   1.000  H
  H82      1.0000 0.94850  0.75010  0.40780  Biso   1.000  H
  H83      1.0000 0.44850  0.74990  0.59220  Biso   1.000  H
  H84      1.0000 0.05150  0.25010  0.09220  Biso   1.000  H
  H85      1.0000 0.45950  0.31370  0.87930  Biso   1.000  H
  H86      1.0000 0.04050  0.68630  0.37930  Biso   1.000  H
  H87      1.0000 0.54050  0.81370  0.62070  Biso   1.000  H
  H88      1.0000 0.95950  0.18630  0.12070  Biso   1.000  H
  C45      1.0000 0.64620  0.40430  0.90402  Biso   1.000  C
  C46      1.0000 0.85380  0.59570  0.40402  Biso   1.000  C
  C47      1.0000 0.35380  0.90430  0.59598  Biso   1.000  C
  C48      1.0000 0.14620  0.09570  0.09598  Biso   1.000  C
  C49      1.0000 0.70230  0.48920  0.93148  Biso   1.000  C
  C50      1.0000 0.79770  0.51080  0.43148  Biso   1.000  C
  C51      1.0000 0.29770  0.98920  0.56852  Biso   1.000  C
  C52      1.0000 0.20230  0.01080  0.06852  Biso   1.000  C
  C53      1.0000 0.99090  0.32470  0.75600  Biso   1.000  C
  C54      1.0000 0.50910  0.67530  0.25600  Biso   1.000  C
  C55      1.0000 0.00910  0.82470  0.74400  Biso   1.000  C
  C56      1.0000 0.49090  0.17530  0.24400  Biso   1.000  C
  H89      1.0000 0.02720  0.28850  0.79150  Biso   1.000  H
  H90      1.0000 0.47280  0.71150  0.29150  Biso   1.000  H
  H91      1.0000 0.97280  0.78850  0.70850  Biso   1.000  H
  H92      1.0000 0.52720  0.21150  0.20850  Biso   1.000  H
  H93      1.0000 0.01150  0.30060  0.71060  Biso   1.000  H
  H94      1.0000 0.48850  0.69940  0.21060  Biso   1.000  H
  H95      1.0000 0.98850  0.80060  0.78940  Biso   1.000  H
  H96      1.0000 0.51150  0.19940  0.28940  Biso   1.000  H
  C57      1.0000 0.02500  0.42100  0.76140  Biso   1.000  C
  C58      1.0000 0.47500  0.57900  0.26140  Biso   1.000  C
  C59      1.0000 0.97500  0.92100  0.73860  Biso   1.000  C
  C60      1.0000 0.52500  0.07900  0.23860  Biso   1.000  C
  H97      1.0000 0.99960  0.45540  0.72110  Biso   1.000  H
  H98      1.0000 0.50040  0.54460  0.22110  Biso   1.000  H
  H99      1.0000 0.00040  0.95540  0.77890  Biso   1.000  H
  H100     1.0000 0.49960  0.04460  0.27890  Biso   1.000  H
  H101     1.0000 0.10280  0.42430  0.76230  Biso   1.000  H
  H102     1.0000 0.39720  0.57570  0.26230  Biso   1.000  H
  H103     1.0000 0.89720  0.92430  0.73770  Biso   1.000  H
  H104     1.0000 0.60280  0.07570  0.23770  Biso   1.000  H
  C61      1.0000 0.84980  0.22650  0.80040  Biso   1.000  C
  C62      1.0000 0.65020  0.77350  0.30040  Biso   1.000  C
  C63      1.0000 0.15020  0.72650  0.69960  Biso   1.000  C
  C64      1.0000 0.34980  0.27350  0.19960  Biso   1.000  C
  H105     1.0000 0.88210  0.22710  0.84600  Biso   1.000  H
  H106     1.0000 0.61790  0.77290  0.34600  Biso   1.000  H
  H107     1.0000 0.11790  0.72710  0.65400  Biso   1.000  H
  H108     1.0000 0.38210  0.27290  0.15400  Biso   1.000  H
  H109     1.0000 0.87960  0.17670  0.77340  Biso   1.000  H
  H110     1.0000 0.62040  0.82330  0.27340  Biso   1.000  H
  H111     1.0000 0.12040  0.67670  0.72660  Biso   1.000  H
  H112     1.0000 0.37960  0.32330  0.22660  Biso   1.000  H
  H113     1.0000 0.77360  0.21800  0.80480  Biso   1.000  H
  H114     1.0000 0.72640  0.78200  0.30480  Biso   1.000  H
  H115     1.0000 0.22640  0.71800  0.69520  Biso   1.000  H
  H116     1.0000 0.27360  0.28200  0.19520  Biso   1.000  H
  C65      1.0000 0.82160  0.31640  0.69570  Biso   1.000  C
  C66      1.0000 0.67840  0.68360  0.19570  Biso   1.000  C
  C67      1.0000 0.17840  0.81640  0.80430  Biso   1.000  C
  C68      1.0000 0.32160  0.18360  0.30430  Biso   1.000  C
  H117     1.0000 0.83720  0.37410  0.67310  Biso   1.000  H
  H118     1.0000 0.66280  0.62590  0.17310  Biso   1.000  H
  H119     1.0000 0.16280  0.87410  0.82690  Biso   1.000  H
  H120     1.0000 0.33720  0.12590  0.32690  Biso   1.000  H
  H121     1.0000 0.74520  0.30940  0.70050  Biso   1.000  H
  H122     1.0000 0.75480  0.69060  0.20050  Biso   1.000  H
  H123     1.0000 0.25480  0.80940  0.79950  Biso   1.000  H
  H124     1.0000 0.24520  0.19060  0.29950  Biso   1.000  H
  H125     1.0000 0.84970  0.26650  0.66810  Biso   1.000  H
  H126     1.0000 0.65030  0.73350  0.16810  Biso   1.000  H
  H127     1.0000 0.15030  0.76650  0.83190  Biso   1.000  H
  H128     1.0000 0.34970  0.23350  0.33190  Biso   1.000  H
  C69      1.0000 0.02940  0.42680  0.88990  Biso   1.000  C
  C70      1.0000 0.47060  0.57320  0.38990  Biso   1.000  C
  C71      1.0000 0.97060  0.92680  0.61010  Biso   1.000  C
  C72      1.0000 0.52940  0.07320  0.11010  Biso   1.000  C
  H129     1.0000 0.02160  0.36080  0.89120  Biso   1.000  H
  H130     1.0000 0.47840  0.63920  0.39120  Biso   1.000  H
  H131     1.0000 0.97840  0.86080  0.60880  Biso   1.000  H
  H132     1.0000 0.52160  0.13920  0.10880  Biso   1.000  H
  H133     1.0000 0.99480  0.45340  0.93000  Biso   1.000  H
  H134     1.0000 0.50520  0.54660  0.43000  Biso   1.000  H
  H135     1.0000 0.00520  0.95340  0.57000  Biso   1.000  H
  H136     1.0000 0.49480  0.04660  0.07000  Biso   1.000  H
  H137     1.0000 0.10430  0.44250  0.89030  Biso   1.000  H
  H138     1.0000 0.39570  0.55750  0.39030  Biso   1.000  H
  H139     1.0000 0.89570  0.94250  0.60970  Biso   1.000  H
  H140     1.0000 0.60430  0.05750  0.10970  Biso   1.000  H
  C73      1.0000 0.99600  0.56470  0.82610  Biso   1.000  C
  C74      1.0000 0.50400  0.43530  0.32610  Biso   1.000  C
  C75      1.0000 0.00400  0.06470  0.67390  Biso   1.000  C
  C76      1.0000 0.49600  0.93530  0.17390  Biso   1.000  C
  H141     1.0000 0.96460  0.59010  0.78450  Biso   1.000  H
  H142     1.0000 0.53540  0.40990  0.28450  Biso   1.000  H
  H143     1.0000 0.03540  0.09010  0.71550  Biso   1.000  H
  H144     1.0000 0.46460  0.90990  0.21550  Biso   1.000  H
  H145     1.0000 0.07150  0.57840  0.82700  Biso   1.000  H
  H146     1.0000 0.42850  0.42160  0.32700  Biso   1.000  H
  H147     1.0000 0.92850  0.07840  0.67300  Biso   1.000  H
  H148     1.0000 0.57150  0.92160  0.17300  Biso   1.000  H
  H149     1.0000 0.96200  0.59140  0.86640  Biso   1.000  H
  H150     1.0000 0.53800  0.40860  0.36640  Biso   1.000  H
  H151     1.0000 0.03800  0.09140  0.63360  Biso   1.000  H
  H152     1.0000 0.46200  0.90860  0.13360  Biso   1.000  H
  C77      1.0000 0.69990  0.43070  0.19200  Biso   1.000  C
  C78      1.0000 0.80010  0.56930  0.69200  Biso   1.000  C
  C79      1.0000 0.30010  0.93070  0.30800  Biso   1.000  C
  C80      1.0000 0.19990  0.06930  0.80800  Biso   1.000  C
  Cl1      1.0000 0.84449  0.93020  0.13014  Biso   1.000  Cl
  Cl2      1.0000 0.65551  0.06980  0.63014  Biso   1.000  Cl
  Cl3      1.0000 0.15551  0.43020  0.36986  Biso   1.000  Cl
  Cl4      1.0000 0.34449  0.56980  0.86986  Biso   1.000  Cl
  O37      1.0000 0.94410  0.96670  0.12770  Biso   1.000  O
  O38      1.0000 0.55590  0.03330  0.62770  Biso   1.000  O
  O39      1.0000 0.05590  0.46670  0.37230  Biso   1.000  O
  O40      1.0000 0.44410  0.53330  0.87230  Biso   1.000  O
  O41      1.0000 0.77880  0.93670  0.07550  Biso   1.000  O
  O42      1.0000 0.72120  0.06330  0.57550  Biso   1.000  O
  O43      1.0000 0.22120  0.43670  0.42450  Biso   1.000  O
  O44      1.0000 0.27880  0.56330  0.92450  Biso   1.000  O
  O45      1.0000 0.84670  0.84750  0.16670  Biso   1.000  O
  O46      1.0000 0.65330  0.15250  0.66670  Biso   1.000  O
  O47      1.0000 0.15330  0.34750  0.33330  Biso   1.000  O
  O48      1.0000 0.34670  0.65250  0.83330  Biso   1.000  O
  O49      1.0000 0.79310  0.98700  0.18550  Biso   1.000  O
  O50      1.0000 0.70690  0.01300  0.68550  Biso   1.000  O
  O51      1.0000 0.20690  0.48700  0.31450  Biso   1.000  O
  O52      1.0000 0.29310  0.51300  0.81450  Biso   1.000  O
