data_image0
_cell_length_a       12.245
_cell_length_b       12.559
_cell_length_c       12.983
_cell_angle_alpha    103.75
_cell_angle_beta     98.64
_cell_angle_gamma    118.67

_symmetry_space_group_name_H-M    "P 1"
_symmetry_int_tables_number       1

loop_
  _symmetry_equiv_pos_as_xyz
  'x, y, z'

loop_
  _atom_site_label
  _atom_site_occupancy
  _atom_site_fract_x
  _atom_site_fract_y
  _atom_site_fract_z
  _atom_site_thermal_displace_type
  _atom_site_B_iso_or_equiv
  _atom_site_type_symbol
  C1       1.0000 0.31710  0.94480  0.47070  Biso   1.000  C
  C2       1.0000 0.68290  0.05520  0.52930  Biso   1.000  C
  H1       1.0000 0.30950  0.91730  0.39540  Biso   1.000  H
  H2       1.0000 0.69050  0.08270  0.60460  Biso   1.000  H
  C3       1.0000 0.30910  0.87590  0.53700  Biso   1.000  C
  C4       1.0000 0.69090  0.12410  0.46300  Biso   1.000  C
  H3       1.0000 0.29520  0.79320  0.51620  Biso   1.000  H
  H4       1.0000 0.70480  0.20680  0.48380  Biso   1.000  H
  C5       1.0000 0.34200  0.06100  0.63320  Biso   1.000  C
  C6       1.0000 0.65800  0.93900  0.36680  Biso   1.000  C
  H5       1.0000 0.35480  0.12880  0.69230  Biso   1.000  H
  H6       1.0000 0.64520  0.87120  0.30770  Biso   1.000  H
  C7       1.0000 0.32200  0.91450  0.73950  Biso   1.000  C
  C8       1.0000 0.67800  0.08550  0.26050  Biso   1.000  C
  H7       1.0000 0.37940  0.99280  0.80470  Biso   1.000  H
  H8       1.0000 0.62060  0.00720  0.19530  Biso   1.000  H
  H9       1.0000 0.35630  0.85880  0.73680  Biso   1.000  H
  H10      1.0000 0.64370  0.14120  0.26320  Biso   1.000  H
  C9       1.0000 0.18670  0.84530  0.75250  Biso   1.000  C
  C10      1.0000 0.81330  0.15470  0.24750  Biso   1.000  C
  C11      1.0000 0.17250  0.79690  0.83770  Biso   1.000  C
  C12      1.0000 0.82750  0.20310  0.16230  Biso   1.000  C
  H11      1.0000 0.24370  0.80310  0.88240  Biso   1.000  H
  H12      1.0000 0.75630  0.19690  0.11760  Biso   1.000  H
  C13      1.0000 0.05230  0.73870  0.85700  Biso   1.000  C
  C14      1.0000 0.94770  0.26130  0.14300  Biso   1.000  C
  H13      1.0000 0.04440  0.70730  0.91530  Biso   1.000  H
  H14      1.0000 0.95560  0.29270  0.08470  Biso   1.000  H
  C15      1.0000 0.94450  0.72670  0.79140  Biso   1.000  C
  C16      1.0000 0.05550  0.27330  0.20860  Biso   1.000  C
  C17      1.0000 0.95940  0.77280  0.70470  Biso   1.000  C
  C18      1.0000 0.04060  0.22720  0.29530  Biso   1.000  C
  H15      1.0000 0.88750  0.76390  0.65820  Biso   1.000  H
  H16      1.0000 0.11250  0.23610  0.34180  Biso   1.000  H
  C19      1.0000 0.07900  0.83200  0.68570  Biso   1.000  C
  C20      1.0000 0.92100  0.16800  0.31430  Biso   1.000  C
  H17      1.0000 0.08680  0.86310  0.62720  Biso   1.000  H
  H18      1.0000 0.91320  0.13690  0.37280  Biso   1.000  H
  C21      1.0000 0.81430  0.66460  0.81310  Biso   1.000  C
  C22      1.0000 0.18570  0.33540  0.18690  Biso   1.000  C
  H19      1.0000 0.82920  0.67850  0.89190  Biso   1.000  H
  H20      1.0000 0.17080  0.32150  0.10810  Biso   1.000  H
  H21      1.0000 0.76930  0.70650  0.79400  Biso   1.000  H
  H22      1.0000 0.23070  0.29350  0.20600  Biso   1.000  H
  C23      1.0000 0.73840  0.42800  0.77270  Biso   1.000  C
  C24      1.0000 0.26160  0.57200  0.22730  Biso   1.000  C
  H23      1.0000 0.79840  0.43840  0.83350  Biso   1.000  H
  H24      1.0000 0.20160  0.56160  0.16650  Biso   1.000  H
  C25      1.0000 0.64280  0.31520  0.69220  Biso   1.000  C
  C26      1.0000 0.35720  0.68480  0.30780  Biso   1.000  C
  H25      1.0000 0.62560  0.23350  0.68830  Biso   1.000  H
  H26      1.0000 0.37440  0.76650  0.31170  Biso   1.000  H
  C27      1.0000 0.63170  0.46690  0.65440  Biso   1.000  C
  C28      1.0000 0.36830  0.53310  0.34560  Biso   1.000  C
  H27      1.0000 0.60610  0.51160  0.61950  Biso   1.000  H
  H28      1.0000 0.39390  0.48840  0.38050  Biso   1.000  H
  C29      1.0000 0.15770  0.19190  0.56880  Biso   1.000  C
  C30      1.0000 0.84230  0.80810  0.43120  Biso   1.000  C
  H29      1.0000 0.11540  0.10300  0.55360  Biso   1.000  H
  H30      1.0000 0.88460  0.89700  0.44640  Biso   1.000  H
  C31      1.0000 0.11290  0.26820  0.61010  Biso   1.000  C
  C32      1.0000 0.88710  0.73180  0.38990  Biso   1.000  C
  H31      1.0000 0.03470  0.24100  0.62680  Biso   1.000  H
  H32      1.0000 0.96530  0.75900  0.37320  Biso   1.000  H
  C33      1.0000 0.30000  0.38690  0.58650  Biso   1.000  C
  C34      1.0000 0.70000  0.61310  0.41350  Biso   1.000  C
  H33      1.0000 0.37430  0.45890  0.58560  Biso   1.000  H
  H34      1.0000 0.62570  0.54110  0.41440  Biso   1.000  H
  C35      1.0000 0.19800  0.50760  0.66200  Biso   1.000  C
  C36      1.0000 0.80200  0.49240  0.33800  Biso   1.000  C
  H35      1.0000 0.28270  0.58440  0.67590  Biso   1.000  H
  H36      1.0000 0.71730  0.41560  0.32410  Biso   1.000  H
  H37      1.0000 0.17790  0.51320  0.73180  Biso   1.000  H
  H38      1.0000 0.82210  0.48680  0.26820  Biso   1.000  H
  C37      1.0000 0.09540  0.50430  0.57850  Biso   1.000  C
  C38      1.0000 0.90460  0.49570  0.42150  Biso   1.000  C
  C39      1.0000 0.11560  0.52530  0.48190  Biso   1.000  C
  C40      1.0000 0.88440  0.47470  0.51810  Biso   1.000  C
  H39      1.0000 0.19400  0.54250  0.46880  Biso   1.000  H
  H40      1.0000 0.80600  0.45750  0.53120  Biso   1.000  H
  C41      1.0000 0.97700  0.47860  0.59580  Biso   1.000  C
  C42      1.0000 0.02300  0.52140  0.40420  Biso   1.000  C
  H41      1.0000 0.96060  0.46390  0.66030  Biso   1.000  H
  H42      1.0000 0.03940  0.53610  0.33970  Biso   1.000  H
  C43      1.0000 0.43530  0.24800  0.32060  Biso   1.000  C
  C44      1.0000 0.56470  0.75200  0.67940  Biso   1.000  C
  N1       1.0000 0.33810  0.06190  0.53100  Biso   1.000  N
  N2       1.0000 0.66190  0.93810  0.46900  Biso   1.000  N
  N3       1.0000 0.32500  0.94960  0.64030  Biso   1.000  N
  N4       1.0000 0.67500  0.05040  0.35970  Biso   1.000  N
  N5       1.0000 0.73040  0.52400  0.74840  Biso   1.000  N
  N6       1.0000 0.26960  0.47600  0.25160  Biso   1.000  N
  N7       1.0000 0.57440  0.33890  0.61640  Biso   1.000  N
  N8       1.0000 0.42560  0.66110  0.38360  Biso   1.000  N
  N9       1.0000 0.27600  0.26780  0.55290  Biso   1.000  N
  N10      1.0000 0.72400  0.73220  0.44710  Biso   1.000  N
  N11      1.0000 0.20430  0.39170  0.62230  Biso   1.000  N
  N12      1.0000 0.79570  0.60830  0.37770  Biso   1.000  N
  O1       1.0000 0.40650  0.14100  0.33841  Biso   1.000  O
  O2       1.0000 0.59350  0.85900  0.66159  Biso   1.000  O
  O3       1.0000 0.43340  0.32960  0.39950  Biso   1.000  O
  O4       1.0000 0.56660  0.67040  0.60050  Biso   1.000  O
  O5       1.0000 0.46370  0.26920  0.23620  Biso   1.000  O
  O6       1.0000 0.53630  0.73080  0.76380  Biso   1.000  O
  Cu1      1.0000 0.39039  0.21364  0.48548  Biso   1.000  Cu
  Cu2      1.0000 0.60961  0.78636  0.51452  Biso   1.000  Cu
  C45      1.0000 0.87610  0.93700  0.00730  Biso   1.000  C
  C46      1.0000 0.12390  0.06300  0.99270  Biso   1.000  C
  H43      1.0000 0.79100  0.89390  0.01070  Biso   1.000  H
  H44      1.0000 0.20900  0.10610  0.98930  Biso   1.000  H
  C47      1.0000 0.90200  0.99300  0.92670  Biso   1.000  C
  C48      1.0000 0.09800  0.00700  0.07330  Biso   1.000  C
  H45      1.0000 0.83440  0.98790  0.87780  Biso   1.000  H
  H46      1.0000 0.16560  0.01210  0.12220  Biso   1.000  H
  C49      1.0000 0.97310  0.94380  0.08200  Biso   1.000  C
  C50      1.0000 0.02690  0.05620  0.91800  Biso   1.000  C
  C51      1.0000 0.94600  0.88270  0.16950  Biso   1.000  C
  C52      1.0000 0.05400  0.11730  0.83050  Biso   1.000  C
  H47      1.0000 0.86790  0.87570  0.18440  Biso   1.000  H
  H48      1.0000 0.13210  0.12430  0.81560  Biso   1.000  H
  H49      1.0000 0.01840  0.93970  0.23800  Biso   1.000  H
  H50      1.0000 0.98160  0.06030  0.76200  Biso   1.000  H
  C53      1.0000 0.02090  0.72480  0.14280  Biso   1.000  C
  C54      1.0000 0.97910  0.27520  0.85720  Biso   1.000  C
  H51      1.0000 0.11100  0.78340  0.16660  Biso   1.000  H
  H52      1.0000 0.88900  0.21660  0.83340  Biso   1.000  H
  C55      1.0000 0.81320  0.63860  0.09780  Biso   1.000  C
  C56      1.0000 0.18680  0.36140  0.90220  Biso   1.000  C
  H53      1.0000 0.73200  0.62980  0.08580  Biso   1.000  H
  H54      1.0000 0.26800  0.37020  0.91420  Biso   1.000  H
  C57      1.0000 0.95840  0.59500  0.10590  Biso   1.000  C
  C58      1.0000 0.04160  0.40500  0.89410  Biso   1.000  C
  H55      1.0000 0.00000  0.54940  0.10130  Biso   1.000  H
  H56      1.0000 0.00000  0.45060  0.89870  Biso   1.000  H
  N13      1.0000 0.92760  0.75470  0.13890  Biso   1.000  N
  N14      1.0000 0.07240  0.24530  0.86110  Biso   1.000  N
  N15      1.0000 0.82760  0.53900  0.07650  Biso   1.000  N
  N16      1.0000 0.17240  0.46100  0.92350  Biso   1.000  N
  O7       1.0000 0.47700  0.43360  0.12100  Biso   1.000  O
  O8       1.0000 0.52300  0.56640  0.87900  Biso   1.000  O
  H57      1.0000 0.48000  0.38700  0.16200  Biso   1.000  H
  H58      1.0000 0.52000  0.61300  0.83800  Biso   1.000  H
  H59      1.0000 0.47400  0.40100  0.05100  Biso   1.000  H
  H60      1.0000 0.52600  0.59900  0.94900  Biso   1.000  H
  O9       1.0000 0.43300  0.31180  0.87480  Biso   1.000  O
  O10      1.0000 0.56700  0.68820  0.12520  Biso   1.000  O
  H61      1.0000 0.50600  0.31000  0.89700  Biso   1.000  H
  H62      1.0000 0.49400  0.69000  0.10300  Biso   1.000  H
  H63      1.0000 0.47500  0.39800  0.87900  Biso   1.000  H
  H64      1.0000 0.52500  0.60200  0.12100  Biso   1.000  H
  O11      1.0000 0.33620  0.91730  0.17580  Biso   1.000  O
  O12      1.0000 0.66380  0.08270  0.82420  Biso   1.000  O
  H65      1.0000 0.39200  0.00020  0.20200  Biso   1.000  H
  H66      1.0000 0.60800  0.99980  0.79800  Biso   1.000  H
  H67      1.0000 0.36900  0.87300  0.18600  Biso   1.000  H
  H68      1.0000 0.63100  0.12700  0.81400  Biso   1.000  H
  O13      1.0000 0.46020  0.10820  0.05570  Biso   1.000  O
  O14      1.0000 0.53980  0.89180  0.94430  Biso   1.000  O
  H69      1.0000 0.48200  0.15000  0.12400  Biso   1.000  H
  H70      1.0000 0.51800  0.85000  0.87600  Biso   1.000  H
  H71      1.0000 0.44500  0.02800  0.05400  Biso   1.000  H
  H72      1.0000 0.55500  0.97200  0.94600  Biso   1.000  H
  O15      1.0000 0.37190  0.73200  0.04270  Biso   1.000  O
  O16      1.0000 0.62810  0.26800  0.95730  Biso   1.000  O
  H73      1.0000 0.30000  0.67500  0.99300  Biso   1.000  H
  H74      1.0000 0.70000  0.32500  0.00700  Biso   1.000  H
  H75      1.0000 0.39600  0.80800  0.02800  Biso   1.000  H
  H76      1.0000 0.60400  0.19200  0.97200  Biso   1.000  H
