data_image0
_cell_length_a       12.2286
_cell_length_b       12.4976
_cell_length_c       12.951
_cell_angle_alpha    103.759
_cell_angle_beta     98.726
_cell_angle_gamma    118.767

_symmetry_space_group_name_H-M    "P 1"
_symmetry_int_tables_number       1

loop_
  _symmetry_equiv_pos_as_xyz
  'x, y, z'

loop_
  _atom_site_label
  _atom_site_occupancy
  _atom_site_fract_x
  _atom_site_fract_y
  _atom_site_fract_z
  _atom_site_thermal_displace_type
  _atom_site_B_iso_or_equiv
  _atom_site_type_symbol
  Cu1      1.0000 0.88800  0.71292  0.48515  Biso   1.000  Cu
  Cu2      1.0000 0.11200  0.28708  0.51485  Biso   1.000  Cu
  N1       1.0000 0.07140  0.83680  0.61400  Biso   1.000  N
  N2       1.0000 0.92860  0.16320  0.38600  Biso   1.000  N
  N3       1.0000 0.23030  0.02330  0.74830  Biso   1.000  N
  N4       1.0000 0.76970  0.97670  0.25170  Biso   1.000  N
  N5       1.0000 0.83590  0.56120  0.53140  Biso   1.000  N
  N6       1.0000 0.16410  0.43880  0.46860  Biso   1.000  N
  N7       1.0000 0.82530  0.45060  0.64150  Biso   1.000  N
  N8       1.0000 0.17470  0.54940  0.35850  Biso   1.000  N
  N9       1.0000 0.70500  0.89230  0.62220  Biso   1.000  N
  N10      1.0000 0.29500  0.10770  0.37780  Biso   1.000  N
  N11      1.0000 0.77500  0.76810  0.55370  Biso   1.000  N
  N12      1.0000 0.22500  0.23190  0.44630  Biso   1.000  N
  O1       1.0000 0.90570  0.64090  0.33830  Biso   1.000  O
  O2       1.0000 0.09430  0.35910  0.66170  Biso   1.000  O
  O3       1.0000 0.93120  0.82930  0.39860  Biso   1.000  O
  O4       1.0000 0.06880  0.17070  0.60140  Biso   1.000  O
  O5       1.0000 0.96210  0.76960  0.23670  Biso   1.000  O
  O6       1.0000 0.03790  0.23040  0.76330  Biso   1.000  O
  C1       1.0000 0.13140  0.96630  0.65380  Biso   1.000  C
  C2       1.0000 0.86860  0.03370  0.34620  Biso   1.000  C
  H1       1.0000 0.10650  0.01190  0.61910  Biso   1.000  H
  H2       1.0000 0.89350  0.98810  0.38090  Biso   1.000  H
  C3       1.0000 0.14110  0.81340  0.69160  Biso   1.000  C
  C4       1.0000 0.85890  0.18660  0.30840  Biso   1.000  C
  H3       1.0000 0.12290  0.73090  0.68730  Biso   1.000  H
  H4       1.0000 0.87710  0.26910  0.31270  Biso   1.000  H
  C5       1.0000 0.23820  0.92680  0.77350  Biso   1.000  C
  C6       1.0000 0.76180  0.07320  0.22650  Biso   1.000  C
  H5       1.0000 0.29810  0.93690  0.83460  Biso   1.000  H
  H6       1.0000 0.70190  0.06310  0.16540  Biso   1.000  H
  C7       1.0000 0.31500  0.16390  0.81320  Biso   1.000  C
  C8       1.0000 0.68500  0.83610  0.18680  Biso   1.000  C
  H7       1.0000 0.33050  0.17750  0.89230  Biso   1.000  H
  H8       1.0000 0.66950  0.82250  0.10770  Biso   1.000  H
  H9       1.0000 0.27000  0.20630  0.79490  Biso   1.000  H
  H10      1.0000 0.73000  0.79370  0.20510  Biso   1.000  H
  C9       1.0000 0.44460  0.22640  0.79130  Biso   1.000  C
  C10      1.0000 0.55540  0.77360  0.20870  Biso   1.000  C
  C11      1.0000 0.45920  0.27320  0.70520  Biso   1.000  C
  C12      1.0000 0.54080  0.72680  0.29480  Biso   1.000  C
  H11      1.0000 0.38710  0.26480  0.65910  Biso   1.000  H
  H12      1.0000 0.61290  0.73520  0.34090  Biso   1.000  H
  C13      1.0000 0.57830  0.33240  0.68590  Biso   1.000  C
  C14      1.0000 0.42170  0.66760  0.31410  Biso   1.000  C
  H13      1.0000 0.58580  0.36360  0.62730  Biso   1.000  H
  H14      1.0000 0.41420  0.63640  0.37270  Biso   1.000  H
  C15      1.0000 0.68720  0.34590  0.75310  Biso   1.000  C
  C16      1.0000 0.31280  0.65410  0.24690  Biso   1.000  C
  C17      1.0000 0.67270  0.29750  0.83920  Biso   1.000  C
  C18      1.0000 0.32730  0.70250  0.16080  Biso   1.000  C
  H15      1.0000 0.74430  0.30450  0.88460  Biso   1.000  H
  H16      1.0000 0.25570  0.69550  0.11540  Biso   1.000  H
  C19      1.0000 0.55330  0.23910  0.85810  Biso   1.000  C
  C20      1.0000 0.44670  0.76090  0.14190  Biso   1.000  C
  H17      1.0000 0.54530  0.20760  0.91660  Biso   1.000  H
  H18      1.0000 0.45470  0.79240  0.08340  Biso   1.000  H
  C21      1.0000 0.82220  0.41600  0.74110  Biso   1.000  C
  C22      1.0000 0.17780  0.58400  0.25890  Biso   1.000  C
  H19      1.0000 0.87910  0.49520  0.80650  Biso   1.000  H
  H20      1.0000 0.12090  0.50480  0.19350  Biso   1.000  H
  H21      1.0000 0.85730  0.36080  0.73930  Biso   1.000  H
  H22      1.0000 0.14270  0.63920  0.26070  Biso   1.000  H
  C23      1.0000 0.84010  0.56070  0.63320  Biso   1.000  C
  C24      1.0000 0.15990  0.43930  0.36680  Biso   1.000  C
  H23      1.0000 0.85190  0.62870  0.69210  Biso   1.000  H
  H24      1.0000 0.14810  0.37130  0.30790  Biso   1.000  H
  C25      1.0000 0.80950  0.37550  0.53800  Biso   1.000  C
  C26      1.0000 0.19050  0.62450  0.46200  Biso   1.000  C
  H25      1.0000 0.79670  0.29280  0.51790  Biso   1.000  H
  H26      1.0000 0.20330  0.70720  0.48210  Biso   1.000  H
  C27      1.0000 0.81600  0.44400  0.47070  Biso   1.000  C
  C28      1.0000 0.18400  0.55600  0.52930  Biso   1.000  C
  H27      1.0000 0.80830  0.41620  0.39520  Biso   1.000  H
  H28      1.0000 0.19170  0.58380  0.60480  Biso   1.000  H
  C29      1.0000 0.79980  0.88780  0.58670  Biso   1.000  C
  C30      1.0000 0.20020  0.11220  0.41330  Biso   1.000  C
  H29      1.0000 0.87420  0.96010  0.58540  Biso   1.000  H
  H30      1.0000 0.12580  0.03990  0.41460  Biso   1.000  H
  C31      1.0000 0.65690  0.69230  0.56910  Biso   1.000  C
  C32      1.0000 0.34310  0.30770  0.43090  Biso   1.000  C
  H31      1.0000 0.61410  0.60270  0.55330  Biso   1.000  H
  H32      1.0000 0.38590  0.39730  0.44670  Biso   1.000  H
  C33      1.0000 0.61230  0.76780  0.61080  Biso   1.000  C
  C34      1.0000 0.38770  0.23220  0.38920  Biso   1.000  C
  H33      1.0000 0.53430  0.74070  0.62820  Biso   1.000  H
  H34      1.0000 0.46570  0.25930  0.37180  Biso   1.000  H
  C35      1.0000 0.69910  0.00880  0.66230  Biso   1.000  C
  C36      1.0000 0.30090  0.99120  0.33770  Biso   1.000  C
  H35      1.0000 0.78410  0.08620  0.67620  Biso   1.000  H
  H36      1.0000 0.21590  0.91380  0.32380  Biso   1.000  H
  H37      1.0000 0.67930  0.01450  0.73250  Biso   1.000  H
  H38      1.0000 0.32070  0.98550  0.26750  Biso   1.000  H
  C37      1.0000 0.59610  0.00480  0.57860  Biso   1.000  C
  C38      1.0000 0.40390  0.99520  0.42140  Biso   1.000  C
  C39      1.0000 0.47910  0.97960  0.59690  Biso   1.000  C
  C40      1.0000 0.52090  0.02040  0.40310  Biso   1.000  C
  H39      1.0000 0.46370  0.96580  0.66210  Biso   1.000  H
  H40      1.0000 0.53630  0.03420  0.33790  Biso   1.000  H
  C41      1.0000 0.61570  0.02520  0.48140  Biso   1.000  C
  C42      1.0000 0.38430  0.97480  0.51860  Biso   1.000  C
  H41      1.0000 0.69410  0.04260  0.46790  Biso   1.000  H
  H42      1.0000 0.30590  0.95740  0.53210  Biso   1.000  H
  C43      1.0000 0.93390  0.74710  0.32050  Biso   1.000  C
  C44      1.0000 0.06610  0.25290  0.67950  Biso   1.000  C
  N13      1.0000 0.67180  0.96160  0.92320  Biso   1.000  N
  N14      1.0000 0.32820  0.03840  0.07680  Biso   1.000  N
  N15      1.0000 0.57360  0.74670  0.86190  Biso   1.000  N
  N16      1.0000 0.42640  0.25330  0.13810  Biso   1.000  N
  C45      1.0000 0.68840  0.86390  0.90270  Biso   1.000  C
  C46      1.0000 0.31160  0.13610  0.09730  Biso   1.000  C
  H43      1.0000 0.77030  0.87400  0.91480  Biso   1.000  H
  H44      1.0000 0.22970  0.12600  0.08520  Biso   1.000  H
  C47      1.0000 0.54180  0.90540  0.89380  Biso   1.000  C
  C48      1.0000 0.45820  0.09460  0.10620  Biso   1.000  C
  H45      1.0000 0.50000  0.95110  0.89840  Biso   1.000  H
  H46      1.0000 0.50000  0.04890  0.10160  Biso   1.000  H
  C49      1.0000 0.47960  0.77540  0.85690  Biso   1.000  C
  C50      1.0000 0.52040  0.22460  0.14310  Biso   1.000  C
  H47      1.0000 0.38920  0.71590  0.83250  Biso   1.000  H
  H48      1.0000 0.61080  0.28410  0.16750  Biso   1.000  H
  C51      1.0000 0.55690  0.61820  0.83070  Biso   1.000  C
  C52      1.0000 0.44310  0.38180  0.16930  Biso   1.000  C
  H49      1.0000 0.63650  0.62680  0.81810  Biso   1.000  H
  H50      1.0000 0.36350  0.37320  0.18190  Biso   1.000  H
  H51      1.0000 0.48580  0.56060  0.76090  Biso   1.000  H
  H52      1.0000 0.51420  0.43940  0.23910  Biso   1.000  H
  C53      1.0000 0.52720  0.55640  0.91900  Biso   1.000  C
  C54      1.0000 0.47280  0.44360  0.08100  Biso   1.000  C
  C55      1.0000 0.40190  0.49270  0.92640  Biso   1.000  C
  C56      1.0000 0.59810  0.50730  0.07360  Biso   1.000  C
  H53      1.0000 0.33440  0.48730  0.87660  Biso   1.000  H
  H54      1.0000 0.66560  0.51270  0.12340  Biso   1.000  H
  C57      1.0000 0.62500  0.56310  0.99310  Biso   1.000  C
  C58      1.0000 0.37500  0.43690  0.00690  Biso   1.000  C
  H55      1.0000 0.71010  0.60570  0.98930  Biso   1.000  H
  H56      1.0000 0.28990  0.39430  0.01070  Biso   1.000  H
  O7       1.0000 0.83770  0.42050  0.17020  Biso   1.000  O
  O8       1.0000 0.16230  0.57950  0.82980  Biso   1.000  O
  H57      1.0000 0.87100  0.38400  0.19600  Biso   1.000  H
  H58      1.0000 0.12900  0.61600  0.80400  Biso   1.000  H
  H59      1.0000 0.86900  0.49400  0.22300  Biso   1.000  H
  H60      1.0000 0.13100  0.50600  0.77700  Biso   1.000  H
  O9       1.0000 0.03880  0.39210  0.94260  Biso   1.000  O
  O10      1.0000 0.96120  0.60790  0.05740  Biso   1.000  O
  H61      1.0000 0.02600  0.33300  0.88600  Biso   1.000  H
  H62      1.0000 0.97400  0.66700  0.11400  Biso   1.000  H
  H63      1.0000 0.09700  0.46400  0.94700  Biso   1.000  H
  H64      1.0000 0.90300  0.53600  0.05300  Biso   1.000  H
  O11      1.0000 0.93170  0.81140  0.87580  Biso   1.000  O
  O12      1.0000 0.06830  0.18860  0.12420  Biso   1.000  O
  H65      1.0000 0.99400  0.80000  0.88800  Biso   1.000  H
  H66      1.0000 0.00600  0.20000  0.11200  Biso   1.000  H
  H67      1.0000 0.96000  0.88000  0.86100  Biso   1.000  H
  H68      1.0000 0.04000  0.12000  0.13900  Biso   1.000  H
  O13      1.0000 0.97530  0.93380  0.12060  Biso   1.000  O
  O14      1.0000 0.02470  0.06620  0.87940  Biso   1.000  O
  H69      1.0000 0.98900  0.90300  0.16800  Biso   1.000  H
  H70      1.0000 0.01100  0.09700  0.83200  Biso   1.000  H
  H71      1.0000 0.96800  0.88900  0.05800  Biso   1.000  H
  H72      1.0000 0.03200  0.11100  0.94200  Biso   1.000  H
  O15      1.0000 0.87140  0.23290  0.04160  Biso   1.000  O
  O16      1.0000 0.12860  0.76710  0.95840  Biso   1.000  O
  H73      1.0000 0.92900  0.28600  0.02100  Biso   1.000  H
  H74      1.0000 0.07100  0.71400  0.97900  Biso   1.000  H
  H75      1.0000 0.79500  0.16200  0.01400  Biso   1.000  H
  H76      1.0000 0.20500  0.83800  0.98600  Biso   1.000  H
