data_image0
_cell_length_a       8.0801
_cell_length_b       8.6606
_cell_length_c       11.8803
_cell_angle_alpha    82.168
_cell_angle_beta     77.847
_cell_angle_gamma    75.855

_symmetry_space_group_name_H-M    "P 1"
_symmetry_int_tables_number       1

loop_
  _symmetry_equiv_pos_as_xyz
  'x, y, z'

loop_
  _atom_site_label
  _atom_site_occupancy
  _atom_site_fract_x
  _atom_site_fract_y
  _atom_site_fract_z
  _atom_site_thermal_displace_type
  _atom_site_B_iso_or_equiv
  _atom_site_type_symbol
  Mo1      1.0000 0.32702  0.26488  0.86423  Biso   1.000  Mo
  Mo2      1.0000 0.67298  0.73512  0.13577  Biso   1.000  Mo
  Cu1      1.0000 0.23650  0.90803  0.29807  Biso   1.000  Cu
  Cu2      1.0000 0.76350  0.09197  0.70193  Biso   1.000  Cu
  P1       1.0000 0.08214  0.68232  0.17130  Biso   1.000  P
  P2       1.0000 0.91786  0.31768  0.82870  Biso   1.000  P
  P3       1.0000 0.31367  0.90249  0.03304  Biso   1.000  P
  P4       1.0000 0.68633  0.09751  0.96696  Biso   1.000  P
  O1       1.0000 0.25200  0.99960  0.13950  Biso   1.000  O
  O2       1.0000 0.74800  0.00040  0.86050  Biso   1.000  O
  O3       1.0000 0.47280  0.21570  0.73960  Biso   1.000  O
  O4       1.0000 0.52720  0.78430  0.26040  Biso   1.000  O
  O5       1.0000 0.32170  0.01490  0.92340  Biso   1.000  O
  O6       1.0000 0.67830  0.98510  0.07660  Biso   1.000  O
  O7       1.0000 0.48760  0.78140  0.03800  Biso   1.000  O
  O8       1.0000 0.51240  0.21860  0.96200  Biso   1.000  O
  O9       1.0000 0.29530  0.46650  0.85610  Biso   1.000  O
  O10      1.0000 0.70470  0.53350  0.14390  Biso   1.000  O
  O11      1.0000 0.87900  0.74820  0.19400  Biso   1.000  O
  O12      1.0000 0.12100  0.25180  0.80600  Biso   1.000  O
  O13      1.0000 0.15480  0.28930  0.03390  Biso   1.000  O
  O14      1.0000 0.84520  0.71070  0.96610  Biso   1.000  O
  O15      1.0000 0.14880  0.73350  0.26840  Biso   1.000  O
  O16      1.0000 0.85120  0.26650  0.73160  Biso   1.000  O
  O17      1.0000 0.12870  0.50590  0.16440  Biso   1.000  O
  O18      1.0000 0.87130  0.49410  0.83560  Biso   1.000  O
  N1       1.0000 0.30410  0.09160  0.34940  Biso   1.000  N
  N2       1.0000 0.69590  0.90840  0.65060  Biso   1.000  N
  N3       1.0000 0.19140  0.85000  0.46840  Biso   1.000  N
  N4       1.0000 0.80860  0.15000  0.53160  Biso   1.000  N
  C1       1.0000 0.36520  0.20750  0.28100  Biso   1.000  C
  C2       1.0000 0.63480  0.79250  0.71900  Biso   1.000  C
  H1       1.0000 0.38230  0.20500  0.20130  Biso   1.000  H
  H2       1.0000 0.61770  0.79500  0.79870  Biso   1.000  H
  C3       1.0000 0.40450  0.33300  0.32500  Biso   1.000  C
  C4       1.0000 0.59550  0.66700  0.67500  Biso   1.000  C
  H3       1.0000 0.44700  0.41300  0.27560  Biso   1.000  H
  H4       1.0000 0.55300  0.58700  0.72440  Biso   1.000  H
  C5       1.0000 0.37920  0.33600  0.44260  Biso   1.000  C
  C6       1.0000 0.62080  0.66400  0.55740  Biso   1.000  C
  H5       1.0000 0.40330  0.41930  0.47360  Biso   1.000  H
  H6       1.0000 0.59670  0.58070  0.52640  Biso   1.000  H
  C7       1.0000 0.31730  0.21370  0.51590  Biso   1.000  C
  C8       1.0000 0.68270  0.78630  0.48410  Biso   1.000  C
  H7       1.0000 0.30010  0.21370  0.59580  Biso   1.000  H
  H8       1.0000 0.69990  0.78630  0.40420  Biso   1.000  H
  C9       1.0000 0.28210  0.09230  0.46580  Biso   1.000  C
  C10      1.0000 0.71790  0.90770  0.53420  Biso   1.000  C
  C11      1.0000 0.21960  0.95370  0.53320  Biso   1.000  C
  C12      1.0000 0.78040  0.04630  0.46680  Biso   1.000  C
  C13      1.0000 0.19350  0.92790  0.65320  Biso   1.000  C
  C14      1.0000 0.80650  0.07210  0.34680  Biso   1.000  C
  H9       1.0000 0.21250  0.00060  0.69730  Biso   1.000  H
  H10      1.0000 0.78750  0.99940  0.30270  Biso   1.000  H
  C15      1.0000 0.13830  0.79060  0.70550  Biso   1.000  C
  C16      1.0000 0.86170  0.20940  0.29450  Biso   1.000  C
  H11      1.0000 0.11990  0.77040  0.78550  Biso   1.000  H
  H12      1.0000 0.88010  0.22960  0.21450  Biso   1.000  H
  C17      1.0000 0.11090  0.68430  0.63820  Biso   1.000  C
  C18      1.0000 0.88910  0.31570  0.36180  Biso   1.000  C
  H13      1.0000 0.07620  0.59120  0.67210  Biso   1.000  H
  H14      1.0000 0.92380  0.40880  0.32790  Biso   1.000  H
  C19      1.0000 0.13610  0.71920  0.51930  Biso   1.000  C
  C20      1.0000 0.86390  0.28080  0.48070  Biso   1.000  C
  H15      1.0000 0.11420  0.65010  0.47370  Biso   1.000  H
  H16      1.0000 0.88580  0.34990  0.52630  Biso   1.000  H
  C21      1.0000 0.16000  0.78480  0.03280  Biso   1.000  C
  C22      1.0000 0.84000  0.21520  0.96720  Biso   1.000  C
  H17      1.0000 0.06050  0.85390  0.00470  Biso   1.000  H
  H18      1.0000 0.93950  0.14610  0.99530  Biso   1.000  H
  H19      1.0000 0.21250  0.70510  0.97820  Biso   1.000  H
  H20      1.0000 0.78750  0.29490  0.02180  Biso   1.000  H
  H21      1.0000 0.17200  0.19600  0.08500  Biso   1.000  H
  H22      1.0000 0.82800  0.80400  0.91500  Biso   1.000  H
  H23      1.0000 0.16100  0.35700  0.07300  Biso   1.000  H
  H24      1.0000 0.83900  0.64300  0.92700  Biso   1.000  H
