data_image0
_cell_length_a       8.5535
_cell_length_b       24.723
_cell_length_c       9.6296
_cell_angle_alpha    90
_cell_angle_beta     105.726
_cell_angle_gamma    90

_symmetry_space_group_name_H-M    "P 1"
_symmetry_int_tables_number       1

loop_
  _symmetry_equiv_pos_as_xyz
  'x, y, z'

loop_
  _atom_site_label
  _atom_site_occupancy
  _atom_site_fract_x
  _atom_site_fract_y
  _atom_site_fract_z
  _atom_site_thermal_displace_type
  _atom_site_B_iso_or_equiv
  _atom_site_type_symbol
  Mo1      1.0000 0.33323  0.66682  0.06021  Biso   1.000  Mo
  Mo2      1.0000 0.33323  0.83318  0.56021  Biso   1.000  Mo
  Mo3      1.0000 0.66677  0.33318  0.93979  Biso   1.000  Mo
  Mo4      1.0000 0.66677  0.16682  0.43979  Biso   1.000  Mo
  Mo5      1.0000 0.57743  0.83583  0.86911  Biso   1.000  Mo
  Mo6      1.0000 0.57743  0.66417  0.36911  Biso   1.000  Mo
  Mo7      1.0000 0.42257  0.16417  0.13089  Biso   1.000  Mo
  Mo8      1.0000 0.42257  0.33583  0.63089  Biso   1.000  Mo
  Cu1      1.0000 0.95368  0.63860  0.20983  Biso   1.000  Cu
  Cu2      1.0000 0.95368  0.86140  0.70983  Biso   1.000  Cu
  Cu3      1.0000 0.04632  0.36140  0.79017  Biso   1.000  Cu
  Cu4      1.0000 0.04632  0.13860  0.29017  Biso   1.000  Cu
  P1       1.0000 0.71320  0.73551  0.10620  Biso   1.000  P
  P2       1.0000 0.71320  0.76449  0.60620  Biso   1.000  P
  P3       1.0000 0.28680  0.26449  0.89380  Biso   1.000  P
  P4       1.0000 0.28680  0.23551  0.39380  Biso   1.000  P
  P5       1.0000 0.19780  0.73255  0.32760  Biso   1.000  P
  P6       1.0000 0.19780  0.76745  0.82760  Biso   1.000  P
  P7       1.0000 0.80220  0.26745  0.67240  Biso   1.000  P
  P8       1.0000 0.80220  0.23255  0.17240  Biso   1.000  P
  O1       1.0000 0.63840  0.76450  0.96040  Biso   1.000  O
  O2       1.0000 0.63840  0.73550  0.46040  Biso   1.000  O
  O3       1.0000 0.36160  0.23550  0.03960  Biso   1.000  O
  O4       1.0000 0.36160  0.26450  0.53960  Biso   1.000  O
  O5       1.0000 0.83440  0.69390  0.08410  Biso   1.000  O
  O6       1.0000 0.83440  0.80610  0.58410  Biso   1.000  O
  O7       1.0000 0.16560  0.30610  0.91590  Biso   1.000  O
  O8       1.0000 0.16560  0.19390  0.41590  Biso   1.000  O
  O9       1.0000 0.07930  0.68910  0.34720  Biso   1.000  O
  O10      1.0000 0.07930  0.81090  0.84720  Biso   1.000  O
  O11      1.0000 0.92070  0.31090  0.65280  Biso   1.000  O
  O12      1.0000 0.92070  0.18910  0.15280  Biso   1.000  O
  O13      1.0000 0.33900  0.70930  0.27530  Biso   1.000  O
  O14      1.0000 0.33900  0.79070  0.77530  Biso   1.000  O
  O15      1.0000 0.66100  0.29070  0.72470  Biso   1.000  O
  O16      1.0000 0.66100  0.20930  0.22470  Biso   1.000  O
  O17      1.0000 0.27210  0.76100  0.47540  Biso   1.000  O
  O18      1.0000 0.27210  0.73900  0.97540  Biso   1.000  O
  O19      1.0000 0.72790  0.23900  0.52460  Biso   1.000  O
  O20      1.0000 0.72790  0.26100  0.02460  Biso   1.000  O
  O21      1.0000 0.14410  0.64200  0.05130  Biso   1.000  O
  O22      1.0000 0.14410  0.85800  0.55130  Biso   1.000  O
  O23      1.0000 0.85590  0.35800  0.94870  Biso   1.000  O
  O24      1.0000 0.85590  0.14200  0.44870  Biso   1.000  O
  O25      1.0000 0.37860  0.63810  0.91600  Biso   1.000  O
  O26      1.0000 0.37860  0.86190  0.41600  Biso   1.000  O
  O27      1.0000 0.62140  0.36190  0.08400  Biso   1.000  O
  O28      1.0000 0.62140  0.13810  0.58400  Biso   1.000  O
  O29      1.0000 0.45630  0.62100  0.21130  Biso   1.000  O
  O30      1.0000 0.45630  0.87900  0.71130  Biso   1.000  O
  O31      1.0000 0.54370  0.37900  0.78870  Biso   1.000  O
  O32      1.0000 0.54370  0.12100  0.28870  Biso   1.000  O
  O33      1.0000 0.57270  0.70990  0.15680  Biso   1.000  O
  O34      1.0000 0.57270  0.79010  0.65680  Biso   1.000  O
  O35      1.0000 0.42730  0.29010  0.84320  Biso   1.000  O
  O36      1.0000 0.42730  0.20990  0.34320  Biso   1.000  O
  O37      1.0000 0.53140  0.86690  0.01030  Biso   1.000  O
  O38      1.0000 0.53140  0.63310  0.51030  Biso   1.000  O
  O39      1.0000 0.46860  0.13310  0.98970  Biso   1.000  O
  O40      1.0000 0.46860  0.36690  0.48970  Biso   1.000  O
  O41      1.0000 0.76810  0.64000  0.37650  Biso   1.000  O
  O42      1.0000 0.76810  0.86000  0.87650  Biso   1.000  O
  O43      1.0000 0.23190  0.36000  0.62350  Biso   1.000  O
  O44      1.0000 0.23190  0.14000  0.12350  Biso   1.000  O
  N1       1.0000 0.06540  0.57340  0.31770  Biso   1.000  N
  N2       1.0000 0.06540  0.92660  0.81770  Biso   1.000  N
  N3       1.0000 0.93460  0.42660  0.68230  Biso   1.000  N
  N4       1.0000 0.93460  0.07340  0.18230  Biso   1.000  N
  N5       1.0000 0.82920  0.58010  0.08210  Biso   1.000  N
  N6       1.0000 0.82920  0.91990  0.58210  Biso   1.000  N
  N7       1.0000 0.17080  0.41990  0.91790  Biso   1.000  N
  N8       1.0000 0.17080  0.08010  0.41790  Biso   1.000  N
  C1       1.0000 0.71240  0.58800  0.96040  Biso   1.000  C
  C2       1.0000 0.71240  0.91200  0.46040  Biso   1.000  C
  C3       1.0000 0.28760  0.41200  0.03960  Biso   1.000  C
  C4       1.0000 0.28760  0.08800  0.53960  Biso   1.000  C
  H1       1.0000 0.68320  0.62330  0.93090  Biso   1.000  H
  H2       1.0000 0.68320  0.87670  0.43090  Biso   1.000  H
  H3       1.0000 0.31680  0.37670  0.06910  Biso   1.000  H
  H4       1.0000 0.31680  0.12330  0.56910  Biso   1.000  H
  C5       1.0000 0.63420  0.54630  0.87730  Biso   1.000  C
  C6       1.0000 0.63420  0.95370  0.37730  Biso   1.000  C
  C7       1.0000 0.36580  0.45370  0.12270  Biso   1.000  C
  C8       1.0000 0.36580  0.04630  0.62270  Biso   1.000  C
  H5       1.0000 0.55540  0.55290  0.79120  Biso   1.000  H
  H6       1.0000 0.55540  0.94710  0.29120  Biso   1.000  H
  H7       1.0000 0.44460  0.44710  0.20880  Biso   1.000  H
  H8       1.0000 0.44460  0.05290  0.70880  Biso   1.000  H
  C9       1.0000 0.67480  0.49390  0.92420  Biso   1.000  C
  C10      1.0000 0.67480  0.00610  0.42420  Biso   1.000  C
  C11      1.0000 0.32520  0.50610  0.07580  Biso   1.000  C
  C12      1.0000 0.32520  0.99390  0.57580  Biso   1.000  C
  H9       1.0000 0.61990  0.46470  0.87180  Biso   1.000  H
  H10      1.0000 0.61990  0.03530  0.37180  Biso   1.000  H
  H11      1.0000 0.38010  0.53530  0.12820  Biso   1.000  H
  H12      1.0000 0.38010  0.96470  0.62820  Biso   1.000  H
  C13      1.0000 0.79620  0.48510  0.04800  Biso   1.000  C
  C14      1.0000 0.79620  0.01490  0.54800  Biso   1.000  C
  C15      1.0000 0.20380  0.51490  0.95200  Biso   1.000  C
  C16      1.0000 0.20380  0.98510  0.45200  Biso   1.000  C
  H13      1.0000 0.82760  0.45010  0.07810  Biso   1.000  H
  H14      1.0000 0.82760  0.04990  0.57810  Biso   1.000  H
  H15      1.0000 0.17240  0.54990  0.92190  Biso   1.000  H
  H16      1.0000 0.17240  0.95010  0.42190  Biso   1.000  H
  C17      1.0000 0.87120  0.52850  0.12710  Biso   1.000  C
  C18      1.0000 0.87120  0.97150  0.62710  Biso   1.000  C
  C19      1.0000 0.12880  0.47150  0.87290  Biso   1.000  C
  C20      1.0000 0.12880  0.02850  0.37290  Biso   1.000  C
  C21      1.0000 0.00630  0.52540  0.25990  Biso   1.000  C
  C22      1.0000 0.00630  0.97460  0.75990  Biso   1.000  C
  C23      1.0000 0.99370  0.47460  0.74010  Biso   1.000  C
  C24      1.0000 0.99370  0.02540  0.24010  Biso   1.000  C
  C25      1.0000 0.06570  0.47640  0.32190  Biso   1.000  C
  C26      1.0000 0.06570  0.02360  0.82190  Biso   1.000  C
  C27      1.0000 0.93430  0.52360  0.67810  Biso   1.000  C
  C28      1.0000 0.93430  0.97640  0.17810  Biso   1.000  C
  H17      1.0000 0.02170  0.44370  0.28230  Biso   1.000  H
  H18      1.0000 0.02170  0.05630  0.78230  Biso   1.000  H
  H19      1.0000 0.97830  0.55630  0.71770  Biso   1.000  H
  H20      1.0000 0.97830  0.94370  0.21770  Biso   1.000  H
  C29      1.0000 0.19720  0.47850  0.44900  Biso   1.000  C
  C30      1.0000 0.19720  0.02150  0.94900  Biso   1.000  C
  C31      1.0000 0.80280  0.52150  0.55100  Biso   1.000  C
  C32      1.0000 0.80280  0.97850  0.05100  Biso   1.000  C
  H21      1.0000 0.24180  0.44670  0.49470  Biso   1.000  H
  H22      1.0000 0.24180  0.05330  0.99470  Biso   1.000  H
  H23      1.0000 0.75820  0.55330  0.50530  Biso   1.000  H
  H24      1.0000 0.75820  0.94670  0.00530  Biso   1.000  H
  C33      1.0000 0.25770  0.52780  0.50370  Biso   1.000  C
  C34      1.0000 0.25770  0.97220  0.00370  Biso   1.000  C
  C35      1.0000 0.74230  0.47220  0.49630  Biso   1.000  C
  C36      1.0000 0.74230  0.02780  0.99630  Biso   1.000  C
  H25      1.0000 0.34430  0.52980  0.58640  Biso   1.000  H
  H26      1.0000 0.34430  0.97020  0.08640  Biso   1.000  H
  H27      1.0000 0.65570  0.47020  0.41360  Biso   1.000  H
  H28      1.0000 0.65570  0.02980  0.91360  Biso   1.000  H
  C37      1.0000 0.18870  0.57400  0.43490  Biso   1.000  C
  C38      1.0000 0.18870  0.92600  0.93490  Biso   1.000  C
  C39      1.0000 0.81130  0.42600  0.56510  Biso   1.000  C
  C40      1.0000 0.81130  0.07400  0.06510  Biso   1.000  C
  H29      1.0000 0.23050  0.60730  0.47260  Biso   1.000  H
  H30      1.0000 0.23050  0.89270  0.97260  Biso   1.000  H
  H31      1.0000 0.76950  0.39270  0.52740  Biso   1.000  H
  H32      1.0000 0.76950  0.10730  0.02740  Biso   1.000  H
  C41      1.0000 0.09940  0.78200  0.19340  Biso   1.000  C
  C42      1.0000 0.09940  0.71800  0.69340  Biso   1.000  C
  C43      1.0000 0.90060  0.21800  0.80660  Biso   1.000  C
  C44      1.0000 0.90060  0.28200  0.30660  Biso   1.000  C
  H33      1.0000 0.18190  0.80740  0.18270  Biso   1.000  H
  H34      1.0000 0.18190  0.69260  0.68270  Biso   1.000  H
  H35      1.0000 0.81810  0.19260  0.81730  Biso   1.000  H
  H36      1.0000 0.81810  0.30740  0.31730  Biso   1.000  H
  H37      1.0000 0.06060  0.76330  0.10210  Biso   1.000  H
  H38      1.0000 0.06060  0.73670  0.60210  Biso   1.000  H
  H39      1.0000 0.93940  0.23670  0.89790  Biso   1.000  H
  H40      1.0000 0.93940  0.26330  0.39790  Biso   1.000  H
  C45      1.0000 0.95520  0.81550  0.21810  Biso   1.000  C
  C46      1.0000 0.95520  0.68450  0.71810  Biso   1.000  C
  C47      1.0000 0.04480  0.18450  0.78190  Biso   1.000  C
  C48      1.0000 0.04480  0.31550  0.28190  Biso   1.000  C
  H41      1.0000 0.99690  0.83850  0.30160  Biso   1.000  H
  H42      1.0000 0.99690  0.66150  0.80160  Biso   1.000  H
  H43      1.0000 0.00310  0.16150  0.69840  Biso   1.000  H
  H44      1.0000 0.00310  0.33850  0.19840  Biso   1.000  H
  H45      1.0000 0.91560  0.83910  0.13550  Biso   1.000  H
  H46      1.0000 0.91560  0.66090  0.63550  Biso   1.000  H
  H47      1.0000 0.08440  0.16090  0.86450  Biso   1.000  H
  H48      1.0000 0.08440  0.33910  0.36450  Biso   1.000  H
  C49      1.0000 0.81030  0.78380  0.24120  Biso   1.000  C
  C50      1.0000 0.81030  0.71620  0.74120  Biso   1.000  C
  C51      1.0000 0.18970  0.21620  0.75880  Biso   1.000  C
  C52      1.0000 0.18970  0.28380  0.25880  Biso   1.000  C
  H49      1.0000 0.72880  0.80970  0.25090  Biso   1.000  H
  H50      1.0000 0.72880  0.69030  0.75090  Biso   1.000  H
  H51      1.0000 0.27120  0.19030  0.74910  Biso   1.000  H
  H52      1.0000 0.27120  0.30970  0.24910  Biso   1.000  H
  H53      1.0000 0.84670  0.76480  0.33240  Biso   1.000  H
  H54      1.0000 0.84670  0.73520  0.83240  Biso   1.000  H
  H55      1.0000 0.15330  0.23520  0.66760  Biso   1.000  H
  H56      1.0000 0.15330  0.26480  0.16760  Biso   1.000  H
