data_image0
_cell_length_a       7.828
_cell_length_b       19.877
_cell_length_c       25.46
_cell_angle_alpha    90
_cell_angle_beta     90
_cell_angle_gamma    90

_symmetry_space_group_name_H-M    "P 1"
_symmetry_int_tables_number       1

loop_
  _symmetry_equiv_pos_as_xyz
  'x, y, z'

loop_
  _atom_site_label
  _atom_site_occupancy
  _atom_site_fract_x
  _atom_site_fract_y
  _atom_site_fract_z
  _atom_site_thermal_displace_type
  _atom_site_B_iso_or_equiv
  _atom_site_type_symbol
  Mo1      1.0000 0.36462  0.18853  0.40952  Biso   1.000  Mo
  Mo2      1.0000 0.86462  0.18853  0.09048  Biso   1.000  Mo
  Mo3      1.0000 0.36462  0.31147  0.90952  Biso   1.000  Mo
  Mo4      1.0000 0.13538  0.68853  0.40952  Biso   1.000  Mo
  Mo5      1.0000 0.63538  0.81147  0.59048  Biso   1.000  Mo
  Mo6      1.0000 0.13538  0.81147  0.90952  Biso   1.000  Mo
  Mo7      1.0000 0.63538  0.68853  0.09048  Biso   1.000  Mo
  Mo8      1.0000 0.86462  0.31147  0.59048  Biso   1.000  Mo
  Mo9      1.0000 0.71920  0.97335  0.58036  Biso   1.000  Mo
  Mo10     1.0000 0.21920  0.97335  0.91964  Biso   1.000  Mo
  Mo11     1.0000 0.71920  0.52665  0.08036  Biso   1.000  Mo
  Mo12     1.0000 0.78080  0.47335  0.58036  Biso   1.000  Mo
  Mo13     1.0000 0.28080  0.02665  0.41964  Biso   1.000  Mo
  Mo14     1.0000 0.78080  0.02665  0.08036  Biso   1.000  Mo
  Mo15     1.0000 0.28080  0.47335  0.91964  Biso   1.000  Mo
  Mo16     1.0000 0.21920  0.52665  0.41964  Biso   1.000  Mo
  Cu1      1.0000 0.83181  0.15883  0.39224  Biso   1.000  Cu
  Cu2      1.0000 0.33181  0.15883  0.10776  Biso   1.000  Cu
  Cu3      1.0000 0.83181  0.34117  0.89224  Biso   1.000  Cu
  Cu4      1.0000 0.66819  0.65883  0.39224  Biso   1.000  Cu
  Cu5      1.0000 0.16819  0.84117  0.60776  Biso   1.000  Cu
  Cu6      1.0000 0.66819  0.84117  0.89224  Biso   1.000  Cu
  Cu7      1.0000 0.16819  0.65883  0.10776  Biso   1.000  Cu
  Cu8      1.0000 0.33181  0.34117  0.60776  Biso   1.000  Cu
  P1       1.0000 0.63820  0.09325  0.48591  Biso   1.000  P
  P2       1.0000 0.13820  0.09325  0.01409  Biso   1.000  P
  P3       1.0000 0.63820  0.40675  0.98591  Biso   1.000  P
  P4       1.0000 0.86180  0.59325  0.48591  Biso   1.000  P
  P5       1.0000 0.36180  0.90675  0.51409  Biso   1.000  P
  P6       1.0000 0.86180  0.90675  0.98591  Biso   1.000  P
  P7       1.0000 0.36180  0.59325  0.01409  Biso   1.000  P
  P8       1.0000 0.13820  0.40675  0.51409  Biso   1.000  P
  P9       1.0000 0.68660  0.24169  0.48328  Biso   1.000  P
  P10      1.0000 0.18660  0.24169  0.01672  Biso   1.000  P
  P11      1.0000 0.68660  0.25831  0.98328  Biso   1.000  P
  P12      1.0000 0.81340  0.74169  0.48328  Biso   1.000  P
  P13      1.0000 0.31340  0.75831  0.51672  Biso   1.000  P
  P14      1.0000 0.81340  0.75831  0.98328  Biso   1.000  P
  P15      1.0000 0.31340  0.74169  0.01672  Biso   1.000  P
  P16      1.0000 0.18660  0.25831  0.51672  Biso   1.000  P
  O1       1.0000 0.82720  0.23060  0.44340  Biso   1.000  O
  O2       1.0000 0.32720  0.23060  0.05660  Biso   1.000  O
  O3       1.0000 0.82720  0.26940  0.94340  Biso   1.000  O
  O4       1.0000 0.67280  0.73060  0.44340  Biso   1.000  O
  O5       1.0000 0.17280  0.76940  0.55660  Biso   1.000  O
  O6       1.0000 0.67280  0.76940  0.94340  Biso   1.000  O
  O7       1.0000 0.17280  0.73060  0.05660  Biso   1.000  O
  O8       1.0000 0.32720  0.26940  0.55660  Biso   1.000  O
  O9       1.0000 0.78240  0.08950  0.44560  Biso   1.000  O
  O10      1.0000 0.28240  0.08950  0.05440  Biso   1.000  O
  O11      1.0000 0.78240  0.41050  0.94560  Biso   1.000  O
  O12      1.0000 0.71760  0.58950  0.44560  Biso   1.000  O
  O13      1.0000 0.21760  0.91050  0.55440  Biso   1.000  O
  O14      1.0000 0.71760  0.91050  0.94560  Biso   1.000  O
  O15      1.0000 0.21760  0.58950  0.05440  Biso   1.000  O
  O16      1.0000 0.28240  0.41050  0.55440  Biso   1.000  O
  O17      1.0000 0.64150  0.03320  0.52320  Biso   1.000  O
  O18      1.0000 0.14150  0.03320  0.97680  Biso   1.000  O
  O19      1.0000 0.64150  0.46680  0.02320  Biso   1.000  O
  O20      1.0000 0.85850  0.53320  0.52320  Biso   1.000  O
  O21      1.0000 0.35850  0.96680  0.47680  Biso   1.000  O
  O22      1.0000 0.85850  0.96680  0.02320  Biso   1.000  O
  O23      1.0000 0.35850  0.53320  0.97680  Biso   1.000  O
  O24      1.0000 0.14150  0.46680  0.47680  Biso   1.000  O
  O25      1.0000 0.88900  0.01860  0.60130  Biso   1.000  O
  O26      1.0000 0.38900  0.01860  0.89870  Biso   1.000  O
  O27      1.0000 0.88900  0.48140  0.10130  Biso   1.000  O
  O28      1.0000 0.61100  0.51860  0.60130  Biso   1.000  O
  O29      1.0000 0.11100  0.98140  0.39870  Biso   1.000  O
  O30      1.0000 0.61100  0.98140  0.10130  Biso   1.000  O
  O31      1.0000 0.11100  0.51860  0.89870  Biso   1.000  O
  O32      1.0000 0.38900  0.48140  0.39870  Biso   1.000  O
  O33      1.0000 0.56480  0.99360  0.62400  Biso   1.000  O
  O34      1.0000 0.06480  0.99360  0.87600  Biso   1.000  O
  O35      1.0000 0.56480  0.50640  0.12400  Biso   1.000  O
  O36      1.0000 0.93520  0.49360  0.62400  Biso   1.000  O
  O37      1.0000 0.43520  0.00640  0.37600  Biso   1.000  O
  O38      1.0000 0.93520  0.00640  0.12400  Biso   1.000  O
  O39      1.0000 0.43520  0.49360  0.87600  Biso   1.000  O
  O40      1.0000 0.06480  0.50640  0.37600  Biso   1.000  O
  O41      1.0000 0.88880  0.93520  0.51170  Biso   1.000  O
  O42      1.0000 0.38880  0.93520  0.98830  Biso   1.000  O
  O43      1.0000 0.88880  0.56480  0.01170  Biso   1.000  O
  O44      1.0000 0.61120  0.43520  0.51170  Biso   1.000  O
  O45      1.0000 0.11120  0.06480  0.48830  Biso   1.000  O
  O46      1.0000 0.61120  0.06480  0.01170  Biso   1.000  O
  O47      1.0000 0.11120  0.43520  0.98830  Biso   1.000  O
  O48      1.0000 0.38880  0.56480  0.48830  Biso   1.000  O
  O49      1.0000 0.45810  0.09970  0.46100  Biso   1.000  O
  O50      1.0000 0.95810  0.09970  0.03900  Biso   1.000  O
  O51      1.0000 0.45810  0.40030  0.96100  Biso   1.000  O
  O52      1.0000 0.04190  0.59970  0.46100  Biso   1.000  O
  O53      1.0000 0.54190  0.90030  0.53900  Biso   1.000  O
  O54      1.0000 0.04190  0.90030  0.96100  Biso   1.000  O
  O55      1.0000 0.54190  0.59970  0.03900  Biso   1.000  O
  O56      1.0000 0.95810  0.40030  0.53900  Biso   1.000  O
  O57      1.0000 0.21830  0.11490  0.39390  Biso   1.000  O
  O58      1.0000 0.71830  0.11490  0.10610  Biso   1.000  O
  O59      1.0000 0.21830  0.38510  0.89390  Biso   1.000  O
  O60      1.0000 0.28170  0.61490  0.39390  Biso   1.000  O
  O61      1.0000 0.78170  0.88510  0.60610  Biso   1.000  O
  O62      1.0000 0.28170  0.88510  0.89390  Biso   1.000  O
  O63      1.0000 0.78170  0.61490  0.10610  Biso   1.000  O
  O64      1.0000 0.71830  0.38510  0.60610  Biso   1.000  O
  O65      1.0000 0.53570  0.16850  0.37010  Biso   1.000  O
  O66      1.0000 0.03570  0.16850  0.12990  Biso   1.000  O
  O67      1.0000 0.53570  0.33150  0.87010  Biso   1.000  O
  O68      1.0000 0.96430  0.66850  0.37010  Biso   1.000  O
  O69      1.0000 0.46430  0.83150  0.62990  Biso   1.000  O
  O70      1.0000 0.96430  0.83150  0.87010  Biso   1.000  O
  O71      1.0000 0.46430  0.66850  0.12990  Biso   1.000  O
  O72      1.0000 0.03570  0.33150  0.62990  Biso   1.000  O
  O73      1.0000 0.26540  0.25050  0.37710  Biso   1.000  O
  O74      1.0000 0.76540  0.25050  0.12290  Biso   1.000  O
  O75      1.0000 0.26540  0.24950  0.87710  Biso   1.000  O
  O76      1.0000 0.23460  0.75050  0.37710  Biso   1.000  O
  O77      1.0000 0.73460  0.74950  0.62290  Biso   1.000  O
  O78      1.0000 0.23460  0.74950  0.87710  Biso   1.000  O
  O79      1.0000 0.73460  0.75050  0.12290  Biso   1.000  O
  O80      1.0000 0.76540  0.24950  0.62290  Biso   1.000  O
  O81      1.0000 0.51160  0.24960  0.45490  Biso   1.000  O
  O82      1.0000 0.01160  0.24960  0.04510  Biso   1.000  O
  O83      1.0000 0.51160  0.25040  0.95490  Biso   1.000  O
  O84      1.0000 0.98840  0.74960  0.45490  Biso   1.000  O
  O85      1.0000 0.48840  0.75040  0.54510  Biso   1.000  O
  O86      1.0000 0.98840  0.75040  0.95490  Biso   1.000  O
  O87      1.0000 0.48840  0.74960  0.04510  Biso   1.000  O
  O88      1.0000 0.01160  0.25040  0.54510  Biso   1.000  O
  O89      1.0000 0.71520  0.30290  0.51900  Biso   1.000  O
  O90      1.0000 0.21520  0.30290  0.98100  Biso   1.000  O
  O91      1.0000 0.71520  0.19710  0.01900  Biso   1.000  O
  O92      1.0000 0.78480  0.80290  0.51900  Biso   1.000  O
  O93      1.0000 0.28480  0.69710  0.48100  Biso   1.000  O
  O94      1.0000 0.78480  0.69710  0.01900  Biso   1.000  O
  O95      1.0000 0.28480  0.80290  0.98100  Biso   1.000  O
  O96      1.0000 0.21520  0.19710  0.48100  Biso   1.000  O
  O97      1.0000 0.90670  0.86390  0.37460  Biso   1.000  O
  O98      1.0000 0.40670  0.86390  0.12540  Biso   1.000  O
  O99      1.0000 0.90670  0.63610  0.87460  Biso   1.000  O
  O100     1.0000 0.59330  0.36390  0.37460  Biso   1.000  O
  O101     1.0000 0.09330  0.13610  0.62540  Biso   1.000  O
  O102     1.0000 0.59330  0.13610  0.87460  Biso   1.000  O
  O103     1.0000 0.09330  0.36390  0.12540  Biso   1.000  O
  O104     1.0000 0.40670  0.63610  0.62540  Biso   1.000  O
  N1       1.0000 0.85130  0.09170  0.33440  Biso   1.000  N
  N2       1.0000 0.35130  0.09170  0.16560  Biso   1.000  N
  N3       1.0000 0.85130  0.40830  0.83440  Biso   1.000  N
  N4       1.0000 0.64870  0.59170  0.33440  Biso   1.000  N
  N5       1.0000 0.14870  0.90830  0.66560  Biso   1.000  N
  N6       1.0000 0.64870  0.90830  0.83440  Biso   1.000  N
  N7       1.0000 0.14870  0.59170  0.16560  Biso   1.000  N
  N8       1.0000 0.35130  0.40830  0.66560  Biso   1.000  N
  N9       1.0000 0.90240  0.22260  0.33580  Biso   1.000  N
  N10      1.0000 0.40240  0.22260  0.16420  Biso   1.000  N
  N11      1.0000 0.90240  0.27740  0.83580  Biso   1.000  N
  N12      1.0000 0.59760  0.72260  0.33580  Biso   1.000  N
  N13      1.0000 0.09760  0.77740  0.66420  Biso   1.000  N
  N14      1.0000 0.59760  0.77740  0.83580  Biso   1.000  N
  N15      1.0000 0.09760  0.72260  0.16420  Biso   1.000  N
  N16      1.0000 0.40240  0.27740  0.66420  Biso   1.000  N
  C1       1.0000 0.81620  0.02630  0.33790  Biso   1.000  C
  C2       1.0000 0.31620  0.02630  0.16210  Biso   1.000  C
  C3       1.0000 0.81620  0.47370  0.83790  Biso   1.000  C
  C4       1.0000 0.68380  0.52630  0.33790  Biso   1.000  C
  C5       1.0000 0.18380  0.97370  0.66210  Biso   1.000  C
  C6       1.0000 0.68380  0.97370  0.83790  Biso   1.000  C
  C7       1.0000 0.18380  0.52630  0.16210  Biso   1.000  C
  C8       1.0000 0.31620  0.47370  0.66210  Biso   1.000  C
  H1       1.0000 0.78880  0.00810  0.37050  Biso   1.000  H
  H2       1.0000 0.28880  0.00810  0.12950  Biso   1.000  H
  H3       1.0000 0.78880  0.49190  0.87050  Biso   1.000  H
  H4       1.0000 0.71120  0.50810  0.37050  Biso   1.000  H
  H5       1.0000 0.21120  0.99190  0.62950  Biso   1.000  H
  H6       1.0000 0.71120  0.99190  0.87050  Biso   1.000  H
  H7       1.0000 0.21120  0.50810  0.12950  Biso   1.000  H
  H8       1.0000 0.28880  0.49190  0.62950  Biso   1.000  H
  C9       1.0000 0.81940  0.98460  0.29420  Biso   1.000  C
  C10      1.0000 0.31940  0.98460  0.20580  Biso   1.000  C
  C11      1.0000 0.81940  0.51540  0.79420  Biso   1.000  C
  C12      1.0000 0.68060  0.48460  0.29420  Biso   1.000  C
  C13      1.0000 0.18060  0.01540  0.70580  Biso   1.000  C
  C14      1.0000 0.68060  0.01540  0.79420  Biso   1.000  C
  C15      1.0000 0.18060  0.48460  0.20580  Biso   1.000  C
  C16      1.0000 0.31940  0.51540  0.70580  Biso   1.000  C
  H9       1.0000 0.79440  0.93910  0.29760  Biso   1.000  H
  H10      1.0000 0.29440  0.93910  0.20240  Biso   1.000  H
  H11      1.0000 0.79440  0.56090  0.79760  Biso   1.000  H
  H12      1.0000 0.70560  0.43910  0.29760  Biso   1.000  H
  H13      1.0000 0.20560  0.06090  0.70240  Biso   1.000  H
  H14      1.0000 0.70560  0.06090  0.79760  Biso   1.000  H
  H15      1.0000 0.20560  0.43910  0.20240  Biso   1.000  H
  H16      1.0000 0.29440  0.56090  0.70240  Biso   1.000  H
  C17      1.0000 0.86020  0.01140  0.24560  Biso   1.000  C
  C18      1.0000 0.36020  0.01140  0.25440  Biso   1.000  C
  C19      1.0000 0.86020  0.48860  0.74560  Biso   1.000  C
  C20      1.0000 0.63980  0.51140  0.24560  Biso   1.000  C
  C21      1.0000 0.13980  0.98860  0.75440  Biso   1.000  C
  C22      1.0000 0.63980  0.98860  0.74560  Biso   1.000  C
  C23      1.0000 0.13980  0.51140  0.25440  Biso   1.000  C
  C24      1.0000 0.36020  0.48860  0.75440  Biso   1.000  C
  H17      1.0000 0.86040  0.98450  0.21570  Biso   1.000  H
  H18      1.0000 0.36040  0.98450  0.28430  Biso   1.000  H
  H19      1.0000 0.86040  0.51550  0.71570  Biso   1.000  H
  H20      1.0000 0.63960  0.48450  0.21570  Biso   1.000  H
  H21      1.0000 0.13960  0.01550  0.78430  Biso   1.000  H
  H22      1.0000 0.63960  0.01550  0.71570  Biso   1.000  H
  H23      1.0000 0.13960  0.48450  0.28430  Biso   1.000  H
  H24      1.0000 0.36040  0.51550  0.78430  Biso   1.000  H
  C25      1.0000 0.90160  0.08080  0.24240  Biso   1.000  C
  C26      1.0000 0.40160  0.08080  0.25760  Biso   1.000  C
  C27      1.0000 0.90160  0.41920  0.74240  Biso   1.000  C
  C28      1.0000 0.59840  0.58080  0.24240  Biso   1.000  C
  C29      1.0000 0.09840  0.91920  0.75760  Biso   1.000  C
  C30      1.0000 0.59840  0.91920  0.74240  Biso   1.000  C
  C31      1.0000 0.09840  0.58080  0.25760  Biso   1.000  C
  C32      1.0000 0.40160  0.41920  0.75760  Biso   1.000  C
  H25      1.0000 0.93190  0.10000  0.21040  Biso   1.000  H
  H26      1.0000 0.43190  0.10000  0.28960  Biso   1.000  H
  H27      1.0000 0.93190  0.40000  0.71040  Biso   1.000  H
  H28      1.0000 0.56810  0.60000  0.21040  Biso   1.000  H
  H29      1.0000 0.06810  0.90000  0.78960  Biso   1.000  H
  H30      1.0000 0.56810  0.90000  0.71040  Biso   1.000  H
  H31      1.0000 0.06810  0.60000  0.28960  Biso   1.000  H
  H32      1.0000 0.43190  0.40000  0.78960  Biso   1.000  H
  C33      1.0000 0.89610  0.11920  0.28740  Biso   1.000  C
  C34      1.0000 0.39610  0.11920  0.21260  Biso   1.000  C
  C35      1.0000 0.89610  0.38080  0.78740  Biso   1.000  C
  C36      1.0000 0.60390  0.61920  0.28740  Biso   1.000  C
  C37      1.0000 0.10390  0.88080  0.71260  Biso   1.000  C
  C38      1.0000 0.60390  0.88080  0.78740  Biso   1.000  C
  C39      1.0000 0.10390  0.61920  0.21260  Biso   1.000  C
  C40      1.0000 0.39610  0.38080  0.71260  Biso   1.000  C
  C41      1.0000 0.92920  0.19270  0.28840  Biso   1.000  C
  C42      1.0000 0.42920  0.19270  0.21160  Biso   1.000  C
  C43      1.0000 0.92920  0.30730  0.78840  Biso   1.000  C
  C44      1.0000 0.57080  0.69270  0.28840  Biso   1.000  C
  C45      1.0000 0.07080  0.80730  0.71160  Biso   1.000  C
  C46      1.0000 0.57080  0.80730  0.78840  Biso   1.000  C
  C47      1.0000 0.07080  0.69270  0.21160  Biso   1.000  C
  C48      1.0000 0.42920  0.30730  0.71160  Biso   1.000  C
  C49      1.0000 0.98360  0.22970  0.24490  Biso   1.000  C
  C50      1.0000 0.48360  0.22970  0.25510  Biso   1.000  C
  C51      1.0000 0.98360  0.27030  0.74490  Biso   1.000  C
  C52      1.0000 0.51640  0.72970  0.24490  Biso   1.000  C
  C53      1.0000 0.01640  0.77030  0.75510  Biso   1.000  C
  C54      1.0000 0.51640  0.77030  0.74490  Biso   1.000  C
  C55      1.0000 0.01640  0.72970  0.25510  Biso   1.000  C
  C56      1.0000 0.48360  0.27030  0.75510  Biso   1.000  C
  H33      1.0000 0.00460  0.20870  0.21290  Biso   1.000  H
  H34      1.0000 0.50460  0.20870  0.28710  Biso   1.000  H
  H35      1.0000 0.00460  0.29130  0.71290  Biso   1.000  H
  H36      1.0000 0.49540  0.70870  0.21290  Biso   1.000  H
  H37      1.0000 0.99540  0.79130  0.78710  Biso   1.000  H
  H38      1.0000 0.49540  0.79130  0.71290  Biso   1.000  H
  H39      1.0000 0.99540  0.70870  0.28710  Biso   1.000  H
  H40      1.0000 0.50460  0.29130  0.78710  Biso   1.000  H
  C57      1.0000 0.00530  0.29810  0.25060  Biso   1.000  C
  C58      1.0000 0.50530  0.29810  0.24940  Biso   1.000  C
  C59      1.0000 0.00530  0.20190  0.75060  Biso   1.000  C
  C60      1.0000 0.49470  0.79810  0.25060  Biso   1.000  C
  C61      1.0000 0.99470  0.70190  0.74940  Biso   1.000  C
  C62      1.0000 0.49470  0.70190  0.75060  Biso   1.000  C
  C63      1.0000 0.99470  0.79810  0.24940  Biso   1.000  C
  C64      1.0000 0.50530  0.20190  0.74940  Biso   1.000  C
  H41      1.0000 0.04170  0.32400  0.22230  Biso   1.000  H
  H42      1.0000 0.54170  0.32400  0.27770  Biso   1.000  H
  H43      1.0000 0.04170  0.17600  0.72230  Biso   1.000  H
  H44      1.0000 0.45830  0.82400  0.22230  Biso   1.000  H
  H45      1.0000 0.95830  0.67600  0.77770  Biso   1.000  H
  H46      1.0000 0.45830  0.67600  0.72230  Biso   1.000  H
  H47      1.0000 0.95830  0.82400  0.27770  Biso   1.000  H
  H48      1.0000 0.54170  0.17600  0.77770  Biso   1.000  H
  C65      1.0000 0.97300  0.32750  0.29790  Biso   1.000  C
  C66      1.0000 0.47300  0.32750  0.20210  Biso   1.000  C
  C67      1.0000 0.97300  0.17250  0.79790  Biso   1.000  C
  C68      1.0000 0.52700  0.82750  0.29790  Biso   1.000  C
  C69      1.0000 0.02700  0.67250  0.70210  Biso   1.000  C
  C70      1.0000 0.52700  0.67250  0.79790  Biso   1.000  C
  C71      1.0000 0.02700  0.82750  0.20210  Biso   1.000  C
  C72      1.0000 0.47300  0.17250  0.70210  Biso   1.000  C
  H49      1.0000 0.98510  0.37370  0.30210  Biso   1.000  H
  H50      1.0000 0.48510  0.37370  0.19790  Biso   1.000  H
  H51      1.0000 0.98510  0.12630  0.80210  Biso   1.000  H
  H52      1.0000 0.51490  0.87370  0.30210  Biso   1.000  H
  H53      1.0000 0.01490  0.62630  0.69790  Biso   1.000  H
  H54      1.0000 0.51490  0.62630  0.80210  Biso   1.000  H
  H55      1.0000 0.01490  0.87370  0.19790  Biso   1.000  H
  H56      1.0000 0.48510  0.12630  0.69790  Biso   1.000  H
  C73      1.0000 0.92180  0.28730  0.33990  Biso   1.000  C
  C74      1.0000 0.42180  0.28730  0.16010  Biso   1.000  C
  C75      1.0000 0.92180  0.21270  0.83990  Biso   1.000  C
  C76      1.0000 0.57820  0.78730  0.33990  Biso   1.000  C
  C77      1.0000 0.07820  0.71270  0.66010  Biso   1.000  C
  C78      1.0000 0.57820  0.71270  0.83990  Biso   1.000  C
  C79      1.0000 0.07820  0.78730  0.16010  Biso   1.000  C
  C80      1.0000 0.42180  0.21270  0.66010  Biso   1.000  C
  H57      1.0000 0.90060  0.30770  0.37210  Biso   1.000  H
  H58      1.0000 0.40060  0.30770  0.12790  Biso   1.000  H
  H59      1.0000 0.90060  0.19230  0.87210  Biso   1.000  H
  H60      1.0000 0.59940  0.80770  0.37210  Biso   1.000  H
  H61      1.0000 0.09940  0.69230  0.62790  Biso   1.000  H
  H62      1.0000 0.59940  0.69230  0.87210  Biso   1.000  H
  H63      1.0000 0.09940  0.80770  0.12790  Biso   1.000  H
  H64      1.0000 0.40060  0.19230  0.62790  Biso   1.000  H
  C81      1.0000 0.66520  0.16720  0.52410  Biso   1.000  C
  C82      1.0000 0.16520  0.16720  0.97590  Biso   1.000  C
  C83      1.0000 0.66520  0.33280  0.02410  Biso   1.000  C
  C84      1.0000 0.83480  0.66720  0.52410  Biso   1.000  C
  C85      1.0000 0.33480  0.83280  0.47590  Biso   1.000  C
  C86      1.0000 0.83480  0.83280  0.02410  Biso   1.000  C
  C87      1.0000 0.33480  0.66720  0.97590  Biso   1.000  C
  C88      1.0000 0.16520  0.33280  0.47590  Biso   1.000  C
  H65      1.0000 0.56770  0.17260  0.54720  Biso   1.000  H
  H66      1.0000 0.06770  0.17260  0.95280  Biso   1.000  H
  H67      1.0000 0.56770  0.32740  0.04720  Biso   1.000  H
  H68      1.0000 0.93230  0.67260  0.54720  Biso   1.000  H
  H69      1.0000 0.43230  0.82740  0.45280  Biso   1.000  H
  H70      1.0000 0.93230  0.82740  0.04720  Biso   1.000  H
  H71      1.0000 0.43230  0.67260  0.95280  Biso   1.000  H
  H72      1.0000 0.06770  0.32740  0.45280  Biso   1.000  H
  H73      1.0000 0.76640  0.16250  0.54580  Biso   1.000  H
  H74      1.0000 0.26640  0.16250  0.95420  Biso   1.000  H
  H75      1.0000 0.76640  0.33750  0.04580  Biso   1.000  H
  H76      1.0000 0.73360  0.66250  0.54580  Biso   1.000  H
  H77      1.0000 0.23360  0.83750  0.45420  Biso   1.000  H
  H78      1.0000 0.73360  0.83750  0.04580  Biso   1.000  H
  H79      1.0000 0.23360  0.66250  0.95420  Biso   1.000  H
  H80      1.0000 0.26640  0.33750  0.45420  Biso   1.000  H
