data_image0
_cell_length_a       8.5995
_cell_length_b       20.8533
_cell_length_c       12.5137
_cell_angle_alpha    90
_cell_angle_beta     110.026
_cell_angle_gamma    90

_symmetry_space_group_name_H-M    "P 1"
_symmetry_int_tables_number       1

loop_
  _symmetry_equiv_pos_as_xyz
  'x, y, z'

loop_
  _atom_site_label
  _atom_site_occupancy
  _atom_site_fract_x
  _atom_site_fract_y
  _atom_site_fract_z
  _atom_site_thermal_displace_type
  _atom_site_B_iso_or_equiv
  _atom_site_type_symbol
  Mo1      1.0000 0.51295  0.12007  0.41692  Biso   1.000  Mo
  Mo2      1.0000 0.01295  0.37993  0.91692  Biso   1.000  Mo
  Mo3      1.0000 0.48705  0.87993  0.58308  Biso   1.000  Mo
  Mo4      1.0000 0.98705  0.62007  0.08308  Biso   1.000  Mo
  Mo5      1.0000 0.90630  0.11757  0.42121  Biso   1.000  Mo
  Mo6      1.0000 0.40630  0.38243  0.92121  Biso   1.000  Mo
  Mo7      1.0000 0.09370  0.88243  0.57879  Biso   1.000  Mo
  Mo8      1.0000 0.59370  0.61757  0.07879  Biso   1.000  Mo
  Cu1      1.0000 0.68839  0.01459  0.02772  Biso   1.000  Cu
  Cu2      1.0000 0.18839  0.48541  0.52772  Biso   1.000  Cu
  Cu3      1.0000 0.31161  0.98541  0.97228  Biso   1.000  Cu
  Cu4      1.0000 0.81161  0.51459  0.47228  Biso   1.000  Cu
  P1       1.0000 0.62652  0.01646  0.25441  Biso   1.000  P
  P2       1.0000 0.12652  0.48354  0.75441  Biso   1.000  P
  P3       1.0000 0.37348  0.98354  0.74559  Biso   1.000  P
  P4       1.0000 0.87348  0.51646  0.24559  Biso   1.000  P
  P5       1.0000 0.73980  0.97537  0.49332  Biso   1.000  P
  P6       1.0000 0.23980  0.52463  0.99332  Biso   1.000  P
  P7       1.0000 0.26020  0.02463  0.50668  Biso   1.000  P
  P8       1.0000 0.76020  0.47537  0.00668  Biso   1.000  P
  O1       1.0000 0.57260  0.99361  0.12980  Biso   1.000  O
  O2       1.0000 0.07260  0.50639  0.62980  Biso   1.000  O
  O3       1.0000 0.42740  0.00639  0.87020  Biso   1.000  O
  O4       1.0000 0.92740  0.49361  0.37020  Biso   1.000  O
  O5       1.0000 0.79310  0.05084  0.28610  Biso   1.000  O
  O6       1.0000 0.29310  0.44916  0.78610  Biso   1.000  O
  O7       1.0000 0.20690  0.94916  0.71390  Biso   1.000  O
  O8       1.0000 0.70690  0.55084  0.21390  Biso   1.000  O
  O9       1.0000 0.49340  0.05776  0.27390  Biso   1.000  O
  O10      1.0000 0.99340  0.44224  0.77390  Biso   1.000  O
  O11      1.0000 0.50660  0.94224  0.72610  Biso   1.000  O
  O12      1.0000 0.00660  0.55776  0.22610  Biso   1.000  O
  O13      1.0000 0.91730  0.95227  0.54590  Biso   1.000  O
  O14      1.0000 0.41730  0.54773  0.04590  Biso   1.000  O
  O15      1.0000 0.08270  0.04773  0.45410  Biso   1.000  O
  O16      1.0000 0.58270  0.45227  0.95410  Biso   1.000  O
  O17      1.0000 0.98750  0.16385  0.34240  Biso   1.000  O
  O18      1.0000 0.48750  0.33615  0.84240  Biso   1.000  O
  O19      1.0000 0.01250  0.83615  0.65760  Biso   1.000  O
  O20      1.0000 0.51250  0.66385  0.15760  Biso   1.000  O
  O21      1.0000 0.99320  0.14640  0.55740  Biso   1.000  O
  O22      1.0000 0.49320  0.35360  0.05740  Biso   1.000  O
  O23      1.0000 0.00680  0.85360  0.44260  Biso   1.000  O
  O24      1.0000 0.50680  0.64640  0.94260  Biso   1.000  O
  O25      1.0000 0.69320  0.15575  0.37980  Biso   1.000  O
  O26      1.0000 0.19320  0.34425  0.87980  Biso   1.000  O
  O27      1.0000 0.30680  0.84425  0.62020  Biso   1.000  O
  O28      1.0000 0.80680  0.65575  0.12020  Biso   1.000  O
  O29      1.0000 0.56050  0.14776  0.55260  Biso   1.000  O
  O30      1.0000 0.06050  0.35224  0.05260  Biso   1.000  O
  O31      1.0000 0.43950  0.85224  0.44740  Biso   1.000  O
  O32      1.0000 0.93950  0.64776  0.94740  Biso   1.000  O
  O33      1.0000 0.36100  0.17009  0.33990  Biso   1.000  O
  O34      1.0000 0.86100  0.32991  0.83990  Biso   1.000  O
  O35      1.0000 0.63900  0.82991  0.66010  Biso   1.000  O
  O36      1.0000 0.13900  0.67009  0.16010  Biso   1.000  O
  O37      1.0000 0.73990  0.04871  0.49120  Biso   1.000  O
  O38      1.0000 0.23990  0.45129  0.99120  Biso   1.000  O
  O39      1.0000 0.26010  0.95129  0.50880  Biso   1.000  O
  O40      1.0000 0.76010  0.54871  0.00880  Biso   1.000  O
  O41      1.0000 0.63100  0.95115  0.55900  Biso   1.000  O
  O42      1.0000 0.13100  0.54885  0.05900  Biso   1.000  O
  O43      1.0000 0.36900  0.04885  0.44100  Biso   1.000  O
  O44      1.0000 0.86900  0.45115  0.94100  Biso   1.000  O
  N1       1.0000 0.75250  0.92320  0.00820  Biso   1.000  N
  N2       1.0000 0.25250  0.57680  0.50820  Biso   1.000  N
  N3       1.0000 0.24750  0.07680  0.99180  Biso   1.000  N
  N4       1.0000 0.74750  0.42320  0.49180  Biso   1.000  N
  N5       1.0000 0.79380  0.02830  0.91750  Biso   1.000  N
  N6       1.0000 0.29380  0.47170  0.41750  Biso   1.000  N
  N7       1.0000 0.20620  0.97170  0.08250  Biso   1.000  N
  N8       1.0000 0.70620  0.52830  0.58250  Biso   1.000  N
  N9       1.0000 0.69050  0.11200  0.02790  Biso   1.000  N
  N10      1.0000 0.19050  0.38800  0.52790  Biso   1.000  N
  N11      1.0000 0.30950  0.88800  0.97210  Biso   1.000  N
  N12      1.0000 0.80950  0.61200  0.47210  Biso   1.000  N
  C1       1.0000 0.72710  0.87090  0.06060  Biso   1.000  C
  C2       1.0000 0.22710  0.62910  0.56060  Biso   1.000  C
  C3       1.0000 0.27290  0.12910  0.93940  Biso   1.000  C
  C4       1.0000 0.77290  0.37090  0.43940  Biso   1.000  C
  H1       1.0000 0.67940  0.87540  0.11660  Biso   1.000  H
  H2       1.0000 0.17940  0.62460  0.61660  Biso   1.000  H
  H3       1.0000 0.32060  0.12460  0.88340  Biso   1.000  H
  H4       1.0000 0.82060  0.37540  0.38340  Biso   1.000  H
  C5       1.0000 0.76870  0.80960  0.03520  Biso   1.000  C
  C6       1.0000 0.26870  0.69040  0.53520  Biso   1.000  C
  C7       1.0000 0.23130  0.19040  0.96480  Biso   1.000  C
  C8       1.0000 0.73130  0.30960  0.46480  Biso   1.000  C
  H5       1.0000 0.75210  0.77410  0.07500  Biso   1.000  H
  H6       1.0000 0.25210  0.72590  0.57500  Biso   1.000  H
  H7       1.0000 0.24790  0.22590  0.92500  Biso   1.000  H
  H8       1.0000 0.74790  0.27410  0.42500  Biso   1.000  H
  C9       1.0000 0.83490  0.80270  0.95020  Biso   1.000  C
  C10      1.0000 0.33490  0.69730  0.45020  Biso   1.000  C
  C11      1.0000 0.16510  0.19730  0.04980  Biso   1.000  C
  C12      1.0000 0.66510  0.30270  0.54980  Biso   1.000  C
  H9       1.0000 0.86060  0.76220  0.92970  Biso   1.000  H
  H10      1.0000 0.36060  0.73780  0.42970  Biso   1.000  H
  H11      1.0000 0.13940  0.23780  0.07030  Biso   1.000  H
  H12      1.0000 0.63940  0.26220  0.57030  Biso   1.000  H
  C13      1.0000 0.86290  0.85740  0.89510  Biso   1.000  C
  C14      1.0000 0.36290  0.64260  0.39510  Biso   1.000  C
  C15      1.0000 0.13710  0.14260  0.10490  Biso   1.000  C
  C16      1.0000 0.63710  0.35740  0.60490  Biso   1.000  C
  H13      1.0000 0.90910  0.85390  0.83820  Biso   1.000  H
  H14      1.0000 0.40910  0.64610  0.33820  Biso   1.000  H
  H15      1.0000 0.09090  0.14610  0.16180  Biso   1.000  H
  H16      1.0000 0.59090  0.35390  0.66180  Biso   1.000  H
  C17      1.0000 0.82170  0.91610  0.92570  Biso   1.000  C
  C18      1.0000 0.32170  0.58390  0.42570  Biso   1.000  C
  C19      1.0000 0.17830  0.08390  0.07430  Biso   1.000  C
  C20      1.0000 0.67830  0.41610  0.57430  Biso   1.000  C
  C21      1.0000 0.84590  0.97770  0.87420  Biso   1.000  C
  C22      1.0000 0.34590  0.52230  0.37420  Biso   1.000  C
  C23      1.0000 0.15410  0.02230  0.12580  Biso   1.000  C
  C24      1.0000 0.65410  0.47770  0.62580  Biso   1.000  C
  C25      1.0000 0.91760  0.98550  0.79180  Biso   1.000  C
  C26      1.0000 0.41760  0.51450  0.29180  Biso   1.000  C
  C27      1.0000 0.08240  0.01450  0.20820  Biso   1.000  C
  C28      1.0000 0.58240  0.48550  0.70820  Biso   1.000  C
  H17      1.0000 0.95920  0.95070  0.76350  Biso   1.000  H
  H18      1.0000 0.45920  0.54930  0.26350  Biso   1.000  H
  H19      1.0000 0.04080  0.04930  0.23650  Biso   1.000  H
  H20      1.0000 0.54080  0.45070  0.73650  Biso   1.000  H
  C29      1.0000 0.92500  0.04790  0.75250  Biso   1.000  C
  C30      1.0000 0.42500  0.45210  0.25250  Biso   1.000  C
  C31      1.0000 0.07500  0.95210  0.24750  Biso   1.000  C
  C32      1.0000 0.57500  0.54790  0.74750  Biso   1.000  C
  H21      1.0000 0.97180  0.05460  0.69650  Biso   1.000  H
  H22      1.0000 0.47180  0.44540  0.19650  Biso   1.000  H
  H23      1.0000 0.02820  0.94540  0.30350  Biso   1.000  H
  H24      1.0000 0.52820  0.55460  0.80350  Biso   1.000  H
  C33      1.0000 0.86480  0.09940  0.79470  Biso   1.000  C
  C34      1.0000 0.36480  0.40060  0.29470  Biso   1.000  C
  C35      1.0000 0.13520  0.90060  0.20530  Biso   1.000  C
  C36      1.0000 0.63520  0.59940  0.70530  Biso   1.000  C
  H25      1.0000 0.86600  0.14030  0.76550  Biso   1.000  H
  H26      1.0000 0.36600  0.35970  0.26550  Biso   1.000  H
  H27      1.0000 0.13400  0.85970  0.23450  Biso   1.000  H
  H28      1.0000 0.63400  0.64030  0.73450  Biso   1.000  H
  C37      1.0000 0.80240  0.08910  0.88170  Biso   1.000  C
  C38      1.0000 0.30240  0.41090  0.38170  Biso   1.000  C
  C39      1.0000 0.19760  0.91090  0.11830  Biso   1.000  C
  C40      1.0000 0.69760  0.58910  0.61830  Biso   1.000  C
  C41      1.0000 0.74540  0.13680  0.94650  Biso   1.000  C
  C42      1.0000 0.24540  0.36320  0.44650  Biso   1.000  C
  C43      1.0000 0.25460  0.86320  0.05350  Biso   1.000  C
  C44      1.0000 0.75460  0.63680  0.55350  Biso   1.000  C
  C45      1.0000 0.75640  0.20230  0.93270  Biso   1.000  C
  C46      1.0000 0.25640  0.29770  0.43270  Biso   1.000  C
  C47      1.0000 0.24360  0.79770  0.06730  Biso   1.000  C
  C48      1.0000 0.74360  0.70230  0.56730  Biso   1.000  C
  H29      1.0000 0.78900  0.21840  0.87430  Biso   1.000  H
  H30      1.0000 0.28900  0.28160  0.37430  Biso   1.000  H
  H31      1.0000 0.21100  0.78160  0.12570  Biso   1.000  H
  H32      1.0000 0.71100  0.71840  0.62570  Biso   1.000  H
  C49      1.0000 0.71840  0.24380  0.00660  Biso   1.000  C
  C50      1.0000 0.21840  0.25620  0.50660  Biso   1.000  C
  C51      1.0000 0.28160  0.75620  0.99340  Biso   1.000  C
  C52      1.0000 0.78160  0.74380  0.49340  Biso   1.000  C
  H33      1.0000 0.72890  0.28790  0.00060  Biso   1.000  H
  H34      1.0000 0.22890  0.21210  0.50060  Biso   1.000  H
  H35      1.0000 0.27110  0.71210  0.99940  Biso   1.000  H
  H36      1.0000 0.77110  0.78790  0.49940  Biso   1.000  H
  C53      1.0000 0.66460  0.21820  0.08930  Biso   1.000  C
  C54      1.0000 0.16460  0.28180  0.58930  Biso   1.000  C
  C55      1.0000 0.33540  0.78180  0.91070  Biso   1.000  C
  C56      1.0000 0.83540  0.71820  0.41070  Biso   1.000  C
  H37      1.0000 0.63850  0.24500  0.14020  Biso   1.000  H
  H38      1.0000 0.13850  0.25500  0.64020  Biso   1.000  H
  H39      1.0000 0.36150  0.75500  0.85980  Biso   1.000  H
  H40      1.0000 0.86150  0.74500  0.35980  Biso   1.000  H
  C57      1.0000 0.64990  0.15330  0.09590  Biso   1.000  C
  C58      1.0000 0.14990  0.34670  0.59590  Biso   1.000  C
  C59      1.0000 0.35010  0.84670  0.90410  Biso   1.000  C
  C60      1.0000 0.85010  0.65330  0.40410  Biso   1.000  C
  H41      1.0000 0.60970  0.13700  0.15050  Biso   1.000  H
  H42      1.0000 0.10970  0.36300  0.65050  Biso   1.000  H
  H43      1.0000 0.39030  0.86300  0.84950  Biso   1.000  H
  H44      1.0000 0.89030  0.63700  0.34950  Biso   1.000  H
  C61      1.0000 0.65630  0.94740  0.34740  Biso   1.000  C
  C62      1.0000 0.15630  0.55260  0.84740  Biso   1.000  C
  C63      1.0000 0.34370  0.05260  0.65260  Biso   1.000  C
  C64      1.0000 0.84370  0.44740  0.15260  Biso   1.000  C
  H45      1.0000 0.73240  0.91740  0.33220  Biso   1.000  H
  H46      1.0000 0.23240  0.58260  0.83220  Biso   1.000  H
  H47      1.0000 0.26760  0.08260  0.66780  Biso   1.000  H
  H48      1.0000 0.76760  0.41740  0.16780  Biso   1.000  H
  H49      1.0000 0.55170  0.92570  0.33440  Biso   1.000  H
  H50      1.0000 0.05170  0.57430  0.83440  Biso   1.000  H
  H51      1.0000 0.44830  0.07430  0.66560  Biso   1.000  H
  H52      1.0000 0.94830  0.42570  0.16560  Biso   1.000  H
