data_image0
_cell_length_a       8.0759
_cell_length_b       10.2293
_cell_length_c       12.437
_cell_angle_alpha    70.758
_cell_angle_beta     71.576
_cell_angle_gamma    71.508

_symmetry_space_group_name_H-M    "P 1"
_symmetry_int_tables_number       1

loop_
  _symmetry_equiv_pos_as_xyz
  'x, y, z'

loop_
  _atom_site_label
  _atom_site_occupancy
  _atom_site_fract_x
  _atom_site_fract_y
  _atom_site_fract_z
  _atom_site_thermal_displace_type
  _atom_site_B_iso_or_equiv
  _atom_site_type_symbol
  Mo1      1.0000 0.65349  0.46433  0.88517  Biso   1.000  Mo
  Mo2      1.0000 0.34651  0.53567  0.11483  Biso   1.000  Mo
  Mo3      1.0000 0.52556  0.20498  0.18741  Biso   1.000  Mo
  Mo4      1.0000 0.47444  0.79502  0.81259  Biso   1.000  Mo
  Cu1      1.0000 0.58714  0.13721  0.78623  Biso   1.000  Cu
  Cu2      1.0000 0.41286  0.86279  0.21377  Biso   1.000  Cu
  P1       1.0000 0.72953  0.98527  0.01248  Biso   1.000  P
  P2       1.0000 0.27047  0.01473  0.98752  Biso   1.000  P
  O1       1.0000 0.74620  0.01160  0.88310  Biso   1.000  O
  O2       1.0000 0.25380  0.98840  0.11690  Biso   1.000  O
  O3       1.0000 0.63710  0.12750  0.04960  Biso   1.000  O
  O4       1.0000 0.36290  0.87250  0.95040  Biso   1.000  O
  O5       1.0000 0.63440  0.86710  0.08890  Biso   1.000  O
  O6       1.0000 0.36560  0.13290  0.91110  Biso   1.000  O
  O7       1.0000 0.88320  0.41490  0.86490  Biso   1.000  O
  O8       1.0000 0.11680  0.58510  0.13510  Biso   1.000  O
  O9       1.0000 0.59200  0.39540  0.05374  Biso   1.000  O
  O10      1.0000 0.40800  0.60460  0.94626  Biso   1.000  O
  O11      1.0000 0.59820  0.35430  0.83220  Biso   1.000  O
  O12      1.0000 0.40180  0.64570  0.16780  Biso   1.000  O
  O13      1.0000 0.63640  0.63700  0.75800  Biso   1.000  O
  O14      1.0000 0.36360  0.36300  0.24200  Biso   1.000  O
  O15      1.0000 0.41940  0.07010  0.27070  Biso   1.000  O
  O16      1.0000 0.58060  0.92990  0.72930  Biso   1.000  O
  O17      1.0000 0.70370  0.16850  0.24600  Biso   1.000  O
  O18      1.0000 0.29630  0.83150  0.75400  Biso   1.000  O
  O19      1.0000 0.30000  0.30340  0.06860  Biso   1.000  O
  O20      1.0000 0.70000  0.69660  0.93140  Biso   1.000  O
  O21      1.0000 0.07100  0.61670  0.85680  Biso   1.000  O
  O22      1.0000 0.92900  0.38330  0.14320  Biso   1.000  O
  N1       1.0000 0.45170  0.26330  0.66620  Biso   1.000  N
  N2       1.0000 0.54830  0.73670  0.33380  Biso   1.000  N
  N3       1.0000 0.79380  0.15300  0.64490  Biso   1.000  N
  N4       1.0000 0.20620  0.84700  0.35510  Biso   1.000  N
  C1       1.0000 0.27390  0.32280  0.68840  Biso   1.000  C
  C2       1.0000 0.72610  0.67720  0.31160  Biso   1.000  C
  H1       1.0000 0.20700  0.30910  0.76560  Biso   1.000  H
  H2       1.0000 0.79300  0.69090  0.23440  Biso   1.000  H
  C3       1.0000 0.18820  0.40410  0.59840  Biso   1.000  C
  C4       1.0000 0.81180  0.59590  0.40160  Biso   1.000  C
  H3       1.0000 0.06550  0.44530  0.61520  Biso   1.000  H
  H4       1.0000 0.93450  0.55470  0.38480  Biso   1.000  H
  C5       1.0000 0.28850  0.42310  0.48320  Biso   1.000  C
  C6       1.0000 0.71150  0.57690  0.51680  Biso   1.000  C
  H5       1.0000 0.23330  0.47570  0.42170  Biso   1.000  H
  H6       1.0000 0.76670  0.52430  0.57830  Biso   1.000  H
  C7       1.0000 0.47210  0.36270  0.46070  Biso   1.000  C
  C8       1.0000 0.52790  0.63730  0.53930  Biso   1.000  C
  H7       1.0000 0.54140  0.37410  0.38420  Biso   1.000  H
  H8       1.0000 0.45860  0.62590  0.61580  Biso   1.000  H
  C9       1.0000 0.55040  0.28500  0.55450  Biso   1.000  C
  C10      1.0000 0.44960  0.71500  0.44550  Biso   1.000  C
  C11      1.0000 0.74570  0.22460  0.54280  Biso   1.000  C
  C12      1.0000 0.25430  0.77540  0.45720  Biso   1.000  C
  C13      1.0000 0.87240  0.24140  0.43640  Biso   1.000  C
  C14      1.0000 0.12760  0.75860  0.56360  Biso   1.000  C
  H9       1.0000 0.83700  0.28900  0.36650  Biso   1.000  H
  H10      1.0000 0.16300  0.71100  0.63350  Biso   1.000  H
  C15      1.0000 0.05340  0.18550  0.43690  Biso   1.000  C
  C16      1.0000 0.94660  0.81450  0.56310  Biso   1.000  C
  H11      1.0000 0.14120  0.19820  0.36730  Biso   1.000  H
  H12      1.0000 0.85880  0.80180  0.63270  Biso   1.000  H
  C17      1.0000 0.10160  0.11070  0.54180  Biso   1.000  C
  C18      1.0000 0.89840  0.88930  0.45820  Biso   1.000  C
  H13      1.0000 0.22180  0.07110  0.54360  Biso   1.000  H
  H14      1.0000 0.77820  0.92890  0.45640  Biso   1.000  H
  C19      1.0000 0.96750  0.09570  0.64450  Biso   1.000  C
  C20      1.0000 0.03250  0.90430  0.35550  Biso   1.000  C
  H15      1.0000 0.99950  0.04430  0.71500  Biso   1.000  H
  H16      1.0000 0.00050  0.95570  0.28500  Biso   1.000  H
  C21      1.0000 0.95260  0.93820  0.03390  Biso   1.000  C
  C22      1.0000 0.04740  0.06180  0.96610  Biso   1.000  C
  H17      1.0000 0.94710  0.91670  0.11680  Biso   1.000  H
  H18      1.0000 0.05290  0.08330  0.88320  Biso   1.000  H
  H19      1.0000 0.02150  0.85360  0.00680  Biso   1.000  H
  H20      1.0000 0.97850  0.14640  0.99320  Biso   1.000  H
