data_image0
_cell_length_a       16.4943
_cell_length_b       21.5003
_cell_length_c       14.8433
_cell_angle_alpha    90
_cell_angle_beta     121.128
_cell_angle_gamma    90

_symmetry_space_group_name_H-M    "P 1"
_symmetry_int_tables_number       1

loop_
  _symmetry_equiv_pos_as_xyz
  'x, y, z'

loop_
  _atom_site_label
  _atom_site_occupancy
  _atom_site_fract_x
  _atom_site_fract_y
  _atom_site_fract_z
  _atom_site_thermal_displace_type
  _atom_site_B_iso_or_equiv
  _atom_site_type_symbol
  Mo1      1.0000 0.98646  0.20378  0.92725  Biso   1.000  Mo
  Mo2      1.0000 0.48646  0.70378  0.92725  Biso   1.000  Mo
  Mo3      1.0000 0.98646  0.79622  0.42725  Biso   1.000  Mo
  Mo4      1.0000 0.48646  0.29622  0.42725  Biso   1.000  Mo
  Mo5      1.0000 0.01354  0.79622  0.07275  Biso   1.000  Mo
  Mo6      1.0000 0.51354  0.29622  0.07275  Biso   1.000  Mo
  Mo7      1.0000 0.01354  0.20378  0.57275  Biso   1.000  Mo
  Mo8      1.0000 0.51354  0.70378  0.57275  Biso   1.000  Mo
  Mo9      1.0000 0.03180  0.35398  0.64846  Biso   1.000  Mo
  Mo10     1.0000 0.53180  0.85398  0.64846  Biso   1.000  Mo
  Mo11     1.0000 0.03180  0.64602  0.14846  Biso   1.000  Mo
  Mo12     1.0000 0.53180  0.14602  0.14846  Biso   1.000  Mo
  Mo13     1.0000 0.96820  0.64602  0.35154  Biso   1.000  Mo
  Mo14     1.0000 0.46820  0.14602  0.35154  Biso   1.000  Mo
  Mo15     1.0000 0.96820  0.35398  0.85154  Biso   1.000  Mo
  Mo16     1.0000 0.46820  0.85398  0.85154  Biso   1.000  Mo
  Mo17     1.0000 0.00000  0.11133  0.75000  Biso   1.000  Mo
  Mo18     1.0000 0.50000  0.61133  0.75000  Biso   1.000  Mo
  Mo19     1.0000 0.00000  0.88867  0.25000  Biso   1.000  Mo
  Mo20     1.0000 0.50000  0.38867  0.25000  Biso   1.000  Mo
  Cu1      1.0000 0.76556  0.13727  0.87514  Biso   1.000  Cu
  Cu2      1.0000 0.26556  0.63727  0.87514  Biso   1.000  Cu
  Cu3      1.0000 0.76556  0.86273  0.37514  Biso   1.000  Cu
  Cu4      1.0000 0.26556  0.36273  0.37514  Biso   1.000  Cu
  Cu5      1.0000 0.23444  0.86273  0.12486  Biso   1.000  Cu
  Cu6      1.0000 0.73444  0.36273  0.12486  Biso   1.000  Cu
  Cu7      1.0000 0.23444  0.13727  0.62486  Biso   1.000  Cu
  Cu8      1.0000 0.73444  0.63727  0.62486  Biso   1.000  Cu
  P1       1.0000 0.86931  0.24835  0.66240  Biso   1.000  P
  P2       1.0000 0.36931  0.74835  0.66240  Biso   1.000  P
  P3       1.0000 0.86931  0.75165  0.16240  Biso   1.000  P
  P4       1.0000 0.36931  0.25165  0.16240  Biso   1.000  P
  P5       1.0000 0.13069  0.75165  0.33760  Biso   1.000  P
  P6       1.0000 0.63069  0.25165  0.33760  Biso   1.000  P
  P7       1.0000 0.13069  0.24835  0.83760  Biso   1.000  P
  P8       1.0000 0.63069  0.74835  0.83760  Biso   1.000  P
  O1       1.0000 0.72640  0.13110  0.70360  Biso   1.000  O
  O2       1.0000 0.22640  0.63110  0.70360  Biso   1.000  O
  O3       1.0000 0.72640  0.86890  0.20360  Biso   1.000  O
  O4       1.0000 0.22640  0.36890  0.20360  Biso   1.000  O
  O5       1.0000 0.27360  0.86890  0.29640  Biso   1.000  O
  O6       1.0000 0.77360  0.36890  0.29640  Biso   1.000  O
  O7       1.0000 0.27360  0.13110  0.79640  Biso   1.000  O
  O8       1.0000 0.77360  0.63110  0.79640  Biso   1.000  O
  O9       1.0000 0.89340  0.16250  0.92280  Biso   1.000  O
  O10      1.0000 0.39340  0.66250  0.92280  Biso   1.000  O
  O11      1.0000 0.89340  0.83750  0.42280  Biso   1.000  O
  O12      1.0000 0.39340  0.33750  0.42280  Biso   1.000  O
  O13      1.0000 0.10660  0.83750  0.07720  Biso   1.000  O
  O14      1.0000 0.60660  0.33750  0.07720  Biso   1.000  O
  O15      1.0000 0.10660  0.16250  0.57720  Biso   1.000  O
  O16      1.0000 0.60660  0.66250  0.57720  Biso   1.000  O
  O17      1.0000 0.95610  0.13840  0.60960  Biso   1.000  O
  O18      1.0000 0.45610  0.63840  0.60960  Biso   1.000  O
  O19      1.0000 0.95610  0.86160  0.10960  Biso   1.000  O
  O20      1.0000 0.45610  0.36160  0.10960  Biso   1.000  O
  O21      1.0000 0.04390  0.86160  0.39040  Biso   1.000  O
  O22      1.0000 0.54390  0.36160  0.39040  Biso   1.000  O
  O23      1.0000 0.04390  0.13840  0.89040  Biso   1.000  O
  O24      1.0000 0.54390  0.63840  0.89040  Biso   1.000  O
  O25      1.0000 0.91070  0.06230  0.72730  Biso   1.000  O
  O26      1.0000 0.41070  0.56230  0.72730  Biso   1.000  O
  O27      1.0000 0.91070  0.93770  0.22730  Biso   1.000  O
  O28      1.0000 0.41070  0.43770  0.22730  Biso   1.000  O
  O29      1.0000 0.08930  0.93770  0.27270  Biso   1.000  O
  O30      1.0000 0.58930  0.43770  0.27270  Biso   1.000  O
  O31      1.0000 0.08930  0.06230  0.77270  Biso   1.000  O
  O32      1.0000 0.58930  0.56230  0.77270  Biso   1.000  O
  O33      1.0000 0.89930  0.19250  0.73880  Biso   1.000  O
  O34      1.0000 0.39930  0.69250  0.73880  Biso   1.000  O
  O35      1.0000 0.89930  0.80750  0.23880  Biso   1.000  O
  O36      1.0000 0.39930  0.30750  0.23880  Biso   1.000  O
  O37      1.0000 0.10070  0.80750  0.26120  Biso   1.000  O
  O38      1.0000 0.60070  0.30750  0.26120  Biso   1.000  O
  O39      1.0000 0.10070  0.19250  0.76120  Biso   1.000  O
  O40      1.0000 0.60070  0.69250  0.76120  Biso   1.000  O
  O41      1.0000 0.07030  0.20620  0.05730  Biso   1.000  O
  O42      1.0000 0.57030  0.70620  0.05730  Biso   1.000  O
  O43      1.0000 0.07030  0.79380  0.55730  Biso   1.000  O
  O44      1.0000 0.57030  0.29380  0.55730  Biso   1.000  O
  O45      1.0000 0.92970  0.79380  0.94270  Biso   1.000  O
  O46      1.0000 0.42970  0.29380  0.94270  Biso   1.000  O
  O47      1.0000 0.92970  0.20620  0.44270  Biso   1.000  O
  O48      1.0000 0.42970  0.70620  0.44270  Biso   1.000  O
  O49      1.0000 0.94370  0.26260  0.63090  Biso   1.000  O
  O50      1.0000 0.44370  0.76260  0.63090  Biso   1.000  O
  O51      1.0000 0.94370  0.73740  0.13090  Biso   1.000  O
  O52      1.0000 0.44370  0.23740  0.13090  Biso   1.000  O
  O53      1.0000 0.05630  0.73740  0.36910  Biso   1.000  O
  O54      1.0000 0.55630  0.23740  0.36910  Biso   1.000  O
  O55      1.0000 0.05630  0.26260  0.86910  Biso   1.000  O
  O56      1.0000 0.55630  0.76260  0.86910  Biso   1.000  O
  O57      1.0000 0.93450  0.28470  0.91230  Biso   1.000  O
  O58      1.0000 0.43450  0.78470  0.91230  Biso   1.000  O
  O59      1.0000 0.93450  0.71530  0.41230  Biso   1.000  O
  O60      1.0000 0.43450  0.21530  0.41230  Biso   1.000  O
  O61      1.0000 0.06550  0.71530  0.08770  Biso   1.000  O
  O62      1.0000 0.56550  0.21530  0.08770  Biso   1.000  O
  O63      1.0000 0.06550  0.28470  0.58770  Biso   1.000  O
  O64      1.0000 0.56550  0.78470  0.58770  Biso   1.000  O
  O65      1.0000 0.85090  0.30700  0.70670  Biso   1.000  O
  O66      1.0000 0.35090  0.80700  0.70670  Biso   1.000  O
  O67      1.0000 0.85090  0.69300  0.20670  Biso   1.000  O
  O68      1.0000 0.35090  0.19300  0.20670  Biso   1.000  O
  O69      1.0000 0.14910  0.69300  0.29330  Biso   1.000  O
  O70      1.0000 0.64910  0.19300  0.29330  Biso   1.000  O
  O71      1.0000 0.14910  0.30700  0.79330  Biso   1.000  O
  O72      1.0000 0.64910  0.80700  0.79330  Biso   1.000  O
  O73      1.0000 0.11190  0.40830  0.66050  Biso   1.000  O
  O74      1.0000 0.61190  0.90830  0.66050  Biso   1.000  O
  O75      1.0000 0.11190  0.59170  0.16050  Biso   1.000  O
  O76      1.0000 0.61190  0.09170  0.16050  Biso   1.000  O
  O77      1.0000 0.88810  0.59170  0.33950  Biso   1.000  O
  O78      1.0000 0.38810  0.09170  0.33950  Biso   1.000  O
  O79      1.0000 0.88810  0.40830  0.83950  Biso   1.000  O
  O80      1.0000 0.38810  0.90830  0.83950  Biso   1.000  O
  O81      1.0000 0.93100  0.37790  0.53860  Biso   1.000  O
  O82      1.0000 0.43100  0.87790  0.53860  Biso   1.000  O
  O83      1.0000 0.93100  0.62210  0.03860  Biso   1.000  O
  O84      1.0000 0.43100  0.12210  0.03860  Biso   1.000  O
  O85      1.0000 0.06900  0.62210  0.46140  Biso   1.000  O
  O86      1.0000 0.56900  0.12210  0.46140  Biso   1.000  O
  O87      1.0000 0.06900  0.37790  0.96140  Biso   1.000  O
  O88      1.0000 0.56900  0.87790  0.96140  Biso   1.000  O
  O89      1.0000 0.00000  0.37860  0.75000  Biso   1.000  O
  O90      1.0000 0.50000  0.87860  0.75000  Biso   1.000  O
  O91      1.0000 0.00000  0.62140  0.25000  Biso   1.000  O
  O92      1.0000 0.50000  0.12140  0.25000  Biso   1.000  O
  O93      1.0000 0.28150  0.01460  0.85670  Biso   1.000  O
  O94      1.0000 0.78150  0.51460  0.85670  Biso   1.000  O
  O95      1.0000 0.28150  0.98540  0.35670  Biso   1.000  O
  O96      1.0000 0.78150  0.48540  0.35670  Biso   1.000  O
  O97      1.0000 0.71850  0.98540  0.14330  Biso   1.000  O
  O98      1.0000 0.21850  0.48540  0.14330  Biso   1.000  O
  O99      1.0000 0.71850  0.01460  0.64330  Biso   1.000  O
  O100     1.0000 0.21850  0.51460  0.64330  Biso   1.000  O
  O101     1.0000 0.24400  0.97430  0.86600  Biso   1.000  O
  O102     1.0000 0.74400  0.47430  0.86600  Biso   1.000  O
  O103     1.0000 0.24400  0.02570  0.36600  Biso   1.000  O
  O104     1.0000 0.74400  0.52570  0.36600  Biso   1.000  O
  O105     1.0000 0.75600  0.02570  0.13400  Biso   1.000  O
  O106     1.0000 0.25600  0.52570  0.13400  Biso   1.000  O
  O107     1.0000 0.75600  0.97430  0.63400  Biso   1.000  O
  O108     1.0000 0.25600  0.47430  0.63400  Biso   1.000  O
  N1       1.0000 0.69830  0.22210  0.84720  Biso   1.000  N
  N2       1.0000 0.19830  0.72210  0.84720  Biso   1.000  N
  N3       1.0000 0.69830  0.77790  0.34720  Biso   1.000  N
  N4       1.0000 0.19830  0.27790  0.34720  Biso   1.000  N
  N5       1.0000 0.30170  0.77790  0.15280  Biso   1.000  N
  N6       1.0000 0.80170  0.27790  0.15280  Biso   1.000  N
  N7       1.0000 0.30170  0.22210  0.65280  Biso   1.000  N
  N8       1.0000 0.80170  0.72210  0.65280  Biso   1.000  N
  N9       1.0000 0.66290  0.10980  0.88160  Biso   1.000  N
  N10      1.0000 0.16290  0.60980  0.88160  Biso   1.000  N
  N11      1.0000 0.66290  0.89020  0.38160  Biso   1.000  N
  N12      1.0000 0.16290  0.39020  0.38160  Biso   1.000  N
  N13      1.0000 0.33710  0.89020  0.11840  Biso   1.000  N
  N14      1.0000 0.83710  0.39020  0.11840  Biso   1.000  N
  N15      1.0000 0.33710  0.10980  0.61840  Biso   1.000  N
  N16      1.0000 0.83710  0.60980  0.61840  Biso   1.000  N
  N17      1.0000 0.79820  0.04380  0.89910  Biso   1.000  N
  N18      1.0000 0.29820  0.54380  0.89910  Biso   1.000  N
  N19      1.0000 0.79820  0.95620  0.39910  Biso   1.000  N
  N20      1.0000 0.29820  0.45620  0.39910  Biso   1.000  N
  N21      1.0000 0.20180  0.95620  0.10090  Biso   1.000  N
  N22      1.0000 0.70180  0.45620  0.10090  Biso   1.000  N
  N23      1.0000 0.20180  0.04380  0.60090  Biso   1.000  N
  N24      1.0000 0.70180  0.54380  0.60090  Biso   1.000  N
  C1       1.0000 0.72670  0.27710  0.83040  Biso   1.000  C
  C2       1.0000 0.22670  0.77710  0.83040  Biso   1.000  C
  C3       1.0000 0.72670  0.72290  0.33040  Biso   1.000  C
  C4       1.0000 0.22670  0.22290  0.33040  Biso   1.000  C
  C5       1.0000 0.27330  0.72290  0.16960  Biso   1.000  C
  C6       1.0000 0.77330  0.22290  0.16960  Biso   1.000  C
  C7       1.0000 0.27330  0.27710  0.66960  Biso   1.000  C
  C8       1.0000 0.77330  0.77710  0.66960  Biso   1.000  C
  H1       1.0000 0.77270  0.27850  0.81200  Biso   1.000  H
  H2       1.0000 0.27270  0.77850  0.81200  Biso   1.000  H
  H3       1.0000 0.77270  0.72150  0.31200  Biso   1.000  H
  H4       1.0000 0.27270  0.22150  0.31200  Biso   1.000  H
  H5       1.0000 0.22730  0.72150  0.18800  Biso   1.000  H
  H6       1.0000 0.72730  0.22150  0.18800  Biso   1.000  H
  H7       1.0000 0.22730  0.27850  0.68800  Biso   1.000  H
  H8       1.0000 0.72730  0.77850  0.68800  Biso   1.000  H
  C9       1.0000 0.68860  0.33000  0.84020  Biso   1.000  C
  C10      1.0000 0.18860  0.83000  0.84020  Biso   1.000  C
  C11      1.0000 0.68860  0.67000  0.34020  Biso   1.000  C
  C12      1.0000 0.18860  0.17000  0.34020  Biso   1.000  C
  C13      1.0000 0.31140  0.67000  0.15980  Biso   1.000  C
  C14      1.0000 0.81140  0.17000  0.15980  Biso   1.000  C
  C15      1.0000 0.31140  0.33000  0.65980  Biso   1.000  C
  C16      1.0000 0.81140  0.83000  0.65980  Biso   1.000  C
  H9       1.0000 0.71020  0.36860  0.83320  Biso   1.000  H
  H10      1.0000 0.21020  0.86860  0.83320  Biso   1.000  H
  H11      1.0000 0.71020  0.63140  0.33320  Biso   1.000  H
  H12      1.0000 0.21020  0.13140  0.33320  Biso   1.000  H
  H13      1.0000 0.28980  0.63140  0.16680  Biso   1.000  H
  H14      1.0000 0.78980  0.13140  0.16680  Biso   1.000  H
  H15      1.0000 0.28980  0.36860  0.66680  Biso   1.000  H
  H16      1.0000 0.78980  0.86860  0.66680  Biso   1.000  H
  C17      1.0000 0.61650  0.32530  0.86080  Biso   1.000  C
  C18      1.0000 0.11650  0.82530  0.86080  Biso   1.000  C
  C19      1.0000 0.61650  0.67470  0.36080  Biso   1.000  C
  C20      1.0000 0.11650  0.17470  0.36080  Biso   1.000  C
  C21      1.0000 0.38350  0.67470  0.13920  Biso   1.000  C
  C22      1.0000 0.88350  0.17470  0.13920  Biso   1.000  C
  C23      1.0000 0.38350  0.32530  0.63920  Biso   1.000  C
  C24      1.0000 0.88350  0.82530  0.63920  Biso   1.000  C
  H17      1.0000 0.58820  0.36140  0.86640  Biso   1.000  H
  H18      1.0000 0.08820  0.86140  0.86640  Biso   1.000  H
  H19      1.0000 0.58820  0.63860  0.36640  Biso   1.000  H
  H20      1.0000 0.08820  0.13860  0.36640  Biso   1.000  H
  H21      1.0000 0.41180  0.63860  0.13360  Biso   1.000  H
  H22      1.0000 0.91180  0.13860  0.13360  Biso   1.000  H
  H23      1.0000 0.41180  0.36140  0.63360  Biso   1.000  H
  H24      1.0000 0.91180  0.86140  0.63360  Biso   1.000  H
  C25      1.0000 0.58520  0.26830  0.87360  Biso   1.000  C
  C26      1.0000 0.08520  0.76830  0.87360  Biso   1.000  C
  C27      1.0000 0.58520  0.73170  0.37360  Biso   1.000  C
  C28      1.0000 0.08520  0.23170  0.37360  Biso   1.000  C
  C29      1.0000 0.41480  0.73170  0.12640  Biso   1.000  C
  C30      1.0000 0.91480  0.23170  0.12640  Biso   1.000  C
  C31      1.0000 0.41480  0.26830  0.62640  Biso   1.000  C
  C32      1.0000 0.91480  0.76830  0.62640  Biso   1.000  C
  H25      1.0000 0.53550  0.26550  0.88600  Biso   1.000  H
  H26      1.0000 0.03550  0.76550  0.88600  Biso   1.000  H
  H27      1.0000 0.53550  0.73450  0.38600  Biso   1.000  H
  H28      1.0000 0.03550  0.23450  0.38600  Biso   1.000  H
  H29      1.0000 0.46450  0.73450  0.11400  Biso   1.000  H
  H30      1.0000 0.96450  0.23450  0.11400  Biso   1.000  H
  H31      1.0000 0.46450  0.26550  0.61400  Biso   1.000  H
  H32      1.0000 0.96450  0.76550  0.61400  Biso   1.000  H
  C33      1.0000 0.62880  0.21720  0.86740  Biso   1.000  C
  C34      1.0000 0.12880  0.71720  0.86740  Biso   1.000  C
  C35      1.0000 0.62880  0.78280  0.36740  Biso   1.000  C
  C36      1.0000 0.12880  0.28280  0.36740  Biso   1.000  C
  C37      1.0000 0.37120  0.78280  0.13260  Biso   1.000  C
  C38      1.0000 0.87120  0.28280  0.13260  Biso   1.000  C
  C39      1.0000 0.37120  0.21720  0.63260  Biso   1.000  C
  C40      1.0000 0.87120  0.71720  0.63260  Biso   1.000  C
  C41      1.0000 0.60600  0.15400  0.87950  Biso   1.000  C
  C42      1.0000 0.10600  0.65400  0.87950  Biso   1.000  C
  C43      1.0000 0.60600  0.84600  0.37950  Biso   1.000  C
  C44      1.0000 0.10600  0.34600  0.37950  Biso   1.000  C
  C45      1.0000 0.39400  0.84600  0.12050  Biso   1.000  C
  C46      1.0000 0.89400  0.34600  0.12050  Biso   1.000  C
  C47      1.0000 0.39400  0.15400  0.62050  Biso   1.000  C
  C48      1.0000 0.89400  0.65400  0.62050  Biso   1.000  C
  C49      1.0000 0.52320  0.13620  0.88710  Biso   1.000  C
  C50      1.0000 0.02320  0.63620  0.88710  Biso   1.000  C
  C51      1.0000 0.52320  0.86380  0.38710  Biso   1.000  C
  C52      1.0000 0.02320  0.36380  0.38710  Biso   1.000  C
  C53      1.0000 0.47680  0.86380  0.11290  Biso   1.000  C
  C54      1.0000 0.97680  0.36380  0.11290  Biso   1.000  C
  C55      1.0000 0.47680  0.13620  0.61290  Biso   1.000  C
  C56      1.0000 0.97680  0.63620  0.61290  Biso   1.000  C
  H33      1.0000 0.48070  0.16560  0.88460  Biso   1.000  H
  H34      1.0000 0.98070  0.66560  0.88460  Biso   1.000  H
  H35      1.0000 0.48070  0.83440  0.38460  Biso   1.000  H
  H36      1.0000 0.98070  0.33440  0.38460  Biso   1.000  H
  H37      1.0000 0.51930  0.83440  0.11540  Biso   1.000  H
  H38      1.0000 0.01930  0.33440  0.11540  Biso   1.000  H
  H39      1.0000 0.51930  0.16560  0.61540  Biso   1.000  H
  H40      1.0000 0.01930  0.66560  0.61540  Biso   1.000  H
  C57      1.0000 0.51240  0.07190  0.89830  Biso   1.000  C
  C58      1.0000 0.01240  0.57190  0.89830  Biso   1.000  C
  C59      1.0000 0.51240  0.92810  0.39830  Biso   1.000  C
  C60      1.0000 0.01240  0.42810  0.39830  Biso   1.000  C
  C61      1.0000 0.48760  0.92810  0.10170  Biso   1.000  C
  C62      1.0000 0.98760  0.42810  0.10170  Biso   1.000  C
  C63      1.0000 0.48760  0.07190  0.60170  Biso   1.000  C
  C64      1.0000 0.98760  0.57190  0.60170  Biso   1.000  C
  H41      1.0000 0.46230  0.05810  0.90500  Biso   1.000  H
  H42      1.0000 0.96230  0.55810  0.90500  Biso   1.000  H
  H43      1.0000 0.46230  0.94190  0.40500  Biso   1.000  H
  H44      1.0000 0.96230  0.44190  0.40500  Biso   1.000  H
  H45      1.0000 0.53770  0.94190  0.09500  Biso   1.000  H
  H46      1.0000 0.03770  0.44190  0.09500  Biso   1.000  H
  H47      1.0000 0.53770  0.05810  0.59500  Biso   1.000  H
  H48      1.0000 0.03770  0.55810  0.59500  Biso   1.000  H
  C65      1.0000 0.57500  0.02990  0.89940  Biso   1.000  C
  C66      1.0000 0.07500  0.52990  0.89940  Biso   1.000  C
  C67      1.0000 0.57500  0.97010  0.39940  Biso   1.000  C
  C68      1.0000 0.07500  0.47010  0.39940  Biso   1.000  C
  C69      1.0000 0.42500  0.97010  0.10060  Biso   1.000  C
  C70      1.0000 0.92500  0.47010  0.10060  Biso   1.000  C
  C71      1.0000 0.42500  0.02990  0.60060  Biso   1.000  C
  C72      1.0000 0.92500  0.52990  0.60060  Biso   1.000  C
  H49      1.0000 0.56650  0.98760  0.90470  Biso   1.000  H
  H50      1.0000 0.06650  0.48760  0.90470  Biso   1.000  H
  H51      1.0000 0.56650  0.01240  0.40470  Biso   1.000  H
  H52      1.0000 0.06650  0.51240  0.40470  Biso   1.000  H
  H53      1.0000 0.43350  0.01240  0.09530  Biso   1.000  H
  H54      1.0000 0.93350  0.51240  0.09530  Biso   1.000  H
  H55      1.0000 0.43350  0.98760  0.59530  Biso   1.000  H
  H56      1.0000 0.93350  0.48760  0.59530  Biso   1.000  H
  C73      1.0000 0.65190  0.05050  0.89250  Biso   1.000  C
  C74      1.0000 0.15190  0.55050  0.89250  Biso   1.000  C
  C75      1.0000 0.65190  0.94950  0.39250  Biso   1.000  C
  C76      1.0000 0.15190  0.44950  0.39250  Biso   1.000  C
  C77      1.0000 0.34810  0.94950  0.10750  Biso   1.000  C
  C78      1.0000 0.84810  0.44950  0.10750  Biso   1.000  C
  C79      1.0000 0.34810  0.05050  0.60750  Biso   1.000  C
  C80      1.0000 0.84810  0.55050  0.60750  Biso   1.000  C
  C81      1.0000 0.72840  0.00990  0.89790  Biso   1.000  C
  C82      1.0000 0.22840  0.50990  0.89790  Biso   1.000  C
  C83      1.0000 0.72840  0.99010  0.39790  Biso   1.000  C
  C84      1.0000 0.22840  0.49010  0.39790  Biso   1.000  C
  C85      1.0000 0.27160  0.99010  0.10210  Biso   1.000  C
  C86      1.0000 0.77160  0.49010  0.10210  Biso   1.000  C
  C87      1.0000 0.27160  0.00990  0.60210  Biso   1.000  C
  C88      1.0000 0.77160  0.50990  0.60210  Biso   1.000  C
  C89      1.0000 0.72880  0.94480  0.89700  Biso   1.000  C
  C90      1.0000 0.22880  0.44480  0.89700  Biso   1.000  C
  C91      1.0000 0.72880  0.05520  0.39700  Biso   1.000  C
  C92      1.0000 0.22880  0.55520  0.39700  Biso   1.000  C
  C93      1.0000 0.27120  0.05520  0.10300  Biso   1.000  C
  C94      1.0000 0.77120  0.55520  0.10300  Biso   1.000  C
  C95      1.0000 0.27120  0.94480  0.60300  Biso   1.000  C
  C96      1.0000 0.77120  0.44480  0.60300  Biso   1.000  C
  H57      1.0000 0.68000  0.92210  0.89530  Biso   1.000  H
  H58      1.0000 0.18000  0.42210  0.89530  Biso   1.000  H
  H59      1.0000 0.68000  0.07790  0.39530  Biso   1.000  H
  H60      1.0000 0.18000  0.57790  0.39530  Biso   1.000  H
  H61      1.0000 0.32000  0.07790  0.10470  Biso   1.000  H
  H62      1.0000 0.82000  0.57790  0.10470  Biso   1.000  H
  H63      1.0000 0.32000  0.92210  0.60470  Biso   1.000  H
  H64      1.0000 0.82000  0.42210  0.60470  Biso   1.000  H
  C97      1.0000 0.80450  0.91540  0.89890  Biso   1.000  C
  C98      1.0000 0.30450  0.41540  0.89890  Biso   1.000  C
  C99      1.0000 0.80450  0.08460  0.39890  Biso   1.000  C
  C100     1.0000 0.30450  0.58460  0.39890  Biso   1.000  C
  C101     1.0000 0.19550  0.08460  0.10110  Biso   1.000  C
  C102     1.0000 0.69550  0.58460  0.10110  Biso   1.000  C
  C103     1.0000 0.19550  0.91540  0.60110  Biso   1.000  C
  C104     1.0000 0.69550  0.41540  0.60110  Biso   1.000  C
  H65      1.0000 0.80660  0.87220  0.89830  Biso   1.000  H
  H66      1.0000 0.30660  0.37220  0.89830  Biso   1.000  H
  H67      1.0000 0.80660  0.12780  0.39830  Biso   1.000  H
  H68      1.0000 0.30660  0.62780  0.39830  Biso   1.000  H
  H69      1.0000 0.19340  0.12780  0.10170  Biso   1.000  H
  H70      1.0000 0.69340  0.62780  0.10170  Biso   1.000  H
  H71      1.0000 0.19340  0.87220  0.60170  Biso   1.000  H
  H72      1.0000 0.69340  0.37220  0.60170  Biso   1.000  H
  C105     1.0000 0.87610  0.94890  0.90160  Biso   1.000  C
  C106     1.0000 0.37610  0.44890  0.90160  Biso   1.000  C
  C107     1.0000 0.87610  0.05110  0.40160  Biso   1.000  C
  C108     1.0000 0.37610  0.55110  0.40160  Biso   1.000  C
  C109     1.0000 0.12390  0.05110  0.09840  Biso   1.000  C
  C110     1.0000 0.62390  0.55110  0.09840  Biso   1.000  C
  C111     1.0000 0.12390  0.94890  0.59840  Biso   1.000  C
  C112     1.0000 0.62390  0.44890  0.59840  Biso   1.000  C
  H73      1.0000 0.92620  0.92860  0.90230  Biso   1.000  H
  H74      1.0000 0.42620  0.42860  0.90230  Biso   1.000  H
  H75      1.0000 0.92620  0.07140  0.40230  Biso   1.000  H
  H76      1.0000 0.42620  0.57140  0.40230  Biso   1.000  H
  H77      1.0000 0.07380  0.07140  0.09770  Biso   1.000  H
  H78      1.0000 0.57380  0.57140  0.09770  Biso   1.000  H
  H79      1.0000 0.07380  0.92860  0.59770  Biso   1.000  H
  H80      1.0000 0.57380  0.42860  0.59770  Biso   1.000  H
  C113     1.0000 0.87340  0.01300  0.90340  Biso   1.000  C
  C114     1.0000 0.37340  0.51300  0.90340  Biso   1.000  C
  C115     1.0000 0.87340  0.98700  0.40340  Biso   1.000  C
  C116     1.0000 0.37340  0.48700  0.40340  Biso   1.000  C
  C117     1.0000 0.12660  0.98700  0.09660  Biso   1.000  C
  C118     1.0000 0.62660  0.48700  0.09660  Biso   1.000  C
  C119     1.0000 0.12660  0.01300  0.59660  Biso   1.000  C
  C120     1.0000 0.62660  0.51300  0.59660  Biso   1.000  C
  H81      1.0000 0.92310  0.03580  0.90750  Biso   1.000  H
  H82      1.0000 0.42310  0.53580  0.90750  Biso   1.000  H
  H83      1.0000 0.92310  0.96420  0.40750  Biso   1.000  H
  H84      1.0000 0.42310  0.46420  0.40750  Biso   1.000  H
  H85      1.0000 0.07690  0.96420  0.09250  Biso   1.000  H
  H86      1.0000 0.57690  0.46420  0.09250  Biso   1.000  H
  H87      1.0000 0.07690  0.03580  0.59250  Biso   1.000  H
  H88      1.0000 0.57690  0.53580  0.59250  Biso   1.000  H
  C121     1.0000 0.76290  0.22660  0.54430  Biso   1.000  C
  C122     1.0000 0.26290  0.72660  0.54430  Biso   1.000  C
  C123     1.0000 0.76290  0.77340  0.04430  Biso   1.000  C
  C124     1.0000 0.26290  0.27340  0.04430  Biso   1.000  C
  C125     1.0000 0.23710  0.77340  0.45570  Biso   1.000  C
  C126     1.0000 0.73710  0.27340  0.45570  Biso   1.000  C
  C127     1.0000 0.23710  0.22660  0.95570  Biso   1.000  C
  C128     1.0000 0.73710  0.72660  0.95570  Biso   1.000  C
  H89      1.0000 0.77100  0.18580  0.52220  Biso   1.000  H
  H90      1.0000 0.27100  0.68580  0.52220  Biso   1.000  H
  H91      1.0000 0.77100  0.81420  0.02220  Biso   1.000  H
  H92      1.0000 0.27100  0.31420  0.02220  Biso   1.000  H
  H93      1.0000 0.22900  0.81420  0.47780  Biso   1.000  H
  H94      1.0000 0.72900  0.31420  0.47780  Biso   1.000  H
  H95      1.0000 0.22900  0.18580  0.97780  Biso   1.000  H
  H96      1.0000 0.72900  0.68580  0.97780  Biso   1.000  H
  H97      1.0000 0.71140  0.22410  0.55790  Biso   1.000  H
  H98      1.0000 0.21140  0.72410  0.55790  Biso   1.000  H
  H99      1.0000 0.71140  0.77590  0.05790  Biso   1.000  H
  H100     1.0000 0.21140  0.27590  0.05790  Biso   1.000  H
  H101     1.0000 0.28860  0.77590  0.44210  Biso   1.000  H
  H102     1.0000 0.78860  0.27590  0.44210  Biso   1.000  H
  H103     1.0000 0.28860  0.22410  0.94210  Biso   1.000  H
  H104     1.0000 0.78860  0.72410  0.94210  Biso   1.000  H
  O109     1.0000 0.50000  0.44730  0.75000  Biso   1.000  O
  O110     1.0000 0.00000  0.94730  0.75000  Biso   1.000  O
  O111     1.0000 0.50000  0.55270  0.25000  Biso   1.000  O
  O112     1.0000 0.00000  0.05270  0.25000  Biso   1.000  O
