data_image0
_cell_length_a       8.7047
_cell_length_b       23.3712
_cell_length_c       19.7186
_cell_angle_alpha    90
_cell_angle_beta     101.409
_cell_angle_gamma    90

_symmetry_space_group_name_H-M    "P 1"
_symmetry_int_tables_number       1

loop_
  _symmetry_equiv_pos_as_xyz
  'x, y, z'

loop_
  _atom_site_label
  _atom_site_occupancy
  _atom_site_fract_x
  _atom_site_fract_y
  _atom_site_fract_z
  _atom_site_thermal_displace_type
  _atom_site_B_iso_or_equiv
  _atom_site_type_symbol
  Mo1      1.0000 0.50000  0.17841  0.25000  Biso   1.000  Mo
  Mo2      1.0000 0.00000  0.67841  0.25000  Biso   1.000  Mo
  Mo3      1.0000 0.50000  0.82159  0.75000  Biso   1.000  Mo
  Mo4      1.0000 0.00000  0.32159  0.75000  Biso   1.000  Mo
  Mo5      1.0000 0.29636  0.26067  0.12289  Biso   1.000  Mo
  Mo6      1.0000 0.79636  0.76067  0.12289  Biso   1.000  Mo
  Mo7      1.0000 0.29636  0.73933  0.62289  Biso   1.000  Mo
  Mo8      1.0000 0.79636  0.23933  0.62289  Biso   1.000  Mo
  Mo9      1.0000 0.70364  0.73933  0.87711  Biso   1.000  Mo
  Mo10     1.0000 0.20364  0.23933  0.87711  Biso   1.000  Mo
  Mo11     1.0000 0.70364  0.26067  0.37711  Biso   1.000  Mo
  Mo12     1.0000 0.20364  0.76067  0.37711  Biso   1.000  Mo
  Mo13     1.0000 0.39990  0.40221  0.15984  Biso   1.000  Mo
  Mo14     1.0000 0.89990  0.90221  0.15984  Biso   1.000  Mo
  Mo15     1.0000 0.39990  0.59779  0.65984  Biso   1.000  Mo
  Mo16     1.0000 0.89990  0.09779  0.65984  Biso   1.000  Mo
  Mo17     1.0000 0.60010  0.59779  0.84016  Biso   1.000  Mo
  Mo18     1.0000 0.10010  0.09779  0.84016  Biso   1.000  Mo
  Mo19     1.0000 0.60010  0.40221  0.34016  Biso   1.000  Mo
  Mo20     1.0000 0.10010  0.90221  0.34016  Biso   1.000  Mo
  Cu1      1.0000 0.23376  0.13593  0.00533  Biso   1.000  Cu
  Cu2      1.0000 0.73376  0.63593  0.00533  Biso   1.000  Cu
  Cu3      1.0000 0.23376  0.86407  0.50533  Biso   1.000  Cu
  Cu4      1.0000 0.73376  0.36407  0.50533  Biso   1.000  Cu
  Cu5      1.0000 0.76624  0.86407  0.99467  Biso   1.000  Cu
  Cu6      1.0000 0.26624  0.36407  0.99467  Biso   1.000  Cu
  Cu7      1.0000 0.76624  0.13593  0.49467  Biso   1.000  Cu
  Cu8      1.0000 0.26624  0.63593  0.49467  Biso   1.000  Cu
  P1       1.0000 0.32920  0.30540  0.28974  Biso   1.000  P
  P2       1.0000 0.82920  0.80540  0.28974  Biso   1.000  P
  P3       1.0000 0.32920  0.69460  0.78974  Biso   1.000  P
  P4       1.0000 0.82920  0.19460  0.78974  Biso   1.000  P
  P5       1.0000 0.67080  0.69460  0.71026  Biso   1.000  P
  P6       1.0000 0.17080  0.19460  0.71026  Biso   1.000  P
  P7       1.0000 0.67080  0.30540  0.21026  Biso   1.000  P
  P8       1.0000 0.17080  0.80540  0.21026  Biso   1.000  P
  O1       1.0000 0.34750  0.22110  0.05740  Biso   1.000  O
  O2       1.0000 0.84750  0.72110  0.05740  Biso   1.000  O
  O3       1.0000 0.34750  0.77890  0.55740  Biso   1.000  O
  O4       1.0000 0.84750  0.27890  0.55740  Biso   1.000  O
  O5       1.0000 0.65250  0.77890  0.94260  Biso   1.000  O
  O6       1.0000 0.15250  0.27890  0.94260  Biso   1.000  O
  O7       1.0000 0.65250  0.22110  0.44260  Biso   1.000  O
  O8       1.0000 0.15250  0.72110  0.44260  Biso   1.000  O
  O9       1.0000 0.30700  0.20300  0.19210  Biso   1.000  O
  O10      1.0000 0.80700  0.70300  0.19210  Biso   1.000  O
  O11      1.0000 0.30700  0.79700  0.69210  Biso   1.000  O
  O12      1.0000 0.80700  0.29700  0.69210  Biso   1.000  O
  O13      1.0000 0.69300  0.79700  0.80790  Biso   1.000  O
  O14      1.0000 0.19300  0.29700  0.80790  Biso   1.000  O
  O15      1.0000 0.69300  0.20300  0.30790  Biso   1.000  O
  O16      1.0000 0.19300  0.70300  0.30790  Biso   1.000  O
  O17      1.0000 0.09860  0.26490  0.10200  Biso   1.000  O
  O18      1.0000 0.59860  0.76490  0.10200  Biso   1.000  O
  O19      1.0000 0.09860  0.73510  0.60200  Biso   1.000  O
  O20      1.0000 0.59860  0.23510  0.60200  Biso   1.000  O
  O21      1.0000 0.90140  0.73510  0.89800  Biso   1.000  O
  O22      1.0000 0.40140  0.23510  0.89800  Biso   1.000  O
  O23      1.0000 0.90140  0.26490  0.39800  Biso   1.000  O
  O24      1.0000 0.40140  0.76490  0.39800  Biso   1.000  O
  O25      1.0000 0.33900  0.33850  0.09010  Biso   1.000  O
  O26      1.0000 0.83900  0.83850  0.09010  Biso   1.000  O
  O27      1.0000 0.33900  0.66150  0.59010  Biso   1.000  O
  O28      1.0000 0.83900  0.16150  0.59010  Biso   1.000  O
  O29      1.0000 0.66100  0.66150  0.90990  Biso   1.000  O
  O30      1.0000 0.16100  0.16150  0.90990  Biso   1.000  O
  O31      1.0000 0.66100  0.33850  0.40990  Biso   1.000  O
  O32      1.0000 0.16100  0.83850  0.40990  Biso   1.000  O
  O33      1.0000 0.33380  0.31980  0.21280  Biso   1.000  O
  O34      1.0000 0.83380  0.81980  0.21280  Biso   1.000  O
  O35      1.0000 0.33380  0.68020  0.71280  Biso   1.000  O
  O36      1.0000 0.83380  0.18020  0.71280  Biso   1.000  O
  O37      1.0000 0.66620  0.68020  0.78720  Biso   1.000  O
  O38      1.0000 0.16620  0.18020  0.78720  Biso   1.000  O
  O39      1.0000 0.66620  0.31980  0.28720  Biso   1.000  O
  O40      1.0000 0.16620  0.81980  0.28720  Biso   1.000  O
  O41      1.0000 0.43840  0.25500  0.31700  Biso   1.000  O
  O42      1.0000 0.93840  0.75500  0.31700  Biso   1.000  O
  O43      1.0000 0.43840  0.74500  0.81700  Biso   1.000  O
  O44      1.0000 0.93840  0.24500  0.81700  Biso   1.000  O
  O45      1.0000 0.56160  0.74500  0.68300  Biso   1.000  O
  O46      1.0000 0.06160  0.24500  0.68300  Biso   1.000  O
  O47      1.0000 0.56160  0.25500  0.18300  Biso   1.000  O
  O48      1.0000 0.06160  0.75500  0.18300  Biso   1.000  O
  O49      1.0000 0.57640  0.13340  0.19760  Biso   1.000  O
  O50      1.0000 0.07640  0.63340  0.19760  Biso   1.000  O
  O51      1.0000 0.57640  0.86660  0.69760  Biso   1.000  O
  O52      1.0000 0.07640  0.36660  0.69760  Biso   1.000  O
  O53      1.0000 0.42360  0.86660  0.80240  Biso   1.000  O
  O54      1.0000 0.92360  0.36660  0.80240  Biso   1.000  O
  O55      1.0000 0.42360  0.13340  0.30240  Biso   1.000  O
  O56      1.0000 0.92360  0.63340  0.30240  Biso   1.000  O
  O57      1.0000 0.21520  0.42600  0.16420  Biso   1.000  O
  O58      1.0000 0.71520  0.92600  0.16420  Biso   1.000  O
  O59      1.0000 0.21520  0.57400  0.66420  Biso   1.000  O
  O60      1.0000 0.71520  0.07400  0.66420  Biso   1.000  O
  O61      1.0000 0.78480  0.57400  0.83580  Biso   1.000  O
  O62      1.0000 0.28480  0.07400  0.83580  Biso   1.000  O
  O63      1.0000 0.78480  0.42600  0.33580  Biso   1.000  O
  O64      1.0000 0.28480  0.92600  0.33580  Biso   1.000  O
  O65      1.0000 0.50000  0.42650  0.25000  Biso   1.000  O
  O66      1.0000 0.00000  0.92650  0.25000  Biso   1.000  O
  O67      1.0000 0.50000  0.57350  0.75000  Biso   1.000  O
  O68      1.0000 0.00000  0.07350  0.75000  Biso   1.000  O
  O69      1.0000 0.45510  0.44970  0.10390  Biso   1.000  O
  O70      1.0000 0.95510  0.94970  0.10390  Biso   1.000  O
  O71      1.0000 0.45510  0.55030  0.60390  Biso   1.000  O
  O72      1.0000 0.95510  0.05030  0.60390  Biso   1.000  O
  O73      1.0000 0.54490  0.55030  0.89610  Biso   1.000  O
  O74      1.0000 0.04490  0.05030  0.89610  Biso   1.000  O
  O75      1.0000 0.54490  0.44970  0.39610  Biso   1.000  O
  O76      1.0000 0.04490  0.94970  0.39610  Biso   1.000  O
  O77      1.0000 0.37310  0.35820  0.33360  Biso   1.000  O
  O78      1.0000 0.87310  0.85820  0.33360  Biso   1.000  O
  O79      1.0000 0.37310  0.64180  0.83360  Biso   1.000  O
  O80      1.0000 0.87310  0.14180  0.83360  Biso   1.000  O
  O81      1.0000 0.62690  0.64180  0.66640  Biso   1.000  O
  O82      1.0000 0.12690  0.14180  0.66640  Biso   1.000  O
  O83      1.0000 0.62690  0.35820  0.16640  Biso   1.000  O
  O84      1.0000 0.12690  0.85820  0.16640  Biso   1.000  O
  N1       1.0000 0.02950  0.14860  0.03530  Biso   1.000  N
  N2       1.0000 0.52950  0.64860  0.03530  Biso   1.000  N
  N3       1.0000 0.02950  0.85140  0.53530  Biso   1.000  N
  N4       1.0000 0.52950  0.35140  0.53530  Biso   1.000  N
  N5       1.0000 0.97050  0.85140  0.96470  Biso   1.000  N
  N6       1.0000 0.47050  0.35140  0.96470  Biso   1.000  N
  N7       1.0000 0.97050  0.14860  0.46470  Biso   1.000  N
  N8       1.0000 0.47050  0.64860  0.46470  Biso   1.000  N
  N9       1.0000 0.27030  0.09050  0.08910  Biso   1.000  N
  N10      1.0000 0.77030  0.59050  0.08910  Biso   1.000  N
  N11      1.0000 0.27030  0.90950  0.58910  Biso   1.000  N
  N12      1.0000 0.77030  0.40950  0.58910  Biso   1.000  N
  N13      1.0000 0.72970  0.90950  0.91090  Biso   1.000  N
  N14      1.0000 0.22970  0.40950  0.91090  Biso   1.000  N
  N15      1.0000 0.72970  0.09050  0.41090  Biso   1.000  N
  N16      1.0000 0.22970  0.59050  0.41090  Biso   1.000  N
  N17      1.0000 0.44470  0.10030  0.99990  Biso   1.000  N
  N18      1.0000 0.94470  0.60030  0.99990  Biso   1.000  N
  N19      1.0000 0.44470  0.89970  0.49990  Biso   1.000  N
  N20      1.0000 0.94470  0.39970  0.49990  Biso   1.000  N
  N21      1.0000 0.55530  0.89970  0.00010  Biso   1.000  N
  N22      1.0000 0.05530  0.39970  0.00010  Biso   1.000  N
  N23      1.0000 0.55530  0.10030  0.50010  Biso   1.000  N
  N24      1.0000 0.05530  0.60030  0.50010  Biso   1.000  N
  C1       1.0000 0.91090  0.17850  0.00300  Biso   1.000  C
  C2       1.0000 0.41090  0.67850  0.00300  Biso   1.000  C
  C3       1.0000 0.91090  0.82150  0.50300  Biso   1.000  C
  C4       1.0000 0.41090  0.32150  0.50300  Biso   1.000  C
  C5       1.0000 0.08910  0.82150  0.99700  Biso   1.000  C
  C6       1.0000 0.58910  0.32150  0.99700  Biso   1.000  C
  C7       1.0000 0.08910  0.17850  0.49700  Biso   1.000  C
  C8       1.0000 0.58910  0.67850  0.49700  Biso   1.000  C
  H1       1.0000 0.91480  0.19360  0.95970  Biso   1.000  H
  H2       1.0000 0.41480  0.69360  0.95970  Biso   1.000  H
  H3       1.0000 0.91480  0.80640  0.45970  Biso   1.000  H
  H4       1.0000 0.41480  0.30640  0.45970  Biso   1.000  H
  H5       1.0000 0.08520  0.80640  0.04030  Biso   1.000  H
  H6       1.0000 0.58520  0.30640  0.04030  Biso   1.000  H
  H7       1.0000 0.08520  0.19360  0.54030  Biso   1.000  H
  H8       1.0000 0.58520  0.69360  0.54030  Biso   1.000  H
  C9       1.0000 0.77760  0.18860  0.03120  Biso   1.000  C
  C10      1.0000 0.27760  0.68860  0.03120  Biso   1.000  C
  C11      1.0000 0.77760  0.81140  0.53120  Biso   1.000  C
  C12      1.0000 0.27760  0.31140  0.53120  Biso   1.000  C
  C13      1.0000 0.22240  0.81140  0.96880  Biso   1.000  C
  C14      1.0000 0.72240  0.31140  0.96880  Biso   1.000  C
  C15      1.0000 0.22240  0.18860  0.46880  Biso   1.000  C
  C16      1.0000 0.72240  0.68860  0.46880  Biso   1.000  C
  H9       1.0000 0.69290  0.20860  0.00590  Biso   1.000  H
  H10      1.0000 0.19290  0.70860  0.00590  Biso   1.000  H
  H11      1.0000 0.69290  0.79140  0.50590  Biso   1.000  H
  H12      1.0000 0.19290  0.29140  0.50590  Biso   1.000  H
  H13      1.0000 0.30710  0.79140  0.99410  Biso   1.000  H
  H14      1.0000 0.80710  0.29140  0.99410  Biso   1.000  H
  H15      1.0000 0.30710  0.20860  0.49410  Biso   1.000  H
  H16      1.0000 0.80710  0.70860  0.49410  Biso   1.000  H
  C17      1.0000 0.77310  0.16910  0.09610  Biso   1.000  C
  C18      1.0000 0.27310  0.66910  0.09610  Biso   1.000  C
  C19      1.0000 0.77310  0.83090  0.59610  Biso   1.000  C
  C20      1.0000 0.27310  0.33090  0.59610  Biso   1.000  C
  C21      1.0000 0.22690  0.83090  0.90390  Biso   1.000  C
  C22      1.0000 0.72690  0.33090  0.90390  Biso   1.000  C
  C23      1.0000 0.22690  0.16910  0.40390  Biso   1.000  C
  C24      1.0000 0.72690  0.66910  0.40390  Biso   1.000  C
  H17      1.0000 0.68800  0.17720  0.11650  Biso   1.000  H
  H18      1.0000 0.18800  0.67720  0.11650  Biso   1.000  H
  H19      1.0000 0.68800  0.82280  0.61650  Biso   1.000  H
  H20      1.0000 0.18800  0.32280  0.61650  Biso   1.000  H
  H21      1.0000 0.31200  0.82280  0.88350  Biso   1.000  H
  H22      1.0000 0.81200  0.32280  0.88350  Biso   1.000  H
  H23      1.0000 0.31200  0.17720  0.38350  Biso   1.000  H
  H24      1.0000 0.81200  0.67720  0.38350  Biso   1.000  H
  C25      1.0000 0.89810  0.13680  0.13080  Biso   1.000  C
  C26      1.0000 0.39810  0.63680  0.13080  Biso   1.000  C
  C27      1.0000 0.89810  0.86320  0.63080  Biso   1.000  C
  C28      1.0000 0.39810  0.36320  0.63080  Biso   1.000  C
  C29      1.0000 0.10190  0.86320  0.86920  Biso   1.000  C
  C30      1.0000 0.60190  0.36320  0.86920  Biso   1.000  C
  C31      1.0000 0.10190  0.13680  0.36920  Biso   1.000  C
  C32      1.0000 0.60190  0.63680  0.36920  Biso   1.000  C
  H25      1.0000 0.89910  0.12300  0.17510  Biso   1.000  H
  H26      1.0000 0.39910  0.62300  0.17510  Biso   1.000  H
  H27      1.0000 0.89910  0.87700  0.67510  Biso   1.000  H
  H28      1.0000 0.39910  0.37700  0.67510  Biso   1.000  H
  H29      1.0000 0.10090  0.87700  0.82490  Biso   1.000  H
  H30      1.0000 0.60090  0.37700  0.82490  Biso   1.000  H
  H31      1.0000 0.10090  0.12300  0.32490  Biso   1.000  H
  H32      1.0000 0.60090  0.62300  0.32490  Biso   1.000  H
  C33      1.0000 0.02060  0.12570  0.09790  Biso   1.000  C
  C34      1.0000 0.52060  0.62570  0.09790  Biso   1.000  C
  C35      1.0000 0.02060  0.87430  0.59790  Biso   1.000  C
  C36      1.0000 0.52060  0.37430  0.59790  Biso   1.000  C
  C37      1.0000 0.97940  0.87430  0.90210  Biso   1.000  C
  C38      1.0000 0.47940  0.37430  0.90210  Biso   1.000  C
  C39      1.0000 0.97940  0.12570  0.40210  Biso   1.000  C
  C40      1.0000 0.47940  0.62570  0.40210  Biso   1.000  C
  C41      1.0000 0.15510  0.08770  0.12650  Biso   1.000  C
  C42      1.0000 0.65510  0.58770  0.12650  Biso   1.000  C
  C43      1.0000 0.15510  0.91230  0.62650  Biso   1.000  C
  C44      1.0000 0.65510  0.41230  0.62650  Biso   1.000  C
  C45      1.0000 0.84490  0.91230  0.87350  Biso   1.000  C
  C46      1.0000 0.34490  0.41230  0.87350  Biso   1.000  C
  C47      1.0000 0.84490  0.08770  0.37350  Biso   1.000  C
  C48      1.0000 0.34490  0.58770  0.37350  Biso   1.000  C
  C49      1.0000 0.16670  0.04860  0.18020  Biso   1.000  C
  C50      1.0000 0.66670  0.54860  0.18020  Biso   1.000  C
  C51      1.0000 0.16670  0.95140  0.68020  Biso   1.000  C
  C52      1.0000 0.66670  0.45140  0.68020  Biso   1.000  C
  C53      1.0000 0.83330  0.95140  0.81980  Biso   1.000  C
  C54      1.0000 0.33330  0.45140  0.81980  Biso   1.000  C
  C55      1.0000 0.83330  0.04860  0.31980  Biso   1.000  C
  C56      1.0000 0.33330  0.54860  0.31980  Biso   1.000  C
  H33      1.0000 0.08750  0.04600  0.20550  Biso   1.000  H
  H34      1.0000 0.58750  0.54600  0.20550  Biso   1.000  H
  H35      1.0000 0.08750  0.95400  0.70550  Biso   1.000  H
  H36      1.0000 0.58750  0.45400  0.70550  Biso   1.000  H
  H37      1.0000 0.91250  0.95400  0.79450  Biso   1.000  H
  H38      1.0000 0.41250  0.45400  0.79450  Biso   1.000  H
  H39      1.0000 0.91250  0.04600  0.29450  Biso   1.000  H
  H40      1.0000 0.41250  0.54600  0.29450  Biso   1.000  H
  C57      1.0000 0.29700  0.01360  0.19570  Biso   1.000  C
  C58      1.0000 0.79700  0.51360  0.19570  Biso   1.000  C
  C59      1.0000 0.29700  0.98640  0.69570  Biso   1.000  C
  C60      1.0000 0.79700  0.48640  0.69570  Biso   1.000  C
  C61      1.0000 0.70300  0.98640  0.80430  Biso   1.000  C
  C62      1.0000 0.20300  0.48640  0.80430  Biso   1.000  C
  C63      1.0000 0.70300  0.01360  0.30430  Biso   1.000  C
  C64      1.0000 0.20300  0.51360  0.30430  Biso   1.000  C
  H41      1.0000 0.30600  0.98720  0.23150  Biso   1.000  H
  H42      1.0000 0.80600  0.48720  0.23150  Biso   1.000  H
  H43      1.0000 0.30600  0.01280  0.73150  Biso   1.000  H
  H44      1.0000 0.80600  0.51280  0.73150  Biso   1.000  H
  H45      1.0000 0.69400  0.01280  0.76850  Biso   1.000  H
  H46      1.0000 0.19400  0.51280  0.76850  Biso   1.000  H
  H47      1.0000 0.69400  0.98720  0.26850  Biso   1.000  H
  H48      1.0000 0.19400  0.48720  0.26850  Biso   1.000  H
  C65      1.0000 0.41420  0.01820  0.15760  Biso   1.000  C
  C66      1.0000 0.91420  0.51820  0.15760  Biso   1.000  C
  C67      1.0000 0.41420  0.98180  0.65760  Biso   1.000  C
  C68      1.0000 0.91420  0.48180  0.65760  Biso   1.000  C
  C69      1.0000 0.58580  0.98180  0.84240  Biso   1.000  C
  C70      1.0000 0.08580  0.48180  0.84240  Biso   1.000  C
  C71      1.0000 0.58580  0.01820  0.34240  Biso   1.000  C
  C72      1.0000 0.08580  0.51820  0.34240  Biso   1.000  C
  H49      1.0000 0.50360  0.99560  0.16810  Biso   1.000  H
  H50      1.0000 0.00360  0.49560  0.16810  Biso   1.000  H
  H51      1.0000 0.50360  0.00440  0.66810  Biso   1.000  H
  H52      1.0000 0.00360  0.50440  0.66810  Biso   1.000  H
  H53      1.0000 0.49640  0.00440  0.83190  Biso   1.000  H
  H54      1.0000 0.99640  0.50440  0.83190  Biso   1.000  H
  H55      1.0000 0.49640  0.99560  0.33190  Biso   1.000  H
  H56      1.0000 0.99640  0.49560  0.33190  Biso   1.000  H
  C73      1.0000 0.39610  0.05710  0.10350  Biso   1.000  C
  C74      1.0000 0.89610  0.55710  0.10350  Biso   1.000  C
  C75      1.0000 0.39610  0.94290  0.60350  Biso   1.000  C
  C76      1.0000 0.89610  0.44290  0.60350  Biso   1.000  C
  C77      1.0000 0.60390  0.94290  0.89650  Biso   1.000  C
  C78      1.0000 0.10390  0.44290  0.89650  Biso   1.000  C
  C79      1.0000 0.60390  0.05710  0.39650  Biso   1.000  C
  C80      1.0000 0.10390  0.55710  0.39650  Biso   1.000  C
  C81      1.0000 0.50070  0.06430  0.05310  Biso   1.000  C
  C82      1.0000 0.00070  0.56430  0.05310  Biso   1.000  C
  C83      1.0000 0.50070  0.93570  0.55310  Biso   1.000  C
  C84      1.0000 0.00070  0.43570  0.55310  Biso   1.000  C
  C85      1.0000 0.49930  0.93570  0.94690  Biso   1.000  C
  C86      1.0000 0.99930  0.43570  0.94690  Biso   1.000  C
  C87      1.0000 0.49930  0.06430  0.44690  Biso   1.000  C
  C88      1.0000 0.99930  0.56430  0.44690  Biso   1.000  C
  C89      1.0000 0.64430  0.03620  0.05900  Biso   1.000  C
  C90      1.0000 0.14430  0.53620  0.05900  Biso   1.000  C
  C91      1.0000 0.64430  0.96380  0.55900  Biso   1.000  C
  C92      1.0000 0.14430  0.46380  0.55900  Biso   1.000  C
  C93      1.0000 0.35570  0.96380  0.94100  Biso   1.000  C
  C94      1.0000 0.85570  0.46380  0.94100  Biso   1.000  C
  C95      1.0000 0.35570  0.03620  0.44100  Biso   1.000  C
  C96      1.0000 0.85570  0.53620  0.44100  Biso   1.000  C
  H57      1.0000 0.68250  0.01260  0.09650  Biso   1.000  H
  H58      1.0000 0.18250  0.51260  0.09650  Biso   1.000  H
  H59      1.0000 0.68250  0.98740  0.59650  Biso   1.000  H
  H60      1.0000 0.18250  0.48740  0.59650  Biso   1.000  H
  H61      1.0000 0.31750  0.98740  0.90350  Biso   1.000  H
  H62      1.0000 0.81750  0.48740  0.90350  Biso   1.000  H
  H63      1.0000 0.31750  0.01260  0.40350  Biso   1.000  H
  H64      1.0000 0.81750  0.51260  0.40350  Biso   1.000  H
  C97      1.0000 0.72870  0.04490  0.00620  Biso   1.000  C
  C98      1.0000 0.22870  0.54490  0.00620  Biso   1.000  C
  C99      1.0000 0.72870  0.95510  0.50620  Biso   1.000  C
  C100     1.0000 0.22870  0.45510  0.50620  Biso   1.000  C
  C101     1.0000 0.27130  0.95510  0.99380  Biso   1.000  C
  C102     1.0000 0.77130  0.45510  0.99380  Biso   1.000  C
  C103     1.0000 0.27130  0.04490  0.49380  Biso   1.000  C
  C104     1.0000 0.77130  0.54490  0.49380  Biso   1.000  C
  H65      1.0000 0.82350  0.02610  0.00780  Biso   1.000  H
  H66      1.0000 0.32350  0.52610  0.00780  Biso   1.000  H
  H67      1.0000 0.82350  0.97390  0.50780  Biso   1.000  H
  H68      1.0000 0.32350  0.47390  0.50780  Biso   1.000  H
  H69      1.0000 0.17650  0.97390  0.99220  Biso   1.000  H
  H70      1.0000 0.67650  0.47390  0.99220  Biso   1.000  H
  H71      1.0000 0.17650  0.02610  0.49220  Biso   1.000  H
  H72      1.0000 0.67650  0.52610  0.49220  Biso   1.000  H
  C105     1.0000 0.67170  0.08100  0.95220  Biso   1.000  C
  C106     1.0000 0.17170  0.58100  0.95220  Biso   1.000  C
  C107     1.0000 0.67170  0.91900  0.45220  Biso   1.000  C
  C108     1.0000 0.17170  0.41900  0.45220  Biso   1.000  C
  C109     1.0000 0.32830  0.91900  0.04780  Biso   1.000  C
  C110     1.0000 0.82830  0.41900  0.04780  Biso   1.000  C
  C111     1.0000 0.32830  0.08100  0.54780  Biso   1.000  C
  C112     1.0000 0.82830  0.58100  0.54780  Biso   1.000  C
  H73      1.0000 0.72680  0.08670  0.91690  Biso   1.000  H
  H74      1.0000 0.22680  0.58670  0.91690  Biso   1.000  H
  H75      1.0000 0.72680  0.91330  0.41690  Biso   1.000  H
  H76      1.0000 0.22680  0.41330  0.41690  Biso   1.000  H
  H77      1.0000 0.27320  0.91330  0.08310  Biso   1.000  H
  H78      1.0000 0.77320  0.41330  0.08310  Biso   1.000  H
  H79      1.0000 0.27320  0.08670  0.58310  Biso   1.000  H
  H80      1.0000 0.77320  0.58670  0.58310  Biso   1.000  H
  C113     1.0000 0.52990  0.10890  0.95130  Biso   1.000  C
  C114     1.0000 0.02990  0.60890  0.95130  Biso   1.000  C
  C115     1.0000 0.52990  0.89110  0.45130  Biso   1.000  C
  C116     1.0000 0.02990  0.39110  0.45130  Biso   1.000  C
  C117     1.0000 0.47010  0.89110  0.04870  Biso   1.000  C
  C118     1.0000 0.97010  0.39110  0.04870  Biso   1.000  C
  C119     1.0000 0.47010  0.10890  0.54870  Biso   1.000  C
  C120     1.0000 0.97010  0.60890  0.54870  Biso   1.000  C
  H81      1.0000 0.49310  0.13440  0.91560  Biso   1.000  H
  H82      1.0000 0.99310  0.63440  0.91560  Biso   1.000  H
  H83      1.0000 0.49310  0.86560  0.41560  Biso   1.000  H
  H84      1.0000 0.99310  0.36560  0.41560  Biso   1.000  H
  H85      1.0000 0.50690  0.86560  0.08440  Biso   1.000  H
  H86      1.0000 0.00690  0.36560  0.08440  Biso   1.000  H
  H87      1.0000 0.50690  0.13440  0.58440  Biso   1.000  H
  H88      1.0000 0.00690  0.63440  0.58440  Biso   1.000  H
  C121     1.0000 0.13390  0.28180  0.28920  Biso   1.000  C
  C122     1.0000 0.63390  0.78180  0.28920  Biso   1.000  C
  C123     1.0000 0.13390  0.71820  0.78920  Biso   1.000  C
  C124     1.0000 0.63390  0.21820  0.78920  Biso   1.000  C
  C125     1.0000 0.86610  0.71820  0.71080  Biso   1.000  C
  C126     1.0000 0.36610  0.21820  0.71080  Biso   1.000  C
  C127     1.0000 0.86610  0.28180  0.21080  Biso   1.000  C
  C128     1.0000 0.36610  0.78180  0.21080  Biso   1.000  C
  H89      1.0000 0.12210  0.24370  0.26920  Biso   1.000  H
  H90      1.0000 0.62210  0.74370  0.26920  Biso   1.000  H
  H91      1.0000 0.12210  0.75630  0.76920  Biso   1.000  H
  H92      1.0000 0.62210  0.25630  0.76920  Biso   1.000  H
  H93      1.0000 0.87790  0.75630  0.73080  Biso   1.000  H
  H94      1.0000 0.37790  0.25630  0.73080  Biso   1.000  H
  H95      1.0000 0.87790  0.24370  0.23080  Biso   1.000  H
  H96      1.0000 0.37790  0.74370  0.23080  Biso   1.000  H
  H97      1.0000 0.12110  0.27850  0.33680  Biso   1.000  H
  H98      1.0000 0.62110  0.77850  0.33680  Biso   1.000  H
  H99      1.0000 0.12110  0.72150  0.83680  Biso   1.000  H
  H100     1.0000 0.62110  0.22150  0.83680  Biso   1.000  H
  H101     1.0000 0.87890  0.72150  0.66320  Biso   1.000  H
  H102     1.0000 0.37890  0.22150  0.66320  Biso   1.000  H
  H103     1.0000 0.87890  0.27850  0.16320  Biso   1.000  H
  H104     1.0000 0.37890  0.77850  0.16320  Biso   1.000  H
  C129     1.0000 0.00000  0.31950  0.25000  Biso   1.000  C
  C130     1.0000 0.50000  0.81950  0.25000  Biso   1.000  C
  C131     1.0000 0.00000  0.68050  0.75000  Biso   1.000  C
  C132     1.0000 0.50000  0.18050  0.75000  Biso   1.000  C
  H105     1.0000 0.96060  0.34380  0.28250  Biso   1.000  H
  H106     1.0000 0.46060  0.84380  0.28250  Biso   1.000  H
  H107     1.0000 0.96060  0.65620  0.78250  Biso   1.000  H
  H108     1.0000 0.46060  0.15620  0.78250  Biso   1.000  H
  H109     1.0000 0.03940  0.65620  0.71750  Biso   1.000  H
  H110     1.0000 0.53940  0.15620  0.71750  Biso   1.000  H
  H111     1.0000 0.03940  0.34380  0.21750  Biso   1.000  H
  H112     1.0000 0.53940  0.84380  0.21750  Biso   1.000  H
