data_image0
_cell_length_a       7.3602
_cell_length_b       7.6246
_cell_length_c       10.6886
_cell_angle_alpha    97.119
_cell_angle_beta     102.357
_cell_angle_gamma    117.835

_symmetry_space_group_name_H-M    "P 1"
_symmetry_int_tables_number       1

loop_
  _symmetry_equiv_pos_as_xyz
  'x, y, z'

loop_
  _atom_site_label
  _atom_site_occupancy
  _atom_site_fract_x
  _atom_site_fract_y
  _atom_site_fract_z
  _atom_site_thermal_displace_type
  _atom_site_B_iso_or_equiv
  _atom_site_type_symbol
  Mn1      1.0000 0.00000  0.50000  0.00000  Biso   1.000  Mn
  Cu1      1.0000 0.50000  0.50000  0.50000  Biso   1.000  Cu
  N1       1.0000 0.23780  0.65860  0.20125  Biso   1.000  N
  N2       1.0000 0.76220  0.34140  0.79875  Biso   1.000  N
  N3       1.0000 0.54990  0.80880  0.39966  Biso   1.000  N
  N4       1.0000 0.45010  0.19120  0.60034  Biso   1.000  N
  N5       1.0000 0.86950  0.15540  0.47200  Biso   1.000  N
  N6       1.0000 0.13050  0.84460  0.52800  Biso   1.000  N
  N7       1.0000 0.83630  0.21610  0.06938  Biso   1.000  N
  N8       1.0000 0.16370  0.78390  0.93062  Biso   1.000  N
  N9       1.0000 0.71440  0.88770  0.12490  Biso   1.000  N
  N10      1.0000 0.28560  0.11230  0.87510  Biso   1.000  N
  N11      1.0000 0.80230  0.62770  0.05590  Biso   1.000  N
  N12      1.0000 0.19770  0.37230  0.94410  Biso   1.000  N
  N13      1.0000 0.24350  0.29290  0.34280  Biso   1.000  N
  N14      1.0000 0.75650  0.70710  0.65720  Biso   1.000  N
  N15      1.0000 0.67550  0.44620  0.39671  Biso   1.000  N
  N16      1.0000 0.32450  0.55380  0.60329  Biso   1.000  N
  C1       1.0000 0.39000  0.74100  0.29120  Biso   1.000  C
  C2       1.0000 0.61000  0.25900  0.70880  Biso   1.000  C
  C3       1.0000 0.71670  0.99510  0.43196  Biso   1.000  C
  C4       1.0000 0.28330  0.00490  0.56804  Biso   1.000  C
  C5       1.0000 0.78210  0.05860  0.09027  Biso   1.000  C
  C6       1.0000 0.21790  0.94140  0.90973  Biso   1.000  C
  C7       1.0000 0.76540  0.75420  0.08469  Biso   1.000  C
  C8       1.0000 0.23460  0.24580  0.91531  Biso   1.000  C
  C9       1.0000 0.31500  0.17980  0.26367  Biso   1.000  C
  C10      1.0000 0.68500  0.82020  0.73633  Biso   1.000  C
  C11      1.0000 0.53460  0.33190  0.25880  Biso   1.000  C
  C12      1.0000 0.46540  0.66810  0.74120  Biso   1.000  C
  H1       1.0000 0.19300  0.34300  0.29300  Biso   1.000  H
  H2       1.0000 0.80700  0.65700  0.70700  Biso   1.000  H
  H3       1.0000 0.14300  0.21400  0.37000  Biso   1.000  H
  H4       1.0000 0.85700  0.78600  0.63000  Biso   1.000  H
  H5       1.0000 0.72400  0.37400  0.43600  Biso   1.000  H
  H6       1.0000 0.27600  0.62600  0.56400  Biso   1.000  H
  H7       1.0000 0.78000  0.55600  0.39700  Biso   1.000  H
  H8       1.0000 0.22000  0.44400  0.60300  Biso   1.000  H
  H9       1.0000 0.20900  0.10600  0.17300  Biso   1.000  H
  H10      1.0000 0.79100  0.89400  0.82700  Biso   1.000  H
  H11      1.0000 0.32600  0.08300  0.31400  Biso   1.000  H
  H12      1.0000 0.67400  0.91700  0.68600  Biso   1.000  H
  H13      1.0000 0.52100  0.42800  0.20500  Biso   1.000  H
  H14      1.0000 0.47900  0.57200  0.79500  Biso   1.000  H
  H15      1.0000 0.59000  0.26100  0.21600  Biso   1.000  H
  H16      1.0000 0.41000  0.73900  0.78400  Biso   1.000  H
