data_image0
_cell_length_a       17.4446
_cell_length_b       9.4271
_cell_length_c       14.7289
_cell_angle_alpha    90
_cell_angle_beta     116.974
_cell_angle_gamma    90

_symmetry_space_group_name_H-M    "P 1"
_symmetry_int_tables_number       1

loop_
  _symmetry_equiv_pos_as_xyz
  'x, y, z'

loop_
  _atom_site_label
  _atom_site_occupancy
  _atom_site_fract_x
  _atom_site_fract_y
  _atom_site_fract_z
  _atom_site_thermal_displace_type
  _atom_site_B_iso_or_equiv
  _atom_site_type_symbol
  Cu1      1.0000 0.75000  0.75000  0.50000  Biso   1.000  Cu
  Cu2      1.0000 0.25000  0.25000  0.50000  Biso   1.000  Cu
  Cu3      1.0000 0.25000  0.75000  0.00000  Biso   1.000  Cu
  Cu4      1.0000 0.75000  0.25000  0.00000  Biso   1.000  Cu
  Mn1      1.0000 0.50000  0.10837  0.25000  Biso   1.000  Mn
  Mn2      1.0000 0.00000  0.60837  0.25000  Biso   1.000  Mn
  Mn3      1.0000 0.50000  0.89163  0.75000  Biso   1.000  Mn
  Mn4      1.0000 0.00000  0.39163  0.75000  Biso   1.000  Mn
  N1       1.0000 0.58723  0.26533  0.24038  Biso   1.000  N
  N2       1.0000 0.08723  0.76533  0.24038  Biso   1.000  N
  N3       1.0000 0.41277  0.26533  0.25962  Biso   1.000  N
  N4       1.0000 0.91277  0.76533  0.25962  Biso   1.000  N
  N5       1.0000 0.41277  0.73467  0.75962  Biso   1.000  N
  N6       1.0000 0.91277  0.23467  0.75962  Biso   1.000  N
  N7       1.0000 0.58723  0.73467  0.74038  Biso   1.000  N
  N8       1.0000 0.08723  0.23467  0.74038  Biso   1.000  N
  N9       1.0000 0.68815  0.43810  0.23399  Biso   1.000  N
  N10      1.0000 0.18815  0.93810  0.23399  Biso   1.000  N
  N11      1.0000 0.31185  0.43810  0.26601  Biso   1.000  N
  N12      1.0000 0.81185  0.93810  0.26601  Biso   1.000  N
  N13      1.0000 0.31185  0.56190  0.76601  Biso   1.000  N
  N14      1.0000 0.81185  0.06190  0.76601  Biso   1.000  N
  N15      1.0000 0.68815  0.56190  0.73399  Biso   1.000  N
  N16      1.0000 0.18815  0.06190  0.73399  Biso   1.000  N
  N17      1.0000 0.76217  0.62729  0.35519  Biso   1.000  N
  N18      1.0000 0.26217  0.12729  0.35519  Biso   1.000  N
  N19      1.0000 0.23783  0.62729  0.14481  Biso   1.000  N
  N20      1.0000 0.73783  0.12729  0.14481  Biso   1.000  N
  N21      1.0000 0.23783  0.37271  0.64481  Biso   1.000  N
  N22      1.0000 0.73783  0.87271  0.64481  Biso   1.000  N
  N23      1.0000 0.76217  0.37271  0.85519  Biso   1.000  N
  N24      1.0000 0.26217  0.87271  0.85519  Biso   1.000  N
  N25      1.0000 0.57741  0.93368  0.22403  Biso   1.000  N
  N26      1.0000 0.07741  0.43368  0.22403  Biso   1.000  N
  N27      1.0000 0.42259  0.93368  0.27597  Biso   1.000  N
  N28      1.0000 0.92259  0.43368  0.27597  Biso   1.000  N
  N29      1.0000 0.42259  0.06632  0.77597  Biso   1.000  N
  N30      1.0000 0.92259  0.56632  0.77597  Biso   1.000  N
  N31      1.0000 0.57741  0.06632  0.72403  Biso   1.000  N
  N32      1.0000 0.07741  0.56632  0.72403  Biso   1.000  N
  N33      1.0000 0.59234  0.81917  0.08521  Biso   1.000  N
  N34      1.0000 0.09234  0.31917  0.08521  Biso   1.000  N
  N35      1.0000 0.40766  0.81917  0.41479  Biso   1.000  N
  N36      1.0000 0.90766  0.31917  0.41479  Biso   1.000  N
  N37      1.0000 0.40766  0.18083  0.91479  Biso   1.000  N
  N38      1.0000 0.90766  0.68083  0.91479  Biso   1.000  N
  N39      1.0000 0.59234  0.18083  0.58521  Biso   1.000  N
  N40      1.0000 0.09234  0.68083  0.58521  Biso   1.000  N
  N41      1.0000 0.57980  0.90196  0.92243  Biso   1.000  N
  N42      1.0000 0.07980  0.40196  0.92243  Biso   1.000  N
  N43      1.0000 0.42020  0.90196  0.57757  Biso   1.000  N
  N44      1.0000 0.92020  0.40196  0.57757  Biso   1.000  N
  N45      1.0000 0.42020  0.09804  0.07757  Biso   1.000  N
  N46      1.0000 0.92020  0.59804  0.07757  Biso   1.000  N
  N47      1.0000 0.57980  0.09804  0.42243  Biso   1.000  N
  N48      1.0000 0.07980  0.59804  0.42243  Biso   1.000  N
  N49      1.0000 0.74841  0.93684  0.43148  Biso   1.000  N
  N50      1.0000 0.24841  0.43684  0.43148  Biso   1.000  N
  N51      1.0000 0.25159  0.93684  0.06852  Biso   1.000  N
  N52      1.0000 0.75159  0.43684  0.06852  Biso   1.000  N
  N53      1.0000 0.25159  0.06316  0.56852  Biso   1.000  N
  N54      1.0000 0.75159  0.56316  0.56852  Biso   1.000  N
  N55      1.0000 0.74841  0.06316  0.93148  Biso   1.000  N
  N56      1.0000 0.24841  0.56316  0.93148  Biso   1.000  N
  N57      1.0000 0.88157  0.75318  0.56894  Biso   1.000  N
  N58      1.0000 0.38157  0.25318  0.56894  Biso   1.000  N
  N59      1.0000 0.11843  0.75318  0.93106  Biso   1.000  N
  N60      1.0000 0.61843  0.25318  0.93106  Biso   1.000  N
  N61      1.0000 0.11843  0.24682  0.43106  Biso   1.000  N
  N62      1.0000 0.61843  0.74682  0.43106  Biso   1.000  N
  N63      1.0000 0.88157  0.24682  0.06894  Biso   1.000  N
  N64      1.0000 0.38157  0.74682  0.06894  Biso   1.000  N
  C1       1.0000 0.63583  0.34810  0.24240  Biso   1.000  C
  C2       1.0000 0.13583  0.84810  0.24240  Biso   1.000  C
  C3       1.0000 0.36417  0.34810  0.25760  Biso   1.000  C
  C4       1.0000 0.86417  0.84810  0.25760  Biso   1.000  C
  C5       1.0000 0.36417  0.65190  0.75760  Biso   1.000  C
  C6       1.0000 0.86417  0.15190  0.75760  Biso   1.000  C
  C7       1.0000 0.63583  0.65190  0.74240  Biso   1.000  C
  C8       1.0000 0.13583  0.15190  0.74240  Biso   1.000  C
  C9       1.0000 0.72596  0.53715  0.30126  Biso   1.000  C
  C10      1.0000 0.22596  0.03715  0.30126  Biso   1.000  C
  C11      1.0000 0.27404  0.53715  0.19874  Biso   1.000  C
  C12      1.0000 0.77404  0.03715  0.19874  Biso   1.000  C
  C13      1.0000 0.27404  0.46285  0.69874  Biso   1.000  C
  C14      1.0000 0.77404  0.96285  0.69874  Biso   1.000  C
  C15      1.0000 0.72596  0.46285  0.80126  Biso   1.000  C
  C16      1.0000 0.22596  0.96285  0.80126  Biso   1.000  C
  C17      1.0000 0.58459  0.88727  0.15621  Biso   1.000  C
  C18      1.0000 0.08459  0.38727  0.15621  Biso   1.000  C
  C19      1.0000 0.41541  0.88727  0.34379  Biso   1.000  C
  C20      1.0000 0.91541  0.38727  0.34379  Biso   1.000  C
  C21      1.0000 0.41541  0.11273  0.84379  Biso   1.000  C
  C22      1.0000 0.91541  0.61273  0.84379  Biso   1.000  C
  C23      1.0000 0.58459  0.11273  0.65621  Biso   1.000  C
  C24      1.0000 0.08459  0.61273  0.65621  Biso   1.000  C
  C25      1.0000 0.58496  0.87170  0.00058  Biso   1.000  C
  C26      1.0000 0.08496  0.37170  0.00058  Biso   1.000  C
  C27      1.0000 0.41504  0.87170  0.49942  Biso   1.000  C
  C28      1.0000 0.91504  0.37170  0.49942  Biso   1.000  C
  C29      1.0000 0.41504  0.12830  0.99942  Biso   1.000  C
  C30      1.0000 0.91504  0.62830  0.99942  Biso   1.000  C
  C31      1.0000 0.58496  0.12830  0.50058  Biso   1.000  C
  C32      1.0000 0.08496  0.62830  0.50058  Biso   1.000  C
  C33      1.0000 0.81062  0.05064  0.48688  Biso   1.000  C
  C34      1.0000 0.31062  0.55064  0.48688  Biso   1.000  C
  C35      1.0000 0.18938  0.05064  0.01312  Biso   1.000  C
  C36      1.0000 0.68938  0.55064  0.01312  Biso   1.000  C
  C37      1.0000 0.18938  0.94936  0.51312  Biso   1.000  C
  C38      1.0000 0.68938  0.44936  0.51312  Biso   1.000  C
  C39      1.0000 0.81062  0.94936  0.98688  Biso   1.000  C
  C40      1.0000 0.31062  0.44936  0.98688  Biso   1.000  C
  C41      1.0000 0.90295  0.00100  0.52928  Biso   1.000  C
  C42      1.0000 0.40295  0.50100  0.52928  Biso   1.000  C
  C43      1.0000 0.09705  0.00100  0.97072  Biso   1.000  C
  C44      1.0000 0.59705  0.50100  0.97072  Biso   1.000  C
  C45      1.0000 0.09705  0.99900  0.47072  Biso   1.000  C
  C46      1.0000 0.59705  0.49900  0.47072  Biso   1.000  C
  C47      1.0000 0.90295  0.99900  0.02928  Biso   1.000  C
  C48      1.0000 0.40295  0.49900  0.02928  Biso   1.000  C
  C49      1.0000 0.92858  0.88690  0.60920  Biso   1.000  C
  C50      1.0000 0.42858  0.38690  0.60920  Biso   1.000  C
  C51      1.0000 0.07142  0.88690  0.89080  Biso   1.000  C
  C52      1.0000 0.57142  0.38690  0.89080  Biso   1.000  C
  C53      1.0000 0.07142  0.11310  0.39080  Biso   1.000  C
  C54      1.0000 0.57142  0.61310  0.39080  Biso   1.000  C
  C55      1.0000 0.92858  0.11310  0.10920  Biso   1.000  C
  C56      1.0000 0.42858  0.61310  0.10920  Biso   1.000  C
  H1       1.0000 0.75670  0.90700  0.38000  Biso   1.000  H
  H2       1.0000 0.25670  0.40700  0.38000  Biso   1.000  H
  H3       1.0000 0.24330  0.90700  0.12000  Biso   1.000  H
  H4       1.0000 0.74330  0.40700  0.12000  Biso   1.000  H
  H5       1.0000 0.24330  0.09300  0.62000  Biso   1.000  H
  H6       1.0000 0.74330  0.59300  0.62000  Biso   1.000  H
  H7       1.0000 0.75670  0.09300  0.88000  Biso   1.000  H
  H8       1.0000 0.25670  0.59300  0.88000  Biso   1.000  H
  H9       1.0000 0.69670  0.97500  0.40950  Biso   1.000  H
  H10      1.0000 0.19670  0.47500  0.40950  Biso   1.000  H
  H11      1.0000 0.30330  0.97500  0.09050  Biso   1.000  H
  H12      1.0000 0.80330  0.47500  0.09050  Biso   1.000  H
  H13      1.0000 0.30330  0.02500  0.59050  Biso   1.000  H
  H14      1.0000 0.80330  0.52500  0.59050  Biso   1.000  H
  H15      1.0000 0.69670  0.02500  0.90950  Biso   1.000  H
  H16      1.0000 0.19670  0.52500  0.90950  Biso   1.000  H
  H17      1.0000 0.80310  0.12900  0.44110  Biso   1.000  H
  H18      1.0000 0.30310  0.62900  0.44110  Biso   1.000  H
  H19      1.0000 0.19690  0.12900  0.05890  Biso   1.000  H
  H20      1.0000 0.69690  0.62900  0.05890  Biso   1.000  H
  H21      1.0000 0.19690  0.87100  0.55890  Biso   1.000  H
  H22      1.0000 0.69690  0.37100  0.55890  Biso   1.000  H
  H23      1.0000 0.80310  0.87100  0.94110  Biso   1.000  H
  H24      1.0000 0.30310  0.37100  0.94110  Biso   1.000  H
  H25      1.0000 0.79600  0.08100  0.54260  Biso   1.000  H
  H26      1.0000 0.29600  0.58100  0.54260  Biso   1.000  H
  H27      1.0000 0.20400  0.08100  0.95740  Biso   1.000  H
  H28      1.0000 0.70400  0.58100  0.95740  Biso   1.000  H
  H29      1.0000 0.20400  0.91900  0.45740  Biso   1.000  H
  H30      1.0000 0.70400  0.41900  0.45740  Biso   1.000  H
  H31      1.0000 0.79600  0.91900  0.04260  Biso   1.000  H
  H32      1.0000 0.29600  0.41900  0.04260  Biso   1.000  H
  H33      1.0000 0.91140  0.97000  0.47800  Biso   1.000  H
  H34      1.0000 0.41140  0.47000  0.47800  Biso   1.000  H
  H35      1.0000 0.08860  0.97000  0.02200  Biso   1.000  H
  H36      1.0000 0.58860  0.47000  0.02200  Biso   1.000  H
  H37      1.0000 0.08860  0.03000  0.52200  Biso   1.000  H
  H38      1.0000 0.58860  0.53000  0.52200  Biso   1.000  H
  H39      1.0000 0.91140  0.03000  0.97800  Biso   1.000  H
  H40      1.0000 0.41140  0.53000  0.97800  Biso   1.000  H
  H41      1.0000 0.94070  0.08500  0.55730  Biso   1.000  H
  H42      1.0000 0.44070  0.58500  0.55730  Biso   1.000  H
  H43      1.0000 0.05930  0.08500  0.94270  Biso   1.000  H
  H44      1.0000 0.55930  0.58500  0.94270  Biso   1.000  H
  H45      1.0000 0.05930  0.91500  0.44270  Biso   1.000  H
  H46      1.0000 0.55930  0.41500  0.44270  Biso   1.000  H
  H47      1.0000 0.94070  0.91500  0.05730  Biso   1.000  H
  H48      1.0000 0.44070  0.41500  0.05730  Biso   1.000  H
  H49      1.0000 0.99100  0.86900  0.63670  Biso   1.000  H
  H50      1.0000 0.49100  0.36900  0.63670  Biso   1.000  H
  H51      1.0000 0.00900  0.86900  0.86330  Biso   1.000  H
  H52      1.0000 0.50900  0.36900  0.86330  Biso   1.000  H
  H53      1.0000 0.00900  0.13100  0.36330  Biso   1.000  H
  H54      1.0000 0.50900  0.63100  0.36330  Biso   1.000  H
  H55      1.0000 0.99100  0.13100  0.13670  Biso   1.000  H
  H56      1.0000 0.49100  0.63100  0.13670  Biso   1.000  H
  H57      1.0000 0.91520  0.91900  0.66180  Biso   1.000  H
  H58      1.0000 0.41520  0.41900  0.66180  Biso   1.000  H
  H59      1.0000 0.08480  0.91900  0.83820  Biso   1.000  H
  H60      1.0000 0.58480  0.41900  0.83820  Biso   1.000  H
  H61      1.0000 0.08480  0.08100  0.33820  Biso   1.000  H
  H62      1.0000 0.58480  0.58100  0.33820  Biso   1.000  H
  H63      1.0000 0.91520  0.08100  0.16180  Biso   1.000  H
  H64      1.0000 0.41520  0.58100  0.16180  Biso   1.000  H
  H65      1.0000 0.88980  0.72600  0.52100  Biso   1.000  H
  H66      1.0000 0.38980  0.22600  0.52100  Biso   1.000  H
  H67      1.0000 0.11020  0.72600  0.97900  Biso   1.000  H
  H68      1.0000 0.61020  0.22600  0.97900  Biso   1.000  H
  H69      1.0000 0.11020  0.27400  0.47900  Biso   1.000  H
  H70      1.0000 0.61020  0.77400  0.47900  Biso   1.000  H
  H71      1.0000 0.88980  0.27400  0.02100  Biso   1.000  H
  H72      1.0000 0.38980  0.77400  0.02100  Biso   1.000  H
  H73      1.0000 0.89960  0.69200  0.61100  Biso   1.000  H
  H74      1.0000 0.39960  0.19200  0.61100  Biso   1.000  H
  H75      1.0000 0.10040  0.69200  0.88900  Biso   1.000  H
  H76      1.0000 0.60040  0.19200  0.88900  Biso   1.000  H
  H77      1.0000 0.10040  0.30800  0.38900  Biso   1.000  H
  H78      1.0000 0.60040  0.80800  0.38900  Biso   1.000  H
  H79      1.0000 0.89960  0.30800  0.11100  Biso   1.000  H
  H80      1.0000 0.39960  0.80800  0.11100  Biso   1.000  H
