data_image0
_cell_length_a       15.4718
_cell_length_b       13.2535
_cell_length_c       19.2782
_cell_angle_alpha    90
_cell_angle_beta     93.773
_cell_angle_gamma    90

_symmetry_space_group_name_H-M    "P 1"
_symmetry_int_tables_number       1

loop_
  _symmetry_equiv_pos_as_xyz
  'x, y, z'

loop_
  _atom_site_label
  _atom_site_occupancy
  _atom_site_fract_x
  _atom_site_fract_y
  _atom_site_fract_z
  _atom_site_thermal_displace_type
  _atom_site_B_iso_or_equiv
  _atom_site_type_symbol
  Cu1      1.0000 0.25000  0.75000  0.50000  Biso   1.000  Cu
  Cu2      1.0000 0.75000  0.25000  0.50000  Biso   1.000  Cu
  Cu3      1.0000 0.75000  0.75000  0.00000  Biso   1.000  Cu
  Cu4      1.0000 0.25000  0.25000  0.00000  Biso   1.000  Cu
  Cu5      1.0000 0.39255  0.82042  0.26694  Biso   1.000  Cu
  Cu6      1.0000 0.89255  0.32042  0.26694  Biso   1.000  Cu
  Cu7      1.0000 0.60745  0.82042  0.23306  Biso   1.000  Cu
  Cu8      1.0000 0.10745  0.32042  0.23306  Biso   1.000  Cu
  Cu9      1.0000 0.60745  0.17958  0.73306  Biso   1.000  Cu
  Cu10     1.0000 0.10745  0.67958  0.73306  Biso   1.000  Cu
  Cu11     1.0000 0.39255  0.17958  0.76694  Biso   1.000  Cu
  Cu12     1.0000 0.89255  0.67958  0.76694  Biso   1.000  Cu
  O1       1.0000 0.45614  0.84239  0.18483  Biso   1.000  O
  O2       1.0000 0.95614  0.34239  0.18483  Biso   1.000  O
  O3       1.0000 0.54386  0.84239  0.31517  Biso   1.000  O
  O4       1.0000 0.04386  0.34239  0.31517  Biso   1.000  O
  O5       1.0000 0.54386  0.15761  0.81517  Biso   1.000  O
  O6       1.0000 0.04386  0.65761  0.81517  Biso   1.000  O
  O7       1.0000 0.45614  0.15761  0.68483  Biso   1.000  O
  O8       1.0000 0.95614  0.65761  0.68483  Biso   1.000  O
  O9       1.0000 0.32666  0.85420  0.13044  Biso   1.000  O
  O10      1.0000 0.82666  0.35420  0.13044  Biso   1.000  O
  O11      1.0000 0.67334  0.85420  0.36956  Biso   1.000  O
  O12      1.0000 0.17334  0.35420  0.36956  Biso   1.000  O
  O13      1.0000 0.67334  0.14580  0.86956  Biso   1.000  O
  O14      1.0000 0.17334  0.64580  0.86956  Biso   1.000  O
  O15      1.0000 0.32666  0.14580  0.63044  Biso   1.000  O
  O16      1.0000 0.82666  0.64580  0.63044  Biso   1.000  O
  N1       1.0000 0.38458  0.67070  0.25879  Biso   1.000  N
  N2       1.0000 0.88458  0.17070  0.25879  Biso   1.000  N
  N3       1.0000 0.61542  0.67070  0.24121  Biso   1.000  N
  N4       1.0000 0.11542  0.17070  0.24121  Biso   1.000  N
  N5       1.0000 0.61542  0.32930  0.74121  Biso   1.000  N
  N6       1.0000 0.11542  0.82930  0.74121  Biso   1.000  N
  N7       1.0000 0.38458  0.32930  0.75879  Biso   1.000  N
  N8       1.0000 0.88458  0.82930  0.75879  Biso   1.000  N
  N9       1.0000 0.33437  0.79400  0.35059  Biso   1.000  N
  N10      1.0000 0.83437  0.29400  0.35059  Biso   1.000  N
  N11      1.0000 0.66563  0.79400  0.14941  Biso   1.000  N
  N12      1.0000 0.16563  0.29400  0.14941  Biso   1.000  N
  N13      1.0000 0.66563  0.20600  0.64941  Biso   1.000  N
  N14      1.0000 0.16563  0.70600  0.64941  Biso   1.000  N
  N15      1.0000 0.33437  0.20600  0.85059  Biso   1.000  N
  N16      1.0000 0.83437  0.70600  0.85059  Biso   1.000  N
  N17      1.0000 0.36613  0.96230  0.29175  Biso   1.000  N
  N18      1.0000 0.86613  0.46230  0.29175  Biso   1.000  N
  N19      1.0000 0.63387  0.96230  0.20825  Biso   1.000  N
  N20      1.0000 0.13387  0.46230  0.20825  Biso   1.000  N
  N21      1.0000 0.63387  0.03770  0.70825  Biso   1.000  N
  N22      1.0000 0.13387  0.53770  0.70825  Biso   1.000  N
  N23      1.0000 0.36613  0.03770  0.79175  Biso   1.000  N
  N24      1.0000 0.86613  0.53770  0.79175  Biso   1.000  N
  N25      1.0000 0.29000  0.66700  0.42439  Biso   1.000  N
  N26      1.0000 0.79000  0.16700  0.42439  Biso   1.000  N
  N27      1.0000 0.71000  0.66700  0.07561  Biso   1.000  N
  N28      1.0000 0.21000  0.16700  0.07561  Biso   1.000  N
  N29      1.0000 0.71000  0.33300  0.57561  Biso   1.000  N
  N30      1.0000 0.21000  0.83300  0.57561  Biso   1.000  N
  N31      1.0000 0.29000  0.33300  0.92439  Biso   1.000  N
  N32      1.0000 0.79000  0.83300  0.92439  Biso   1.000  N
  N33      1.0000 0.28050  0.86970  0.44839  Biso   1.000  N
  N34      1.0000 0.78050  0.36970  0.44839  Biso   1.000  N
  N35      1.0000 0.71950  0.86970  0.05161  Biso   1.000  N
  N36      1.0000 0.21950  0.36970  0.05161  Biso   1.000  N
  N37      1.0000 0.71950  0.13030  0.55161  Biso   1.000  N
  N38      1.0000 0.21950  0.63030  0.55161  Biso   1.000  N
  N39      1.0000 0.28050  0.13030  0.94839  Biso   1.000  N
  N40      1.0000 0.78050  0.63030  0.94839  Biso   1.000  N
  C1       1.0000 0.40800  0.61380  0.20590  Biso   1.000  C
  C2       1.0000 0.90800  0.11380  0.20590  Biso   1.000  C
  C3       1.0000 0.59200  0.61380  0.29410  Biso   1.000  C
  C4       1.0000 0.09200  0.11380  0.29410  Biso   1.000  C
  C5       1.0000 0.59200  0.38620  0.79410  Biso   1.000  C
  C6       1.0000 0.09200  0.88620  0.79410  Biso   1.000  C
  C7       1.0000 0.40800  0.38620  0.70590  Biso   1.000  C
  C8       1.0000 0.90800  0.88620  0.70590  Biso   1.000  C
  C9       1.0000 0.40020  0.51040  0.20520  Biso   1.000  C
  C10      1.0000 0.90020  0.01040  0.20520  Biso   1.000  C
  C11      1.0000 0.59980  0.51040  0.29480  Biso   1.000  C
  C12      1.0000 0.09980  0.01040  0.29480  Biso   1.000  C
  C13      1.0000 0.59980  0.48960  0.79480  Biso   1.000  C
  C14      1.0000 0.09980  0.98960  0.79480  Biso   1.000  C
  C15      1.0000 0.40020  0.48960  0.70520  Biso   1.000  C
  C16      1.0000 0.90020  0.98960  0.70520  Biso   1.000  C
  C17      1.0000 0.36810  0.46460  0.26130  Biso   1.000  C
  C18      1.0000 0.86810  0.96460  0.26130  Biso   1.000  C
  C19      1.0000 0.63190  0.46460  0.23870  Biso   1.000  C
  C20      1.0000 0.13190  0.96460  0.23870  Biso   1.000  C
  C21      1.0000 0.63190  0.53540  0.73870  Biso   1.000  C
  C22      1.0000 0.13190  0.03540  0.73870  Biso   1.000  C
  C23      1.0000 0.36810  0.53540  0.76130  Biso   1.000  C
  C24      1.0000 0.86810  0.03540  0.76130  Biso   1.000  C
  C25      1.0000 0.34220  0.52180  0.31640  Biso   1.000  C
  C26      1.0000 0.84220  0.02180  0.31640  Biso   1.000  C
  C27      1.0000 0.65780  0.52180  0.18360  Biso   1.000  C
  C28      1.0000 0.15780  0.02180  0.18360  Biso   1.000  C
  C29      1.0000 0.65780  0.47820  0.68360  Biso   1.000  C
  C30      1.0000 0.15780  0.97820  0.68360  Biso   1.000  C
  C31      1.0000 0.34220  0.47820  0.81640  Biso   1.000  C
  C32      1.0000 0.84220  0.97820  0.81640  Biso   1.000  C
  C33      1.0000 0.35070  0.62540  0.31337  Biso   1.000  C
  C34      1.0000 0.85070  0.12540  0.31337  Biso   1.000  C
  C35      1.0000 0.64930  0.62540  0.18663  Biso   1.000  C
  C36      1.0000 0.14930  0.12540  0.18663  Biso   1.000  C
  C37      1.0000 0.64930  0.37460  0.68663  Biso   1.000  C
  C38      1.0000 0.14930  0.87460  0.68663  Biso   1.000  C
  C39      1.0000 0.35070  0.37460  0.81337  Biso   1.000  C
  C40      1.0000 0.85070  0.87460  0.81337  Biso   1.000  C
  C41      1.0000 0.32210  0.69630  0.36832  Biso   1.000  C
  C42      1.0000 0.82210  0.19630  0.36832  Biso   1.000  C
  C43      1.0000 0.67790  0.69630  0.13168  Biso   1.000  C
  C44      1.0000 0.17790  0.19630  0.13168  Biso   1.000  C
  C45      1.0000 0.67790  0.30370  0.63168  Biso   1.000  C
  C46      1.0000 0.17790  0.80370  0.63168  Biso   1.000  C
  C47      1.0000 0.32210  0.30370  0.86832  Biso   1.000  C
  C48      1.0000 0.82210  0.80370  0.86832  Biso   1.000  C
  C49      1.0000 0.31230  0.87510  0.38878  Biso   1.000  C
  C50      1.0000 0.81230  0.37510  0.38878  Biso   1.000  C
  C51      1.0000 0.68770  0.87510  0.11122  Biso   1.000  C
  C52      1.0000 0.18770  0.37510  0.11122  Biso   1.000  C
  C53      1.0000 0.68770  0.12490  0.61122  Biso   1.000  C
  C54      1.0000 0.18770  0.62490  0.61122  Biso   1.000  C
  C55      1.0000 0.31230  0.12490  0.88878  Biso   1.000  C
  C56      1.0000 0.81230  0.62490  0.88878  Biso   1.000  C
  C57      1.0000 0.32840  0.97180  0.35204  Biso   1.000  C
  C58      1.0000 0.82840  0.47180  0.35204  Biso   1.000  C
  C59      1.0000 0.67160  0.97180  0.14796  Biso   1.000  C
  C60      1.0000 0.17160  0.47180  0.14796  Biso   1.000  C
  C61      1.0000 0.67160  0.02820  0.64796  Biso   1.000  C
  C62      1.0000 0.17160  0.52820  0.64796  Biso   1.000  C
  C63      1.0000 0.32840  0.02820  0.85204  Biso   1.000  C
  C64      1.0000 0.82840  0.52820  0.85204  Biso   1.000  C
  C65      1.0000 0.30440  0.06550  0.37590  Biso   1.000  C
  C66      1.0000 0.80440  0.56550  0.37590  Biso   1.000  C
  C67      1.0000 0.69560  0.06550  0.12410  Biso   1.000  C
  C68      1.0000 0.19560  0.56550  0.12410  Biso   1.000  C
  C69      1.0000 0.69560  0.93450  0.62410  Biso   1.000  C
  C70      1.0000 0.19560  0.43450  0.62410  Biso   1.000  C
  C71      1.0000 0.30440  0.93450  0.87590  Biso   1.000  C
  C72      1.0000 0.80440  0.43450  0.87590  Biso   1.000  C
  C73      1.0000 0.31850  0.14910  0.33600  Biso   1.000  C
  C74      1.0000 0.81850  0.64910  0.33600  Biso   1.000  C
  C75      1.0000 0.68150  0.14910  0.16400  Biso   1.000  C
  C76      1.0000 0.18150  0.64910  0.16400  Biso   1.000  C
  C77      1.0000 0.68150  0.85090  0.66400  Biso   1.000  C
  C78      1.0000 0.18150  0.35090  0.66400  Biso   1.000  C
  C79      1.0000 0.31850  0.85090  0.83600  Biso   1.000  C
  C80      1.0000 0.81850  0.35090  0.83600  Biso   1.000  C
  C81      1.0000 0.35700  0.13910  0.27520  Biso   1.000  C
  C82      1.0000 0.85700  0.63910  0.27520  Biso   1.000  C
  C83      1.0000 0.64300  0.13910  0.22480  Biso   1.000  C
  C84      1.0000 0.14300  0.63910  0.22480  Biso   1.000  C
  C85      1.0000 0.64300  0.86090  0.72480  Biso   1.000  C
  C86      1.0000 0.14300  0.36090  0.72480  Biso   1.000  C
  C87      1.0000 0.35700  0.86090  0.77520  Biso   1.000  C
  C88      1.0000 0.85700  0.36090  0.77520  Biso   1.000  C
  C89      1.0000 0.37990  0.04600  0.25420  Biso   1.000  C
  C90      1.0000 0.87990  0.54600  0.25420  Biso   1.000  C
  C91      1.0000 0.62010  0.04600  0.24580  Biso   1.000  C
  C92      1.0000 0.12010  0.54600  0.24580  Biso   1.000  C
  C93      1.0000 0.62010  0.95400  0.74580  Biso   1.000  C
  C94      1.0000 0.12010  0.45400  0.74580  Biso   1.000  C
  C95      1.0000 0.37990  0.95400  0.75420  Biso   1.000  C
  C96      1.0000 0.87990  0.45400  0.75420  Biso   1.000  C
  C97      1.0000 0.40670  0.86020  0.13040  Biso   1.000  C
  C98      1.0000 0.90670  0.36020  0.13040  Biso   1.000  C
  C99      1.0000 0.59330  0.86020  0.36960  Biso   1.000  C
  C100     1.0000 0.09330  0.36020  0.36960  Biso   1.000  C
  C101     1.0000 0.59330  0.13980  0.86960  Biso   1.000  C
  C102     1.0000 0.09330  0.63980  0.86960  Biso   1.000  C
  C103     1.0000 0.40670  0.13980  0.63040  Biso   1.000  C
  C104     1.0000 0.90670  0.63980  0.63040  Biso   1.000  C
  C105     1.0000 0.44980  0.89070  0.06640  Biso   1.000  C
  C106     1.0000 0.94980  0.39070  0.06640  Biso   1.000  C
  C107     1.0000 0.55020  0.89070  0.43360  Biso   1.000  C
  C108     1.0000 0.05020  0.39070  0.43360  Biso   1.000  C
  C109     1.0000 0.55020  0.10930  0.93360  Biso   1.000  C
  C110     1.0000 0.05020  0.60930  0.93360  Biso   1.000  C
  C111     1.0000 0.44980  0.10930  0.56640  Biso   1.000  C
  C112     1.0000 0.94980  0.60930  0.56640  Biso   1.000  C
  H1       1.0000 0.42500  0.64800  0.16430  Biso   1.000  H
  H2       1.0000 0.92500  0.14800  0.16430  Biso   1.000  H
  H3       1.0000 0.57500  0.64800  0.33570  Biso   1.000  H
  H4       1.0000 0.07500  0.14800  0.33570  Biso   1.000  H
  H5       1.0000 0.57500  0.35200  0.83570  Biso   1.000  H
  H6       1.0000 0.07500  0.85200  0.83570  Biso   1.000  H
  H7       1.0000 0.42500  0.35200  0.66430  Biso   1.000  H
  H8       1.0000 0.92500  0.85200  0.66430  Biso   1.000  H
  H9       1.0000 0.41900  0.47300  0.16300  Biso   1.000  H
  H10      1.0000 0.91900  0.97300  0.16300  Biso   1.000  H
  H11      1.0000 0.58100  0.47300  0.33700  Biso   1.000  H
  H12      1.0000 0.08100  0.97300  0.33700  Biso   1.000  H
  H13      1.0000 0.58100  0.52700  0.83700  Biso   1.000  H
  H14      1.0000 0.08100  0.02700  0.83700  Biso   1.000  H
  H15      1.0000 0.41900  0.52700  0.66300  Biso   1.000  H
  H16      1.0000 0.91900  0.02700  0.66300  Biso   1.000  H
  H17      1.0000 0.35700  0.39700  0.26100  Biso   1.000  H
  H18      1.0000 0.85700  0.89700  0.26100  Biso   1.000  H
  H19      1.0000 0.64300  0.39700  0.23900  Biso   1.000  H
  H20      1.0000 0.14300  0.89700  0.23900  Biso   1.000  H
  H21      1.0000 0.64300  0.60300  0.73900  Biso   1.000  H
  H22      1.0000 0.14300  0.10300  0.73900  Biso   1.000  H
  H23      1.0000 0.35700  0.60300  0.76100  Biso   1.000  H
  H24      1.0000 0.85700  0.10300  0.76100  Biso   1.000  H
  H25      1.0000 0.32200  0.49100  0.35980  Biso   1.000  H
  H26      1.0000 0.82200  0.99100  0.35980  Biso   1.000  H
  H27      1.0000 0.67800  0.49100  0.14020  Biso   1.000  H
  H28      1.0000 0.17800  0.99100  0.14020  Biso   1.000  H
  H29      1.0000 0.67800  0.50900  0.64020  Biso   1.000  H
  H30      1.0000 0.17800  0.00900  0.64020  Biso   1.000  H
  H31      1.0000 0.32200  0.50900  0.85980  Biso   1.000  H
  H32      1.0000 0.82200  0.00900  0.85980  Biso   1.000  H
  H33      1.0000 0.28900  0.61900  0.42900  Biso   1.000  H
  H34      1.0000 0.78900  0.11900  0.42900  Biso   1.000  H
  H35      1.0000 0.71100  0.61900  0.07100  Biso   1.000  H
  H36      1.0000 0.21100  0.11900  0.07100  Biso   1.000  H
  H37      1.0000 0.71100  0.38100  0.57100  Biso   1.000  H
  H38      1.0000 0.21100  0.88100  0.57100  Biso   1.000  H
  H39      1.0000 0.28900  0.38100  0.92900  Biso   1.000  H
  H40      1.0000 0.78900  0.88100  0.92900  Biso   1.000  H
  H41      1.0000 0.27800  0.90800  0.46600  Biso   1.000  H
  H42      1.0000 0.77800  0.40800  0.46600  Biso   1.000  H
  H43      1.0000 0.72200  0.90800  0.03400  Biso   1.000  H
  H44      1.0000 0.22200  0.40800  0.03400  Biso   1.000  H
  H45      1.0000 0.72200  0.09200  0.53400  Biso   1.000  H
  H46      1.0000 0.22200  0.59200  0.53400  Biso   1.000  H
  H47      1.0000 0.27800  0.09200  0.96600  Biso   1.000  H
  H48      1.0000 0.77800  0.59200  0.96600  Biso   1.000  H
  H49      1.0000 0.28500  0.06900  0.41270  Biso   1.000  H
  H50      1.0000 0.78500  0.56900  0.41270  Biso   1.000  H
  H51      1.0000 0.71500  0.06900  0.08730  Biso   1.000  H
  H52      1.0000 0.21500  0.56900  0.08730  Biso   1.000  H
  H53      1.0000 0.71500  0.93100  0.58730  Biso   1.000  H
  H54      1.0000 0.21500  0.43100  0.58730  Biso   1.000  H
  H55      1.0000 0.28500  0.93100  0.91270  Biso   1.000  H
  H56      1.0000 0.78500  0.43100  0.91270  Biso   1.000  H
  H57      1.0000 0.30500  0.19100  0.34760  Biso   1.000  H
  H58      1.0000 0.80500  0.69100  0.34760  Biso   1.000  H
  H59      1.0000 0.69500  0.19100  0.15240  Biso   1.000  H
  H60      1.0000 0.19500  0.69100  0.15240  Biso   1.000  H
  H61      1.0000 0.69500  0.80900  0.65240  Biso   1.000  H
  H62      1.0000 0.19500  0.30900  0.65240  Biso   1.000  H
  H63      1.0000 0.30500  0.80900  0.84760  Biso   1.000  H
  H64      1.0000 0.80500  0.30900  0.84760  Biso   1.000  H
  H65      1.0000 0.36900  0.19300  0.24800  Biso   1.000  H
  H66      1.0000 0.86900  0.69300  0.24800  Biso   1.000  H
  H67      1.0000 0.63100  0.19300  0.25200  Biso   1.000  H
  H68      1.0000 0.13100  0.69300  0.25200  Biso   1.000  H
  H69      1.0000 0.63100  0.80700  0.75200  Biso   1.000  H
  H70      1.0000 0.13100  0.30700  0.75200  Biso   1.000  H
  H71      1.0000 0.36900  0.80700  0.74800  Biso   1.000  H
  H72      1.0000 0.86900  0.30700  0.74800  Biso   1.000  H
  H73      1.0000 0.40400  0.03900  0.21670  Biso   1.000  H
  H74      1.0000 0.90400  0.53900  0.21670  Biso   1.000  H
  H75      1.0000 0.59600  0.03900  0.28330  Biso   1.000  H
  H76      1.0000 0.09600  0.53900  0.28330  Biso   1.000  H
  H77      1.0000 0.59600  0.96100  0.78330  Biso   1.000  H
  H78      1.0000 0.09600  0.46100  0.78330  Biso   1.000  H
  H79      1.0000 0.40400  0.96100  0.71670  Biso   1.000  H
  H80      1.0000 0.90400  0.46100  0.71670  Biso   1.000  H
  H81      1.0000 0.47100  0.95100  0.07500  Biso   1.000  H
  H82      1.0000 0.97100  0.45100  0.07500  Biso   1.000  H
  H83      1.0000 0.52900  0.95100  0.42500  Biso   1.000  H
  H84      1.0000 0.02900  0.45100  0.42500  Biso   1.000  H
  H85      1.0000 0.52900  0.04900  0.92500  Biso   1.000  H
  H86      1.0000 0.02900  0.54900  0.92500  Biso   1.000  H
  H87      1.0000 0.47100  0.04900  0.57500  Biso   1.000  H
  H88      1.0000 0.97100  0.54900  0.57500  Biso   1.000  H
  H89      1.0000 0.42000  0.87800  0.03100  Biso   1.000  H
  H90      1.0000 0.92000  0.37800  0.03100  Biso   1.000  H
  H91      1.0000 0.58000  0.87800  0.46900  Biso   1.000  H
  H92      1.0000 0.08000  0.37800  0.46900  Biso   1.000  H
  H93      1.0000 0.58000  0.12200  0.96900  Biso   1.000  H
  H94      1.0000 0.08000  0.62200  0.96900  Biso   1.000  H
  H95      1.0000 0.42000  0.12200  0.53100  Biso   1.000  H
  H96      1.0000 0.92000  0.62200  0.53100  Biso   1.000  H
  H97      1.0000 0.49800  0.85100  0.06100  Biso   1.000  H
  H98      1.0000 0.99800  0.35100  0.06100  Biso   1.000  H
  H99      1.0000 0.50200  0.85100  0.43900  Biso   1.000  H
  H100     1.0000 0.00200  0.35100  0.43900  Biso   1.000  H
  H101     1.0000 0.50200  0.14900  0.93900  Biso   1.000  H
  H102     1.0000 0.00200  0.64900  0.93900  Biso   1.000  H
  H103     1.0000 0.49800  0.14900  0.56100  Biso   1.000  H
  H104     1.0000 0.99800  0.64900  0.56100  Biso   1.000  H
  Cl1      1.0000 0.04833  0.75036  0.39513  Biso   1.000  Cl
  Cl2      1.0000 0.54833  0.25036  0.39513  Biso   1.000  Cl
  Cl3      1.0000 0.95167  0.75036  0.10487  Biso   1.000  Cl
  Cl4      1.0000 0.45167  0.25036  0.10487  Biso   1.000  Cl
  Cl5      1.0000 0.95167  0.24964  0.60487  Biso   1.000  Cl
  Cl6      1.0000 0.45167  0.74964  0.60487  Biso   1.000  Cl
  Cl7      1.0000 0.04833  0.24964  0.89513  Biso   1.000  Cl
  Cl8      1.0000 0.54833  0.74964  0.89513  Biso   1.000  Cl
  O17      1.0000 0.97520  0.80400  0.37270  Biso   1.000  O
  O18      1.0000 0.47520  0.30400  0.37270  Biso   1.000  O
  O19      1.0000 0.02480  0.80400  0.12730  Biso   1.000  O
  O20      1.0000 0.52480  0.30400  0.12730  Biso   1.000  O
  O21      1.0000 0.02480  0.19600  0.62730  Biso   1.000  O
  O22      1.0000 0.52480  0.69600  0.62730  Biso   1.000  O
  O23      1.0000 0.97520  0.19600  0.87270  Biso   1.000  O
  O24      1.0000 0.47520  0.69600  0.87270  Biso   1.000  O
  O25      1.0000 0.07400  0.76970  0.46455  Biso   1.000  O
  O26      1.0000 0.57400  0.26970  0.46455  Biso   1.000  O
  O27      1.0000 0.92600  0.76970  0.03545  Biso   1.000  O
  O28      1.0000 0.42600  0.26970  0.03545  Biso   1.000  O
  O29      1.0000 0.92600  0.23030  0.53545  Biso   1.000  O
  O30      1.0000 0.42600  0.73030  0.53545  Biso   1.000  O
  O31      1.0000 0.07400  0.23030  0.96455  Biso   1.000  O
  O32      1.0000 0.57400  0.73030  0.96455  Biso   1.000  O
  O33      1.0000 0.03820  0.64490  0.38430  Biso   1.000  O
  O34      1.0000 0.53820  0.14490  0.38430  Biso   1.000  O
  O35      1.0000 0.96180  0.64490  0.11570  Biso   1.000  O
  O36      1.0000 0.46180  0.14490  0.11570  Biso   1.000  O
  O37      1.0000 0.96180  0.35510  0.61570  Biso   1.000  O
  O38      1.0000 0.46180  0.85510  0.61570  Biso   1.000  O
  O39      1.0000 0.03820  0.35510  0.88430  Biso   1.000  O
  O40      1.0000 0.53820  0.85510  0.88430  Biso   1.000  O
  O41      1.0000 0.11950  0.78630  0.35500  Biso   1.000  O
  O42      1.0000 0.61950  0.28630  0.35500  Biso   1.000  O
  O43      1.0000 0.88050  0.78630  0.14500  Biso   1.000  O
  O44      1.0000 0.38050  0.28630  0.14500  Biso   1.000  O
  O45      1.0000 0.88050  0.21370  0.64500  Biso   1.000  O
  O46      1.0000 0.38050  0.71370  0.64500  Biso   1.000  O
  O47      1.0000 0.11950  0.21370  0.85500  Biso   1.000  O
  O48      1.0000 0.61950  0.71370  0.85500  Biso   1.000  O
  C113     1.0000 0.33310  0.36580  0.49210  Biso   1.000  C
  C114     1.0000 0.83310  0.86580  0.49210  Biso   1.000  C
  C115     1.0000 0.66690  0.36580  0.00790  Biso   1.000  C
  C116     1.0000 0.16690  0.86580  0.00790  Biso   1.000  C
  C117     1.0000 0.66690  0.63420  0.50790  Biso   1.000  C
  C118     1.0000 0.16690  0.13420  0.50790  Biso   1.000  C
  C119     1.0000 0.33310  0.63420  0.99210  Biso   1.000  C
  C120     1.0000 0.83310  0.13420  0.99210  Biso   1.000  C
  O49      1.0000 0.27480  0.44050  0.47033  Biso   1.000  O
  O50      1.0000 0.77480  0.94050  0.47033  Biso   1.000  O
  O51      1.0000 0.72520  0.44050  0.02967  Biso   1.000  O
  O52      1.0000 0.22520  0.94050  0.02967  Biso   1.000  O
  O53      1.0000 0.72520  0.55950  0.52967  Biso   1.000  O
  O54      1.0000 0.22520  0.05950  0.52967  Biso   1.000  O
  O55      1.0000 0.27480  0.55950  0.97033  Biso   1.000  O
  O56      1.0000 0.77480  0.05950  0.97033  Biso   1.000  O
  O57      1.0000 0.44150  0.38150  0.53480  Biso   1.000  O
  O58      1.0000 0.94150  0.88150  0.53480  Biso   1.000  O
  O59      1.0000 0.55850  0.38150  0.96520  Biso   1.000  O
  O60      1.0000 0.05850  0.88150  0.96520  Biso   1.000  O
  O61      1.0000 0.55850  0.61850  0.46520  Biso   1.000  O
  O62      1.0000 0.05850  0.11850  0.46520  Biso   1.000  O
  O63      1.0000 0.44150  0.61850  0.03480  Biso   1.000  O
  O64      1.0000 0.94150  0.11850  0.03480  Biso   1.000  O
  O65      1.0000 0.48940  0.47410  0.52480  Biso   1.000  O
  O66      1.0000 0.98940  0.97410  0.52480  Biso   1.000  O
  O67      1.0000 0.51060  0.47410  0.97520  Biso   1.000  O
  O68      1.0000 0.01060  0.97410  0.97520  Biso   1.000  O
  O69      1.0000 0.51060  0.52590  0.47520  Biso   1.000  O
  O70      1.0000 0.01060  0.02590  0.47520  Biso   1.000  O
  O71      1.0000 0.48940  0.52590  0.02480  Biso   1.000  O
  O72      1.0000 0.98940  0.02590  0.02480  Biso   1.000  O
