data_image0
_cell_length_a       12.994
_cell_length_b       8.63
_cell_length_c       19.302
_cell_angle_alpha    90
_cell_angle_beta     102.13
_cell_angle_gamma    90

_symmetry_space_group_name_H-M    "P 1"
_symmetry_int_tables_number       1

loop_
  _symmetry_equiv_pos_as_xyz
  'x, y, z'

loop_
  _atom_site_label
  _atom_site_occupancy
  _atom_site_fract_x
  _atom_site_fract_y
  _atom_site_fract_z
  _atom_site_thermal_displace_type
  _atom_site_B_iso_or_equiv
  _atom_site_type_symbol
  Cu1      1.0000 0.89506  0.17775  0.82547  Biso   1.000  Cu
  Cu2      1.0000 0.60494  0.67775  0.67453  Biso   1.000  Cu
  Cu3      1.0000 0.10494  0.82225  0.17453  Biso   1.000  Cu
  Cu4      1.0000 0.39506  0.32225  0.32547  Biso   1.000  Cu
  Cu5      1.0000 0.96835  0.18620  0.98733  Biso   1.000  Cu
  Cu6      1.0000 0.53165  0.68620  0.51267  Biso   1.000  Cu
  Cu7      1.0000 0.03165  0.81380  0.01267  Biso   1.000  Cu
  Cu8      1.0000 0.46835  0.31380  0.48733  Biso   1.000  Cu
  O1       1.0000 0.95700  0.31800  0.90373  Biso   1.000  O
  O2       1.0000 0.54300  0.81800  0.59627  Biso   1.000  O
  O3       1.0000 0.04300  0.68200  0.09627  Biso   1.000  O
  O4       1.0000 0.45700  0.18200  0.40373  Biso   1.000  O
  N1       1.0000 0.02550  0.23340  0.79350  Biso   1.000  N
  N2       1.0000 0.47450  0.73340  0.70650  Biso   1.000  N
  N3       1.0000 0.97450  0.76660  0.20650  Biso   1.000  N
  N4       1.0000 0.52550  0.26660  0.29350  Biso   1.000  N
  N5       1.0000 0.11560  0.26020  0.00700  Biso   1.000  N
  N6       1.0000 0.38440  0.76020  0.49300  Biso   1.000  N
  N7       1.0000 0.88440  0.73980  0.99300  Biso   1.000  N
  N8       1.0000 0.61560  0.23980  0.50700  Biso   1.000  N
  O5       1.0000 0.76640  0.15290  0.85884  Biso   1.000  O
  O6       1.0000 0.73360  0.65290  0.64116  Biso   1.000  O
  O7       1.0000 0.23360  0.84710  0.14116  Biso   1.000  O
  O8       1.0000 0.26640  0.34710  0.35884  Biso   1.000  O
  O9       1.0000 0.81740  0.17460  0.97625  Biso   1.000  O
  O10      1.0000 0.68260  0.67460  0.52375  Biso   1.000  O
  O11      1.0000 0.18260  0.82540  0.02375  Biso   1.000  O
  O12      1.0000 0.31740  0.32540  0.47625  Biso   1.000  O
  N9       1.0000 0.86290  0.00080  0.76050  Biso   1.000  N
  N10      1.0000 0.63710  0.50080  0.73950  Biso   1.000  N
  N11      1.0000 0.13710  0.99920  0.23950  Biso   1.000  N
  N12      1.0000 0.36290  0.49920  0.26050  Biso   1.000  N
  N13      1.0000 0.78390  0.92770  0.76010  Biso   1.000  N
  N14      1.0000 0.71610  0.42770  0.73990  Biso   1.000  N
  N15      1.0000 0.21610  0.07230  0.23990  Biso   1.000  N
  N16      1.0000 0.28390  0.57230  0.26010  Biso   1.000  N
  N17      1.0000 0.70990  0.85370  0.75880  Biso   1.000  N
  N18      1.0000 0.79010  0.35370  0.74120  Biso   1.000  N
  N19      1.0000 0.29010  0.14630  0.24120  Biso   1.000  N
  N20      1.0000 0.20990  0.64630  0.25880  Biso   1.000  N
  N21      1.0000 0.98510  0.05170  0.07280  Biso   1.000  N
  N22      1.0000 0.51490  0.55170  0.42720  Biso   1.000  N
  N23      1.0000 0.01490  0.94830  0.92720  Biso   1.000  N
  N24      1.0000 0.48510  0.44830  0.57280  Biso   1.000  N
  C1       1.0000 0.05050  0.18030  0.73290  Biso   1.000  C
  C2       1.0000 0.44950  0.68030  0.76710  Biso   1.000  C
  C3       1.0000 0.94950  0.81970  0.26710  Biso   1.000  C
  C4       1.0000 0.55050  0.31970  0.23290  Biso   1.000  C
  C5       1.0000 0.13290  0.24230  0.70810  Biso   1.000  C
  C6       1.0000 0.36710  0.74230  0.79190  Biso   1.000  C
  C7       1.0000 0.86710  0.75770  0.29190  Biso   1.000  C
  C8       1.0000 0.63290  0.25770  0.20810  Biso   1.000  C
  C9       1.0000 0.19050  0.35530  0.74550  Biso   1.000  C
  C10      1.0000 0.30950  0.85530  0.75450  Biso   1.000  C
  C11      1.0000 0.80950  0.64470  0.25450  Biso   1.000  C
  C12      1.0000 0.69050  0.14470  0.24550  Biso   1.000  C
  C13      1.0000 0.16830  0.40750  0.80790  Biso   1.000  C
  C14      1.0000 0.33170  0.90750  0.69210  Biso   1.000  C
  C15      1.0000 0.83170  0.59250  0.19210  Biso   1.000  C
  C16      1.0000 0.66830  0.09250  0.30790  Biso   1.000  C
  C17      1.0000 0.08310  0.34250  0.83090  Biso   1.000  C
  C18      1.0000 0.41690  0.84250  0.66910  Biso   1.000  C
  C19      1.0000 0.91690  0.65750  0.16910  Biso   1.000  C
  C20      1.0000 0.58310  0.15750  0.33090  Biso   1.000  C
  C21      1.0000 0.04730  0.39880  0.89790  Biso   1.000  C
  C22      1.0000 0.45270  0.89880  0.60210  Biso   1.000  C
  C23      1.0000 0.95270  0.60120  0.10210  Biso   1.000  C
  C24      1.0000 0.54730  0.10120  0.39790  Biso   1.000  C
  O13      1.0000 0.03160  0.56190  0.89320  Biso   1.000  O
  O14      1.0000 0.46840  0.06190  0.60680  Biso   1.000  O
  O15      1.0000 0.96840  0.43810  0.10680  Biso   1.000  O
  O16      1.0000 0.53160  0.93810  0.39320  Biso   1.000  O
  C25      1.0000 0.13250  0.37580  0.96440  Biso   1.000  C
  C26      1.0000 0.36750  0.87580  0.53560  Biso   1.000  C
  C27      1.0000 0.86750  0.62420  0.03560  Biso   1.000  C
  C28      1.0000 0.63250  0.12420  0.46440  Biso   1.000  C
  C29      1.0000 0.22130  0.46650  0.98190  Biso   1.000  C
  C30      1.0000 0.27870  0.96650  0.51810  Biso   1.000  C
  C31      1.0000 0.77870  0.53350  0.01810  Biso   1.000  C
  C32      1.0000 0.72130  0.03350  0.48190  Biso   1.000  C
  C33      1.0000 0.29710  0.43210  0.04180  Biso   1.000  C
  C34      1.0000 0.20290  0.93210  0.45820  Biso   1.000  C
  C35      1.0000 0.70290  0.56790  0.95820  Biso   1.000  C
  C36      1.0000 0.79710  0.06790  0.54180  Biso   1.000  C
  C37      1.0000 0.28080  0.30990  0.08320  Biso   1.000  C
  C38      1.0000 0.21920  0.80990  0.41680  Biso   1.000  C
  C39      1.0000 0.71920  0.69010  0.91680  Biso   1.000  C
  C40      1.0000 0.78080  0.19010  0.58320  Biso   1.000  C
  C41      1.0000 0.18890  0.22830  0.06470  Biso   1.000  C
  C42      1.0000 0.31110  0.72830  0.43530  Biso   1.000  C
  C43      1.0000 0.81110  0.77170  0.93530  Biso   1.000  C
  C44      1.0000 0.68890  0.27170  0.56470  Biso   1.000  C
  C45      1.0000 0.95540  0.61120  0.83280  Biso   1.000  C
  C46      1.0000 0.54460  0.11120  0.66720  Biso   1.000  C
  C47      1.0000 0.04460  0.38880  0.16720  Biso   1.000  C
  C48      1.0000 0.45540  0.88880  0.33280  Biso   1.000  C
  H1       1.0000 0.97710  0.57950  0.79040  Biso   1.000  H
  H2       1.0000 0.52290  0.07950  0.70960  Biso   1.000  H
  H3       1.0000 0.02290  0.42050  0.20960  Biso   1.000  H
  H4       1.0000 0.47710  0.92050  0.29040  Biso   1.000  H
  H5       1.0000 0.94920  0.72200  0.83340  Biso   1.000  H
  H6       1.0000 0.55080  0.22200  0.66660  Biso   1.000  H
  H7       1.0000 0.05080  0.27800  0.16660  Biso   1.000  H
  H8       1.0000 0.44920  0.77800  0.33340  Biso   1.000  H
  H9       1.0000 0.88850  0.56530  0.83400  Biso   1.000  H
  H10      1.0000 0.61150  0.06530  0.66600  Biso   1.000  H
  H11      1.0000 0.11150  0.43470  0.16600  Biso   1.000  H
  H12      1.0000 0.38850  0.93470  0.33400  Biso   1.000  H
  C49      1.0000 0.74930  0.16700  0.92000  Biso   1.000  C
  C50      1.0000 0.75070  0.66700  0.58000  Biso   1.000  C
  C51      1.0000 0.25070  0.83300  0.08000  Biso   1.000  C
  C52      1.0000 0.24930  0.33300  0.42000  Biso   1.000  C
  C53      1.0000 0.63630  0.17740  0.92550  Biso   1.000  C
  C54      1.0000 0.86370  0.67740  0.57450  Biso   1.000  C
  C55      1.0000 0.36370  0.82260  0.07450  Biso   1.000  C
  C56      1.0000 0.13630  0.32260  0.42550  Biso   1.000  C
  C57      1.0000 0.55950  0.19290  0.86530  Biso   1.000  C
  C58      1.0000 0.94050  0.69290  0.63470  Biso   1.000  C
  C59      1.0000 0.44050  0.80710  0.13470  Biso   1.000  C
  C60      1.0000 0.05950  0.30710  0.36530  Biso   1.000  C
  C61      1.0000 0.45500  0.20520  0.86960  Biso   1.000  C
  C62      1.0000 0.04500  0.70520  0.63040  Biso   1.000  C
  C63      1.0000 0.54500  0.79480  0.13040  Biso   1.000  C
  C64      1.0000 0.95500  0.29480  0.36960  Biso   1.000  C
  C65      1.0000 0.42850  0.20330  0.93430  Biso   1.000  C
  C66      1.0000 0.07150  0.70330  0.56570  Biso   1.000  C
  C67      1.0000 0.57150  0.79670  0.06570  Biso   1.000  C
  C68      1.0000 0.92850  0.29670  0.43430  Biso   1.000  C
  C69      1.0000 0.50430  0.19110  0.99460  Biso   1.000  C
  C70      1.0000 0.99570  0.69110  0.50540  Biso   1.000  C
  C71      1.0000 0.49570  0.80890  0.00540  Biso   1.000  C
  C72      1.0000 0.00430  0.30890  0.49460  Biso   1.000  C
  C73      1.0000 0.60850  0.17760  0.99070  Biso   1.000  C
  C74      1.0000 0.89150  0.67760  0.50930  Biso   1.000  C
  C75      1.0000 0.39150  0.82240  0.00930  Biso   1.000  C
  C76      1.0000 0.10850  0.32240  0.49070  Biso   1.000  C
  N25      1.0000 0.91290  0.05350  0.10230  Biso   1.000  N
  N26      1.0000 0.58710  0.55350  0.39770  Biso   1.000  N
  N27      1.0000 0.08710  0.94650  0.89770  Biso   1.000  N
  N28      1.0000 0.41290  0.44650  0.60230  Biso   1.000  N
  N29      1.0000 0.84620  0.05310  0.13200  Biso   1.000  N
  N30      1.0000 0.65380  0.55310  0.36800  Biso   1.000  N
  N31      1.0000 0.15380  0.94690  0.86800  Biso   1.000  N
  N32      1.0000 0.34620  0.44690  0.63200  Biso   1.000  N
  H13      1.0000 0.00200  0.10100  0.71200  Biso   1.000  H
  H14      1.0000 0.49800  0.60100  0.78800  Biso   1.000  H
  H15      1.0000 0.99800  0.89900  0.28800  Biso   1.000  H
  H16      1.0000 0.50200  0.39900  0.21200  Biso   1.000  H
  H17      1.0000 0.14300  0.21600  0.67000  Biso   1.000  H
  H18      1.0000 0.35700  0.71600  0.83000  Biso   1.000  H
  H19      1.0000 0.85700  0.78400  0.33000  Biso   1.000  H
  H20      1.0000 0.64300  0.28400  0.17000  Biso   1.000  H
  H21      1.0000 0.24800  0.38000  0.73800  Biso   1.000  H
  H22      1.0000 0.25200  0.88000  0.76200  Biso   1.000  H
  H23      1.0000 0.75200  0.62000  0.26200  Biso   1.000  H
  H24      1.0000 0.74800  0.12000  0.23800  Biso   1.000  H
  H25      1.0000 0.20400  0.47600  0.83100  Biso   1.000  H
  H26      1.0000 0.29600  0.97600  0.66900  Biso   1.000  H
  H27      1.0000 0.79600  0.52400  0.16900  Biso   1.000  H
  H28      1.0000 0.70400  0.02400  0.33100  Biso   1.000  H
  H29      1.0000 0.23600  0.53800  0.95700  Biso   1.000  H
  H30      1.0000 0.26400  0.03800  0.54300  Biso   1.000  H
  H31      1.0000 0.76400  0.46200  0.04300  Biso   1.000  H
  H32      1.0000 0.73600  0.96200  0.45700  Biso   1.000  H
  H33      1.0000 0.36700  0.50500  0.05200  Biso   1.000  H
  H34      1.0000 0.13300  0.00500  0.44800  Biso   1.000  H
  H35      1.0000 0.63300  0.49500  0.94800  Biso   1.000  H
  H36      1.0000 0.86700  0.99500  0.55200  Biso   1.000  H
  H37      1.0000 0.32500  0.28500  0.12000  Biso   1.000  H
  H38      1.0000 0.17500  0.78500  0.38000  Biso   1.000  H
  H39      1.0000 0.67500  0.71500  0.88000  Biso   1.000  H
  H40      1.0000 0.82500  0.21500  0.62000  Biso   1.000  H
  H41      1.0000 0.17300  0.14300  0.08700  Biso   1.000  H
  H42      1.0000 0.32700  0.64300  0.41300  Biso   1.000  H
  H43      1.0000 0.82700  0.85700  0.91300  Biso   1.000  H
  H44      1.0000 0.67300  0.35700  0.58700  Biso   1.000  H
  H45      1.0000 0.57100  0.18000  0.83200  Biso   1.000  H
  H46      1.0000 0.92900  0.68000  0.66800  Biso   1.000  H
  H47      1.0000 0.42900  0.82000  0.16800  Biso   1.000  H
  H48      1.0000 0.07100  0.32000  0.33200  Biso   1.000  H
  H49      1.0000 0.42800  0.20900  0.83200  Biso   1.000  H
  H50      1.0000 0.07200  0.70900  0.66800  Biso   1.000  H
  H51      1.0000 0.57200  0.79100  0.16800  Biso   1.000  H
  H52      1.0000 0.92800  0.29100  0.33200  Biso   1.000  H
  H53      1.0000 0.35800  0.19800  0.93000  Biso   1.000  H
  H54      1.0000 0.14200  0.69800  0.57000  Biso   1.000  H
  H55      1.0000 0.64200  0.80200  0.07000  Biso   1.000  H
  H56      1.0000 0.85800  0.30200  0.43000  Biso   1.000  H
  H57      1.0000 0.49100  0.19500  0.03100  Biso   1.000  H
  H58      1.0000 0.00900  0.69500  0.46900  Biso   1.000  H
  H59      1.0000 0.50900  0.80500  0.96900  Biso   1.000  H
  H60      1.0000 0.99100  0.30500  0.53100  Biso   1.000  H
  H61      1.0000 0.66100  0.16300  0.02900  Biso   1.000  H
  H62      1.0000 0.83900  0.66300  0.47100  Biso   1.000  H
  H63      1.0000 0.33900  0.83700  0.97100  Biso   1.000  H
  H64      1.0000 0.16100  0.33700  0.52900  Biso   1.000  H
