data_image0
_cell_length_a       14.0608
_cell_length_b       13.8902
_cell_length_c       19.0465
_cell_angle_alpha    90
_cell_angle_beta     98.487
_cell_angle_gamma    90

_symmetry_space_group_name_H-M    "P 1"
_symmetry_int_tables_number       1

loop_
  _symmetry_equiv_pos_as_xyz
  'x, y, z'

loop_
  _atom_site_label
  _atom_site_occupancy
  _atom_site_fract_x
  _atom_site_fract_y
  _atom_site_fract_z
  _atom_site_thermal_displace_type
  _atom_site_B_iso_or_equiv
  _atom_site_type_symbol
  Cu1      1.0000 0.12143  0.61587  0.03683  Biso   1.000  Cu
  Cu2      1.0000 0.62143  0.88413  0.53683  Biso   1.000  Cu
  Cu3      1.0000 0.87857  0.38413  0.96317  Biso   1.000  Cu
  Cu4      1.0000 0.37857  0.11587  0.46317  Biso   1.000  Cu
  Cu5      1.0000 0.13410  0.60419  0.47984  Biso   1.000  Cu
  Cu6      1.0000 0.63410  0.89581  0.97984  Biso   1.000  Cu
  Cu7      1.0000 0.86590  0.39581  0.52016  Biso   1.000  Cu
  Cu8      1.0000 0.36590  0.10419  0.02016  Biso   1.000  Cu
  S1       1.0000 0.32752  0.71535  0.10011  Biso   1.000  S
  S2       1.0000 0.82752  0.78465  0.60011  Biso   1.000  S
  S3       1.0000 0.67248  0.28465  0.89989  Biso   1.000  S
  S4       1.0000 0.17248  0.21535  0.39989  Biso   1.000  S
  S5       1.0000 0.11534  0.79249  0.93553  Biso   1.000  S
  S6       1.0000 0.61534  0.70751  0.43553  Biso   1.000  S
  S7       1.0000 0.88466  0.20751  0.06447  Biso   1.000  S
  S8       1.0000 0.38466  0.29249  0.56447  Biso   1.000  S
  S9       1.0000 0.12266  0.81818  0.44423  Biso   1.000  S
  S10      1.0000 0.62266  0.68182  0.94423  Biso   1.000  S
  S11      1.0000 0.87734  0.18182  0.55577  Biso   1.000  S
  S12      1.0000 0.37734  0.31818  0.05577  Biso   1.000  S
  S13      1.0000 0.29249  0.49945  0.26624  Biso   1.000  S
  S14      1.0000 0.79249  0.00055  0.76624  Biso   1.000  S
  S15      1.0000 0.70751  0.50055  0.73376  Biso   1.000  S
  S16      1.0000 0.20751  0.99945  0.23376  Biso   1.000  S
  O1       1.0000 0.10235  0.47744  0.05453  Biso   1.000  O
  O2       1.0000 0.60235  0.02256  0.55453  Biso   1.000  O
  O3       1.0000 0.89765  0.52256  0.94547  Biso   1.000  O
  O4       1.0000 0.39765  0.97744  0.44547  Biso   1.000  O
  O5       1.0000 0.26748  0.62570  0.09865  Biso   1.000  O
  O6       1.0000 0.76748  0.87430  0.59865  Biso   1.000  O
  O7       1.0000 0.73252  0.37430  0.90135  Biso   1.000  O
  O8       1.0000 0.23252  0.12570  0.40135  Biso   1.000  O
  O9       1.0000 0.10390  0.75363  0.00860  Biso   1.000  O
  O10      1.0000 0.60390  0.74637  0.50860  Biso   1.000  O
  O11      1.0000 0.89610  0.24637  0.99140  Biso   1.000  O
  O12      1.0000 0.39610  0.25363  0.49140  Biso   1.000  O
  O13      1.0000 0.10075  0.46740  0.46799  Biso   1.000  O
  O14      1.0000 0.60075  0.03260  0.96799  Biso   1.000  O
  O15      1.0000 0.89925  0.53260  0.53201  Biso   1.000  O
  O16      1.0000 0.39925  0.96740  0.03201  Biso   1.000  O
  O17      1.0000 0.27580  0.58560  0.44263  Biso   1.000  O
  O18      1.0000 0.77580  0.91440  0.94263  Biso   1.000  O
  O19      1.0000 0.72420  0.41440  0.55737  Biso   1.000  O
  O20      1.0000 0.22420  0.08560  0.05737  Biso   1.000  O
  O21      1.0000 0.15920  0.74174  0.49873  Biso   1.000  O
  O22      1.0000 0.65920  0.75826  0.99873  Biso   1.000  O
  O23      1.0000 0.84080  0.25826  0.50127  Biso   1.000  O
  O24      1.0000 0.34080  0.24174  0.00127  Biso   1.000  O
  N1       1.0000 0.44130  0.56040  0.79960  Biso   1.000  N
  N2       1.0000 0.94130  0.93960  0.29960  Biso   1.000  N
  N3       1.0000 0.55870  0.43960  0.20040  Biso   1.000  N
  N4       1.0000 0.05870  0.06040  0.70040  Biso   1.000  N
  O25      1.0000 0.17740  0.58438  0.95168  Biso   1.000  O
  O26      1.0000 0.67740  0.91562  0.45168  Biso   1.000  O
  O27      1.0000 0.82260  0.41562  0.04832  Biso   1.000  O
  O28      1.0000 0.32260  0.08438  0.54832  Biso   1.000  O
  O29      1.0000 0.04021  0.57900  0.87582  Biso   1.000  O
  O30      1.0000 0.54021  0.92100  0.37582  Biso   1.000  O
  O31      1.0000 0.95979  0.42100  0.12418  Biso   1.000  O
  O32      1.0000 0.45979  0.07900  0.62418  Biso   1.000  O
  O33      1.0000 0.19116  0.58263  0.57880  Biso   1.000  O
  O34      1.0000 0.69116  0.91737  0.07880  Biso   1.000  O
  O35      1.0000 0.80884  0.41737  0.42120  Biso   1.000  O
  O36      1.0000 0.30884  0.08263  0.92120  Biso   1.000  O
  O37      1.0000 0.05039  0.59438  0.61976  Biso   1.000  O
  O38      1.0000 0.55039  0.90562  0.11976  Biso   1.000  O
  O39      1.0000 0.94961  0.40562  0.38024  Biso   1.000  O
  O40      1.0000 0.44961  0.09438  0.88024  Biso   1.000  O
  O41      1.0000 0.47850  0.53870  0.85945  Biso   1.000  O
  O42      1.0000 0.97850  0.96130  0.35945  Biso   1.000  O
  O43      1.0000 0.52150  0.46130  0.14055  Biso   1.000  O
  O44      1.0000 0.02150  0.03870  0.64055  Biso   1.000  O
  O45      1.0000 0.48610  0.57350  0.75041  Biso   1.000  O
  O46      1.0000 0.98610  0.92650  0.25041  Biso   1.000  O
  O47      1.0000 0.51390  0.42650  0.24959  Biso   1.000  O
  O48      1.0000 0.01390  0.07350  0.74959  Biso   1.000  O
  C1       1.0000 0.18660  0.57810  0.82933  Biso   1.000  C
  C2       1.0000 0.68660  0.92190  0.32933  Biso   1.000  C
  C3       1.0000 0.81340  0.42190  0.17067  Biso   1.000  C
  C4       1.0000 0.31340  0.07810  0.67067  Biso   1.000  C
  C5       1.0000 0.14100  0.58250  0.76008  Biso   1.000  C
  C6       1.0000 0.64100  0.91750  0.26008  Biso   1.000  C
  C7       1.0000 0.85900  0.41750  0.23992  Biso   1.000  C
  C8       1.0000 0.35900  0.08250  0.73992  Biso   1.000  C
  H1       1.0000 0.07280  0.58570  0.75120  Biso   1.000  H
  H2       1.0000 0.57280  0.91430  0.25120  Biso   1.000  H
  H3       1.0000 0.92720  0.41430  0.24880  Biso   1.000  H
  H4       1.0000 0.42720  0.08570  0.74880  Biso   1.000  H
  C9       1.0000 0.19190  0.58230  0.70307  Biso   1.000  C
  C10      1.0000 0.69190  0.91770  0.20307  Biso   1.000  C
  C11      1.0000 0.80810  0.41770  0.29693  Biso   1.000  C
  C12      1.0000 0.30810  0.08230  0.79693  Biso   1.000  C
  C13      1.0000 0.29160  0.57630  0.71603  Biso   1.000  C
  C14      1.0000 0.79160  0.92370  0.21603  Biso   1.000  C
  C15      1.0000 0.70840  0.42370  0.28397  Biso   1.000  C
  C16      1.0000 0.20840  0.07630  0.78397  Biso   1.000  C
  H5       1.0000 0.32830  0.57620  0.67800  Biso   1.000  H
  H6       1.0000 0.82830  0.92380  0.17800  Biso   1.000  H
  H7       1.0000 0.67170  0.42380  0.32200  Biso   1.000  H
  H8       1.0000 0.17170  0.07620  0.82200  Biso   1.000  H
  C17      1.0000 0.33560  0.57050  0.78513  Biso   1.000  C
  C18      1.0000 0.83560  0.92950  0.28513  Biso   1.000  C
  C19      1.0000 0.66440  0.42950  0.21487  Biso   1.000  C
  C20      1.0000 0.16440  0.07050  0.71487  Biso   1.000  C
  C21      1.0000 0.28550  0.57140  0.84245  Biso   1.000  C
  C22      1.0000 0.78550  0.92860  0.34245  Biso   1.000  C
  C23      1.0000 0.71450  0.42860  0.15755  Biso   1.000  C
  C24      1.0000 0.21450  0.07140  0.65755  Biso   1.000  C
  H9       1.0000 0.31850  0.56760  0.88970  Biso   1.000  H
  H10      1.0000 0.81850  0.93240  0.38970  Biso   1.000  H
  H11      1.0000 0.68150  0.43240  0.11030  Biso   1.000  H
  H12      1.0000 0.18150  0.06760  0.61030  Biso   1.000  H
  C25      1.0000 0.12880  0.57960  0.89031  Biso   1.000  C
  C26      1.0000 0.62880  0.92040  0.39031  Biso   1.000  C
  C27      1.0000 0.87120  0.42040  0.10969  Biso   1.000  C
  C28      1.0000 0.37120  0.07960  0.60969  Biso   1.000  C
  C29      1.0000 0.13880  0.58690  0.62764  Biso   1.000  C
  C30      1.0000 0.63880  0.91310  0.12764  Biso   1.000  C
  C31      1.0000 0.86120  0.41310  0.37236  Biso   1.000  C
  C32      1.0000 0.36120  0.08690  0.87236  Biso   1.000  C
  C33      1.0000 0.97030  0.65120  0.11050  Biso   1.000  C
  C34      1.0000 0.47030  0.84880  0.61050  Biso   1.000  C
  C35      1.0000 0.02970  0.34880  0.88950  Biso   1.000  C
  C36      1.0000 0.52970  0.15120  0.38950  Biso   1.000  C
  O49      1.0000 0.06924  0.62869  0.38305  Biso   1.000  O
  O50      1.0000 0.56924  0.87131  0.88305  Biso   1.000  O
  O51      1.0000 0.93076  0.37131  0.61695  Biso   1.000  O
  O52      1.0000 0.43076  0.12869  0.11695  Biso   1.000  O
  O53      1.0000 0.93285  0.64694  0.42753  Biso   1.000  O
  O54      1.0000 0.43285  0.85306  0.92753  Biso   1.000  O
  O55      1.0000 0.06715  0.35306  0.57247  Biso   1.000  O
  O56      1.0000 0.56715  0.14694  0.07247  Biso   1.000  O
  O57      1.0000 0.62890  0.67810  0.15718  Biso   1.000  O
  O58      1.0000 0.12890  0.82190  0.65718  Biso   1.000  O
  O59      1.0000 0.37110  0.32190  0.84282  Biso   1.000  O
  O60      1.0000 0.87110  0.17810  0.34282  Biso   1.000  O
  O61      1.0000 0.63270  0.66630  0.26991  Biso   1.000  O
  O62      1.0000 0.13270  0.83370  0.76991  Biso   1.000  O
  O63      1.0000 0.36730  0.33370  0.73009  Biso   1.000  O
  O64      1.0000 0.86730  0.16630  0.23009  Biso   1.000  O
  O65      1.0000 0.06110  0.64387  0.12063  Biso   1.000  O
  O66      1.0000 0.56110  0.85613  0.62063  Biso   1.000  O
  O67      1.0000 0.93890  0.35613  0.87937  Biso   1.000  O
  O68      1.0000 0.43890  0.14387  0.37937  Biso   1.000  O
  O69      1.0000 0.91826  0.64960  0.05151  Biso   1.000  O
  O70      1.0000 0.41826  0.85040  0.55151  Biso   1.000  O
  O71      1.0000 0.08174  0.35040  0.94849  Biso   1.000  O
  O72      1.0000 0.58174  0.14960  0.44849  Biso   1.000  O
  C37      1.0000 0.92690  0.65700  0.30305  Biso   1.000  C
  C38      1.0000 0.42690  0.84300  0.80305  Biso   1.000  C
  C39      1.0000 0.07310  0.34300  0.69695  Biso   1.000  C
  C40      1.0000 0.57310  0.15700  0.19695  Biso   1.000  C
  C41      1.0000 0.82740  0.66420  0.29402  Biso   1.000  C
  C42      1.0000 0.32740  0.83580  0.79402  Biso   1.000  C
  C43      1.0000 0.17260  0.33580  0.70598  Biso   1.000  C
  C44      1.0000 0.67260  0.16420  0.20598  Biso   1.000  C
  H13      1.0000 0.79420  0.66460  0.33400  Biso   1.000  H
  H14      1.0000 0.29420  0.83540  0.83400  Biso   1.000  H
  H15      1.0000 0.20580  0.33540  0.66600  Biso   1.000  H
  H16      1.0000 0.70580  0.16460  0.16600  Biso   1.000  H
  C45      1.0000 0.77750  0.67080  0.22649  Biso   1.000  C
  C46      1.0000 0.27750  0.82920  0.72649  Biso   1.000  C
  C47      1.0000 0.22250  0.32920  0.77351  Biso   1.000  C
  C48      1.0000 0.72250  0.17080  0.27351  Biso   1.000  C
  C49      1.0000 0.82280  0.67090  0.16681  Biso   1.000  C
  C50      1.0000 0.32280  0.82910  0.66681  Biso   1.000  C
  C51      1.0000 0.17720  0.32910  0.83319  Biso   1.000  C
  C52      1.0000 0.67720  0.17090  0.33319  Biso   1.000  C
  H17      1.0000 0.78670  0.67660  0.12070  Biso   1.000  H
  H18      1.0000 0.28670  0.82340  0.62070  Biso   1.000  H
  H19      1.0000 0.21330  0.32340  0.87930  Biso   1.000  H
  H20      1.0000 0.71330  0.17660  0.37930  Biso   1.000  H
  C53      1.0000 0.92230  0.66270  0.17575  Biso   1.000  C
  C54      1.0000 0.42230  0.83730  0.67575  Biso   1.000  C
  C55      1.0000 0.07770  0.33730  0.82425  Biso   1.000  C
  C56      1.0000 0.57770  0.16270  0.32425  Biso   1.000  C
  C57      1.0000 0.97320  0.65640  0.24364  Biso   1.000  C
  C58      1.0000 0.47320  0.84360  0.74364  Biso   1.000  C
  C59      1.0000 0.02680  0.34360  0.75636  Biso   1.000  C
  C60      1.0000 0.52680  0.15640  0.25636  Biso   1.000  C
  H21      1.0000 0.04130  0.65170  0.24960  Biso   1.000  H
  H22      1.0000 0.54130  0.84830  0.74960  Biso   1.000  H
  H23      1.0000 0.95870  0.34830  0.75040  Biso   1.000  H
  H24      1.0000 0.45870  0.15170  0.25040  Biso   1.000  H
  C61      1.0000 0.97930  0.64350  0.37710  Biso   1.000  C
  C62      1.0000 0.47930  0.85650  0.87710  Biso   1.000  C
  C63      1.0000 0.02070  0.35650  0.62290  Biso   1.000  C
  C64      1.0000 0.52070  0.14350  0.12290  Biso   1.000  C
  N5       1.0000 0.67200  0.67300  0.21710  Biso   1.000  N
  N6       1.0000 0.17200  0.82700  0.71710  Biso   1.000  N
  N7       1.0000 0.32800  0.32700  0.78290  Biso   1.000  N
  N8       1.0000 0.82800  0.17300  0.28290  Biso   1.000  N
  O73      1.0000 0.30250  0.59220  0.30617  Biso   1.000  O
  O74      1.0000 0.80250  0.90780  0.80617  Biso   1.000  O
  O75      1.0000 0.69750  0.40780  0.69383  Biso   1.000  O
  O76      1.0000 0.19750  0.09220  0.19383  Biso   1.000  O
  C65      1.0000 0.15740  0.92650  0.49060  Biso   1.000  C
  C66      1.0000 0.65740  0.57350  0.99060  Biso   1.000  C
  C67      1.0000 0.84260  0.07350  0.50940  Biso   1.000  C
  C68      1.0000 0.34260  0.42650  0.00940  Biso   1.000  C
  H25      1.0000 0.11580  0.93750  0.52680  Biso   1.000  H
  H26      1.0000 0.61580  0.56250  0.02680  Biso   1.000  H
  H27      1.0000 0.88420  0.06250  0.47320  Biso   1.000  H
  H28      1.0000 0.38420  0.43750  0.97320  Biso   1.000  H
  H29      1.0000 0.15130  0.98050  0.45710  Biso   1.000  H
  H30      1.0000 0.65130  0.51950  0.95710  Biso   1.000  H
  H31      1.0000 0.84870  0.01950  0.54290  Biso   1.000  H
  H32      1.0000 0.34870  0.48050  0.04290  Biso   1.000  H
  H33      1.0000 0.22440  0.92120  0.51350  Biso   1.000  H
  H34      1.0000 0.72440  0.57880  0.01350  Biso   1.000  H
  H35      1.0000 0.77560  0.07880  0.48650  Biso   1.000  H
  H36      1.0000 0.27560  0.42120  0.98650  Biso   1.000  H
  C69      1.0000 0.41890  0.69150  0.04780  Biso   1.000  C
  C70      1.0000 0.91890  0.80850  0.54780  Biso   1.000  C
  C71      1.0000 0.58110  0.30850  0.95220  Biso   1.000  C
  C72      1.0000 0.08110  0.19150  0.45220  Biso   1.000  C
  H37      1.0000 0.45250  0.63200  0.06430  Biso   1.000  H
  H38      1.0000 0.95250  0.86800  0.56430  Biso   1.000  H
  H39      1.0000 0.54750  0.36800  0.93570  Biso   1.000  H
  H40      1.0000 0.04750  0.13200  0.43570  Biso   1.000  H
  H41      1.0000 0.46480  0.74500  0.05220  Biso   1.000  H
  H42      1.0000 0.96480  0.75500  0.55220  Biso   1.000  H
  H43      1.0000 0.53520  0.25500  0.94780  Biso   1.000  H
  H44      1.0000 0.03520  0.24500  0.44780  Biso   1.000  H
  H45      1.0000 0.39010  0.68420  0.99800  Biso   1.000  H
  H46      1.0000 0.89010  0.81580  0.49800  Biso   1.000  H
  H47      1.0000 0.60990  0.31580  0.00200  Biso   1.000  H
  H48      1.0000 0.10990  0.18420  0.50200  Biso   1.000  H
  C73      1.0000 0.20440  0.82150  0.38250  Biso   1.000  C
  C74      1.0000 0.70440  0.67850  0.88250  Biso   1.000  C
  C75      1.0000 0.79560  0.17850  0.61750  Biso   1.000  C
  C76      1.0000 0.29560  0.32150  0.11750  Biso   1.000  C
  H49      1.0000 0.27010  0.82770  0.40790  Biso   1.000  H
  H50      1.0000 0.77010  0.67230  0.90790  Biso   1.000  H
  H51      1.0000 0.72990  0.17230  0.59210  Biso   1.000  H
  H52      1.0000 0.22990  0.32770  0.09210  Biso   1.000  H
  H53      1.0000 0.18970  0.87670  0.35080  Biso   1.000  H
  H54      1.0000 0.68970  0.62330  0.85080  Biso   1.000  H
  H55      1.0000 0.81030  0.12330  0.64920  Biso   1.000  H
  H56      1.0000 0.31030  0.37670  0.14920  Biso   1.000  H
  H57      1.0000 0.19900  0.76200  0.35460  Biso   1.000  H
  H58      1.0000 0.69900  0.73800  0.85460  Biso   1.000  H
  H59      1.0000 0.80100  0.23800  0.64540  Biso   1.000  H
  H60      1.0000 0.30100  0.26200  0.14540  Biso   1.000  H
  C77      1.0000 0.40130  0.71370  0.18450  Biso   1.000  C
  C78      1.0000 0.90130  0.78630  0.68450  Biso   1.000  C
  C79      1.0000 0.59870  0.28630  0.81550  Biso   1.000  C
  C80      1.0000 0.09870  0.21370  0.31550  Biso   1.000  C
  H61      1.0000 0.36140  0.72490  0.22180  Biso   1.000  H
  H62      1.0000 0.86140  0.77510  0.72180  Biso   1.000  H
  H63      1.0000 0.63860  0.27510  0.77820  Biso   1.000  H
  H64      1.0000 0.13860  0.22490  0.27820  Biso   1.000  H
  H65      1.0000 0.45000  0.76440  0.18620  Biso   1.000  H
  H66      1.0000 0.95000  0.73560  0.68620  Biso   1.000  H
  H67      1.0000 0.55000  0.23560  0.81380  Biso   1.000  H
  H68      1.0000 0.05000  0.26440  0.31380  Biso   1.000  H
  H69      1.0000 0.43300  0.65100  0.19190  Biso   1.000  H
  H70      1.0000 0.93300  0.84900  0.69190  Biso   1.000  H
  H71      1.0000 0.56700  0.34900  0.80810  Biso   1.000  H
  H72      1.0000 0.06700  0.15100  0.30810  Biso   1.000  H
  C81      1.0000 0.15960  0.90960  0.95310  Biso   1.000  C
  C82      1.0000 0.65960  0.59040  0.45310  Biso   1.000  C
  C83      1.0000 0.84040  0.09040  0.04690  Biso   1.000  C
  C84      1.0000 0.34040  0.40960  0.54690  Biso   1.000  C
  H73      1.0000 0.11710  0.94450  0.98080  Biso   1.000  H
  H74      1.0000 0.61710  0.55550  0.48080  Biso   1.000  H
  H75      1.0000 0.88290  0.05550  0.01920  Biso   1.000  H
  H76      1.0000 0.38290  0.44450  0.51920  Biso   1.000  H
  H77      1.0000 0.16190  0.94340  0.90820  Biso   1.000  H
  H78      1.0000 0.66190  0.55660  0.40820  Biso   1.000  H
  H79      1.0000 0.83810  0.05660  0.09180  Biso   1.000  H
  H80      1.0000 0.33810  0.44340  0.59180  Biso   1.000  H
  H81      1.0000 0.22440  0.90640  0.98020  Biso   1.000  H
  H82      1.0000 0.72440  0.59360  0.48020  Biso   1.000  H
  H83      1.0000 0.77560  0.09360  0.01980  Biso   1.000  H
  H84      1.0000 0.27560  0.40640  0.51980  Biso   1.000  H
  C85      1.0000 0.16890  0.47520  0.24990  Biso   1.000  C
  C86      1.0000 0.66890  0.02480  0.74990  Biso   1.000  C
  C87      1.0000 0.83110  0.52480  0.75010  Biso   1.000  C
  C88      1.0000 0.33110  0.97520  0.25010  Biso   1.000  C
  H85      1.0000 0.14140  0.48280  0.29390  Biso   1.000  H
  H86      1.0000 0.64140  0.01720  0.79390  Biso   1.000  H
  H87      1.0000 0.85860  0.51720  0.70610  Biso   1.000  H
  H88      1.0000 0.35860  0.98280  0.20610  Biso   1.000  H
  H89      1.0000 0.15860  0.40910  0.23250  Biso   1.000  H
  H90      1.0000 0.65860  0.09090  0.73250  Biso   1.000  H
  H91      1.0000 0.84140  0.59090  0.76750  Biso   1.000  H
  H92      1.0000 0.34140  0.90910  0.26750  Biso   1.000  H
  H93      1.0000 0.13760  0.52010  0.21410  Biso   1.000  H
  H94      1.0000 0.63760  0.97990  0.71410  Biso   1.000  H
  H95      1.0000 0.86240  0.47990  0.78590  Biso   1.000  H
  H96      1.0000 0.36240  0.02010  0.28590  Biso   1.000  H
  C89      1.0000 0.99970  0.82060  0.89520  Biso   1.000  C
  C90      1.0000 0.49970  0.67940  0.39520  Biso   1.000  C
  C91      1.0000 0.00030  0.17940  0.10480  Biso   1.000  C
  C92      1.0000 0.50030  0.32060  0.60480  Biso   1.000  C
  H97      1.0000 0.96230  0.76130  0.88600  Biso   1.000  H
  H98      1.0000 0.46230  0.73870  0.38600  Biso   1.000  H
  H99      1.0000 0.03770  0.23870  0.11400  Biso   1.000  H
  H100     1.0000 0.53770  0.26130  0.61400  Biso   1.000  H
  H101     1.0000 0.00280  0.85400  0.85030  Biso   1.000  H
  H102     1.0000 0.50280  0.64600  0.35030  Biso   1.000  H
  H103     1.0000 0.99720  0.14600  0.14970  Biso   1.000  H
  H104     1.0000 0.49720  0.35400  0.64970  Biso   1.000  H
  H105     1.0000 0.96880  0.86240  0.92660  Biso   1.000  H
  H106     1.0000 0.46880  0.63760  0.42660  Biso   1.000  H
  H107     1.0000 0.03120  0.13760  0.07340  Biso   1.000  H
  H108     1.0000 0.53120  0.36240  0.57340  Biso   1.000  H
  O77      1.0000 0.40670  0.64370  0.55440  Biso   1.000  O
  O78      1.0000 0.90670  0.85630  0.05440  Biso   1.000  O
  O79      1.0000 0.59330  0.35630  0.44560  Biso   1.000  O
  O80      1.0000 0.09330  0.14370  0.94560  Biso   1.000  O
  C93      1.0000 0.32760  0.40820  0.32950  Biso   1.000  C
  C94      1.0000 0.82760  0.09180  0.82950  Biso   1.000  C
  C95      1.0000 0.67240  0.59180  0.67050  Biso   1.000  C
  C96      1.0000 0.17240  0.90820  0.17050  Biso   1.000  C
  H109     1.0000 0.39600  0.41570  0.34830  Biso   1.000  H
  H110     1.0000 0.89600  0.08430  0.84830  Biso   1.000  H
  H111     1.0000 0.60400  0.58430  0.65170  Biso   1.000  H
  H112     1.0000 0.10400  0.91570  0.15170  Biso   1.000  H
  H113     1.0000 0.31700  0.34500  0.30680  Biso   1.000  H
  H114     1.0000 0.81700  0.15500  0.80680  Biso   1.000  H
  H115     1.0000 0.68300  0.65500  0.69320  Biso   1.000  H
  H116     1.0000 0.18300  0.84500  0.19320  Biso   1.000  H
  H117     1.0000 0.28940  0.41340  0.36840  Biso   1.000  H
  H118     1.0000 0.78940  0.08660  0.86840  Biso   1.000  H
  H119     1.0000 0.71060  0.58660  0.63160  Biso   1.000  H
  H120     1.0000 0.21060  0.91340  0.13160  Biso   1.000  H
  H121     1.0000 0.06030  0.46170  0.07790  Biso   1.000  H
  H122     1.0000 0.56030  0.03830  0.57790  Biso   1.000  H
  H123     1.0000 0.93970  0.53830  0.92210  Biso   1.000  H
  H124     1.0000 0.43970  0.96170  0.42210  Biso   1.000  H
  H125     1.0000 0.05350  0.44640  0.43840  Biso   1.000  H
  H126     1.0000 0.55350  0.05360  0.93840  Biso   1.000  H
  H127     1.0000 0.94650  0.55360  0.56160  Biso   1.000  H
  H128     1.0000 0.44650  0.94640  0.06160  Biso   1.000  H
  H129     1.0000 0.09940  0.44470  0.01680  Biso   1.000  H
  H130     1.0000 0.59940  0.05530  0.51680  Biso   1.000  H
  H131     1.0000 0.90060  0.55530  0.98320  Biso   1.000  H
  H132     1.0000 0.40060  0.94470  0.48320  Biso   1.000  H
  H133     1.0000 0.31690  0.61650  0.47180  Biso   1.000  H
  H134     1.0000 0.81690  0.88350  0.97180  Biso   1.000  H
  H135     1.0000 0.68310  0.38350  0.52820  Biso   1.000  H
  H136     1.0000 0.18310  0.11650  0.02820  Biso   1.000  H
  H137     1.0000 0.10010  0.43660  0.50710  Biso   1.000  H
  H138     1.0000 0.60010  0.06340  0.00710  Biso   1.000  H
  H139     1.0000 0.89990  0.56340  0.49290  Biso   1.000  H
  H140     1.0000 0.39990  0.93660  0.99290  Biso   1.000  H
  H141     1.0000 0.27660  0.58540  0.39390  Biso   1.000  H
  H142     1.0000 0.77660  0.91460  0.89390  Biso   1.000  H
  H143     1.0000 0.72340  0.41460  0.60610  Biso   1.000  H
  H144     1.0000 0.22340  0.08540  0.10610  Biso   1.000  H
