data_image0
_cell_length_a       9.79
_cell_length_b       8.943
_cell_length_c       13.975
_cell_angle_alpha    90
_cell_angle_beta     90
_cell_angle_gamma    90

_symmetry_space_group_name_H-M    "P 1"
_symmetry_int_tables_number       1

loop_
  _symmetry_equiv_pos_as_xyz
  'x, y, z'

loop_
  _atom_site_label
  _atom_site_occupancy
  _atom_site_fract_x
  _atom_site_fract_y
  _atom_site_fract_z
  _atom_site_thermal_displace_type
  _atom_site_B_iso_or_equiv
  _atom_site_type_symbol
  O1       1.0000 0.54940  0.82040  0.27860  Biso   1.000  O
  O2       1.0000 0.45060  0.17960  0.77860  Biso   1.000  O
  O3       1.0000 0.04940  0.17960  0.27860  Biso   1.000  O
  O4       1.0000 0.95060  0.82040  0.77860  Biso   1.000  O
  C1       1.0000 0.51690  0.96290  0.26730  Biso   1.000  C
  C2       1.0000 0.48310  0.03710  0.76730  Biso   1.000  C
  C3       1.0000 0.01690  0.03710  0.26730  Biso   1.000  C
  C4       1.0000 0.98310  0.96290  0.76730  Biso   1.000  C
  C5       1.0000 0.59790  0.05100  0.20670  Biso   1.000  C
  C6       1.0000 0.40210  0.94900  0.70670  Biso   1.000  C
  C7       1.0000 0.09790  0.94900  0.20670  Biso   1.000  C
  C8       1.0000 0.90210  0.05100  0.70670  Biso   1.000  C
  H1       1.0000 0.66890  0.00700  0.17260  Biso   1.000  H
  H2       1.0000 0.33110  0.99300  0.67260  Biso   1.000  H
  H3       1.0000 0.16890  0.99300  0.17260  Biso   1.000  H
  H4       1.0000 0.83110  0.00700  0.67260  Biso   1.000  H
  Cu1      1.0000 0.73599  0.73306  0.38089  Biso   1.000  Cu
  Cu2      1.0000 0.26401  0.26694  0.88089  Biso   1.000  Cu
  Cu3      1.0000 0.23599  0.26694  0.38089  Biso   1.000  Cu
  Cu4      1.0000 0.76401  0.73306  0.88089  Biso   1.000  Cu
  N1       1.0000 0.24000  0.06250  0.43840  Biso   1.000  N
  N2       1.0000 0.76000  0.93750  0.93840  Biso   1.000  N
  N3       1.0000 0.74000  0.93750  0.43840  Biso   1.000  N
  N4       1.0000 0.26000  0.06250  0.93840  Biso   1.000  N
  C9       1.0000 0.31450  0.96310  0.38550  Biso   1.000  C
  C10      1.0000 0.68550  0.03690  0.88550  Biso   1.000  C
  C11      1.0000 0.81450  0.03690  0.38550  Biso   1.000  C
  C12      1.0000 0.18550  0.96310  0.88550  Biso   1.000  C
  O5       1.0000 0.71120  0.54830  0.30760  Biso   1.000  O
  O6       1.0000 0.28880  0.45170  0.80760  Biso   1.000  O
  O7       1.0000 0.21120  0.45170  0.30760  Biso   1.000  O
  O8       1.0000 0.78880  0.54830  0.80760  Biso   1.000  O
  O9       1.0000 0.59320  0.66120  0.47280  Biso   1.000  O
  O10      1.0000 0.40680  0.33880  0.97280  Biso   1.000  O
  O11      1.0000 0.09320  0.33880  0.47280  Biso   1.000  O
  O12      1.0000 0.90680  0.66120  0.97280  Biso   1.000  O
  N5       1.0000 0.38700  0.18350  0.30500  Biso   1.000  N
  N6       1.0000 0.61300  0.81650  0.80500  Biso   1.000  N
  N7       1.0000 0.88700  0.81650  0.30500  Biso   1.000  N
  N8       1.0000 0.11300  0.18350  0.80500  Biso   1.000  N
  O13      1.0000 0.34690  0.70510  0.34130  Biso   1.000  O
  O14      1.0000 0.65310  0.29490  0.84130  Biso   1.000  O
  O15      1.0000 0.84690  0.29490  0.34130  Biso   1.000  O
  O16      1.0000 0.15310  0.70510  0.84130  Biso   1.000  O
  H5       1.0000 0.39660  0.74640  0.30210  Biso   1.000  H
  H6       1.0000 0.60340  0.25360  0.80210  Biso   1.000  H
  H7       1.0000 0.89660  0.25360  0.30210  Biso   1.000  H
  H8       1.0000 0.10340  0.74640  0.80210  Biso   1.000  H
  N9       1.0000 0.89190  0.57960  0.57070  Biso   1.000  N
  N10      1.0000 0.10810  0.42040  0.07070  Biso   1.000  N
  N11      1.0000 0.39190  0.42040  0.57070  Biso   1.000  N
  N12      1.0000 0.60810  0.57960  0.07070  Biso   1.000  N
  C13      1.0000 0.46840  0.26470  0.24860  Biso   1.000  C
  C14      1.0000 0.53160  0.73530  0.74860  Biso   1.000  C
  C15      1.0000 0.96840  0.73530  0.24860  Biso   1.000  C
  C16      1.0000 0.03160  0.26470  0.74860  Biso   1.000  C
  H9       1.0000 0.45370  0.36720  0.24410  Biso   1.000  H
  H10      1.0000 0.54630  0.63280  0.74410  Biso   1.000  H
  H11      1.0000 0.95370  0.63280  0.24410  Biso   1.000  H
  H12      1.0000 0.04630  0.36720  0.74410  Biso   1.000  H
  O17      1.0000 0.99510  0.55250  0.61800  Biso   1.000  O
  O18      1.0000 0.00490  0.44750  0.11800  Biso   1.000  O
  O19      1.0000 0.49510  0.44750  0.61800  Biso   1.000  O
  O20      1.0000 0.50490  0.55250  0.11800  Biso   1.000  O
  O21      1.0000 0.89720  0.58700  0.48160  Biso   1.000  O
  O22      1.0000 0.10280  0.41300  0.98160  Biso   1.000  O
  O23      1.0000 0.39720  0.41300  0.48160  Biso   1.000  O
  O24      1.0000 0.60280  0.58700  0.98160  Biso   1.000  O
  C17      1.0000 0.57340  0.20160  0.19700  Biso   1.000  C
  C18      1.0000 0.42660  0.79840  0.69700  Biso   1.000  C
  C19      1.0000 0.07340  0.79840  0.19700  Biso   1.000  C
  C20      1.0000 0.92660  0.20160  0.69700  Biso   1.000  C
  H13      1.0000 0.62670  0.25980  0.15640  Biso   1.000  H
  H14      1.0000 0.37330  0.74020  0.65640  Biso   1.000  H
  H15      1.0000 0.12670  0.74020  0.15640  Biso   1.000  H
  H16      1.0000 0.87330  0.25980  0.65640  Biso   1.000  H
  C21      1.0000 0.15410  0.01680  0.50500  Biso   1.000  C
  C22      1.0000 0.84590  0.98320  0.00500  Biso   1.000  C
  C23      1.0000 0.65410  0.98320  0.50500  Biso   1.000  C
  C24      1.0000 0.34590  0.01680  0.00500  Biso   1.000  C
  H17      1.0000 0.10620  0.08790  0.54010  Biso   1.000  H
  H18      1.0000 0.89380  0.91210  0.04010  Biso   1.000  H
  H19      1.0000 0.60620  0.91210  0.54010  Biso   1.000  H
  H20      1.0000 0.39380  0.08790  0.04010  Biso   1.000  H
  C25      1.0000 0.40900  0.03390  0.31650  Biso   1.000  C
  C26      1.0000 0.59100  0.96610  0.81650  Biso   1.000  C
  C27      1.0000 0.90900  0.96610  0.31650  Biso   1.000  C
  C28      1.0000 0.09100  0.03390  0.81650  Biso   1.000  C
  C29      1.0000 0.13270  0.86660  0.52460  Biso   1.000  C
  C30      1.0000 0.86730  0.13340  0.02460  Biso   1.000  C
  C31      1.0000 0.63270  0.13340  0.52460  Biso   1.000  C
  C32      1.0000 0.36730  0.86660  0.02460  Biso   1.000  C
  H21      1.0000 0.07310  0.83650  0.57260  Biso   1.000  H
  H22      1.0000 0.92690  0.16350  0.07260  Biso   1.000  H
  H23      1.0000 0.57310  0.16350  0.57260  Biso   1.000  H
  H24      1.0000 0.42690  0.83650  0.07260  Biso   1.000  H
  O25      1.0000 0.78130  0.59860  0.61260  Biso   1.000  O
  O26      1.0000 0.21870  0.40140  0.11260  Biso   1.000  O
  O27      1.0000 0.28130  0.40140  0.61260  Biso   1.000  O
  O28      1.0000 0.71870  0.59860  0.11260  Biso   1.000  O
  C33      1.0000 0.29050  0.80760  0.39800  Biso   1.000  C
  C34      1.0000 0.70950  0.19240  0.89800  Biso   1.000  C
  C35      1.0000 0.79050  0.19240  0.39800  Biso   1.000  C
  C36      1.0000 0.20950  0.80760  0.89800  Biso   1.000  C
  C37      1.0000 0.20260  0.76410  0.47040  Biso   1.000  C
  C38      1.0000 0.79740  0.23590  0.97040  Biso   1.000  C
  C39      1.0000 0.70260  0.23590  0.47040  Biso   1.000  C
  C40      1.0000 0.29740  0.76410  0.97040  Biso   1.000  C
  H25      1.0000 0.19060  0.66270  0.48270  Biso   1.000  H
  H26      1.0000 0.80940  0.33730  0.98270  Biso   1.000  H
  H27      1.0000 0.69060  0.33730  0.48270  Biso   1.000  H
  H28      1.0000 0.30940  0.66270  0.98270  Biso   1.000  H
  H29      1.0000 0.53900  0.59900  0.44800  Biso   1.000  H
  H30      1.0000 0.46100  0.40100  0.94800  Biso   1.000  H
  H31      1.0000 0.03900  0.40100  0.44800  Biso   1.000  H
  H32      1.0000 0.96100  0.59900  0.94800  Biso   1.000  H
  H33      1.0000 0.70400  0.56900  0.24890  Biso   1.000  H
  H34      1.0000 0.29600  0.43100  0.74890  Biso   1.000  H
  H35      1.0000 0.20400  0.43100  0.24890  Biso   1.000  H
  H36      1.0000 0.79600  0.56900  0.74890  Biso   1.000  H
  H37      1.0000 0.76100  0.47200  0.31700  Biso   1.000  H
  H38      1.0000 0.23900  0.52800  0.81700  Biso   1.000  H
  H39      1.0000 0.26100  0.52800  0.31700  Biso   1.000  H
  H40      1.0000 0.73900  0.47200  0.81700  Biso   1.000  H
  H41      1.0000 0.62500  0.62700  0.52500  Biso   1.000  H
  H42      1.0000 0.37500  0.37300  0.02500  Biso   1.000  H
  H43      1.0000 0.12500  0.37300  0.52500  Biso   1.000  H
  H44      1.0000 0.87500  0.62700  0.02500  Biso   1.000  H
