data_image0
_cell_length_a       14.4994
_cell_length_b       15.8128
_cell_length_c       16.685
_cell_angle_alpha    90
_cell_angle_beta     90
_cell_angle_gamma    90

_symmetry_space_group_name_H-M    "P 1"
_symmetry_int_tables_number       1

loop_
  _symmetry_equiv_pos_as_xyz
  'x, y, z'

loop_
  _atom_site_label
  _atom_site_occupancy
  _atom_site_fract_x
  _atom_site_fract_y
  _atom_site_fract_z
  _atom_site_thermal_displace_type
  _atom_site_B_iso_or_equiv
  _atom_site_type_symbol
  Cu1      1.0000 0.50000  0.25000  0.04554  Biso   1.000  Cu
  Cu2      1.0000 0.00000  0.25000  0.54554  Biso   1.000  Cu
  Cu3      1.0000 0.50000  0.75000  0.95446  Biso   1.000  Cu
  Cu4      1.0000 0.00000  0.75000  0.45446  Biso   1.000  Cu
  N1       1.0000 0.59454  0.25634  0.95785  Biso   1.000  N
  N2       1.0000 0.09454  0.24366  0.45785  Biso   1.000  N
  N3       1.0000 0.59454  0.75634  0.04215  Biso   1.000  N
  N4       1.0000 0.90546  0.25634  0.45785  Biso   1.000  N
  N5       1.0000 0.40546  0.74366  0.04215  Biso   1.000  N
  N6       1.0000 0.90546  0.75634  0.54215  Biso   1.000  N
  N7       1.0000 0.40546  0.24366  0.95785  Biso   1.000  N
  N8       1.0000 0.09454  0.74366  0.54215  Biso   1.000  N
  C1       1.0000 0.65365  0.32134  0.95001  Biso   1.000  C
  C2       1.0000 0.15365  0.17866  0.45001  Biso   1.000  C
  C3       1.0000 0.65365  0.82134  0.04999  Biso   1.000  C
  C4       1.0000 0.84635  0.32134  0.45001  Biso   1.000  C
  C5       1.0000 0.34635  0.67866  0.04999  Biso   1.000  C
  C6       1.0000 0.84635  0.82134  0.54999  Biso   1.000  C
  C7       1.0000 0.34635  0.17866  0.95001  Biso   1.000  C
  C8       1.0000 0.15365  0.67866  0.54999  Biso   1.000  C
  H1       1.0000 0.65410  0.36320  0.98920  Biso   1.000  H
  H2       1.0000 0.15410  0.13680  0.48920  Biso   1.000  H
  H3       1.0000 0.65410  0.86320  0.01080  Biso   1.000  H
  H4       1.0000 0.84590  0.36320  0.48920  Biso   1.000  H
  H5       1.0000 0.34590  0.63680  0.01080  Biso   1.000  H
  H6       1.0000 0.84590  0.86320  0.51080  Biso   1.000  H
  H7       1.0000 0.34590  0.13680  0.98920  Biso   1.000  H
  H8       1.0000 0.15410  0.63680  0.51080  Biso   1.000  H
  C9       1.0000 0.71363  0.32835  0.88618  Biso   1.000  C
  C10      1.0000 0.21363  0.17165  0.38618  Biso   1.000  C
  C11      1.0000 0.71363  0.82835  0.11382  Biso   1.000  C
  C12      1.0000 0.78637  0.32835  0.38618  Biso   1.000  C
  C13      1.0000 0.28637  0.67165  0.11382  Biso   1.000  C
  C14      1.0000 0.78637  0.82835  0.61382  Biso   1.000  C
  C15      1.0000 0.28637  0.17165  0.88618  Biso   1.000  C
  C16      1.0000 0.21363  0.67165  0.61382  Biso   1.000  C
  H9       1.0000 0.75380  0.37410  0.88280  Biso   1.000  H
  H10      1.0000 0.25380  0.12590  0.38280  Biso   1.000  H
  H11      1.0000 0.75380  0.87410  0.11720  Biso   1.000  H
  H12      1.0000 0.74620  0.37410  0.38280  Biso   1.000  H
  H13      1.0000 0.24620  0.62590  0.11720  Biso   1.000  H
  H14      1.0000 0.74620  0.87410  0.61720  Biso   1.000  H
  H15      1.0000 0.24620  0.12590  0.88280  Biso   1.000  H
  H16      1.0000 0.25380  0.62590  0.61720  Biso   1.000  H
  C17      1.0000 0.71362  0.26631  0.82664  Biso   1.000  C
  C18      1.0000 0.21362  0.23369  0.32664  Biso   1.000  C
  C19      1.0000 0.71362  0.76631  0.17336  Biso   1.000  C
  C20      1.0000 0.78638  0.26631  0.32664  Biso   1.000  C
  C21      1.0000 0.28638  0.73369  0.17336  Biso   1.000  C
  C22      1.0000 0.78638  0.76631  0.67336  Biso   1.000  C
  C23      1.0000 0.28638  0.23369  0.82664  Biso   1.000  C
  C24      1.0000 0.21362  0.73369  0.67336  Biso   1.000  C
  C25      1.0000 0.65162  0.19960  0.83492  Biso   1.000  C
  C26      1.0000 0.15162  0.30040  0.33492  Biso   1.000  C
  C27      1.0000 0.65162  0.69960  0.16508  Biso   1.000  C
  C28      1.0000 0.84838  0.19960  0.33492  Biso   1.000  C
  C29      1.0000 0.34838  0.80040  0.16508  Biso   1.000  C
  C30      1.0000 0.84838  0.69960  0.66508  Biso   1.000  C
  C31      1.0000 0.34838  0.30040  0.83492  Biso   1.000  C
  C32      1.0000 0.15162  0.80040  0.66508  Biso   1.000  C
  H17      1.0000 0.64890  0.15740  0.79620  Biso   1.000  H
  H18      1.0000 0.14890  0.34260  0.29620  Biso   1.000  H
  H19      1.0000 0.64890  0.65740  0.20380  Biso   1.000  H
  H20      1.0000 0.85110  0.15740  0.29620  Biso   1.000  H
  H21      1.0000 0.35110  0.84260  0.20380  Biso   1.000  H
  H22      1.0000 0.85110  0.65740  0.70380  Biso   1.000  H
  H23      1.0000 0.35110  0.34260  0.79620  Biso   1.000  H
  H24      1.0000 0.14890  0.84260  0.70380  Biso   1.000  H
  C33      1.0000 0.59440  0.19647  0.90060  Biso   1.000  C
  C34      1.0000 0.09440  0.30353  0.40060  Biso   1.000  C
  C35      1.0000 0.59440  0.69647  0.09940  Biso   1.000  C
  C36      1.0000 0.90560  0.19647  0.40060  Biso   1.000  C
  C37      1.0000 0.40560  0.80353  0.09940  Biso   1.000  C
  C38      1.0000 0.90560  0.69647  0.59940  Biso   1.000  C
  C39      1.0000 0.40560  0.30353  0.90060  Biso   1.000  C
  C40      1.0000 0.09440  0.80353  0.59940  Biso   1.000  C
  H25      1.0000 0.55400  0.15110  0.90560  Biso   1.000  H
  H26      1.0000 0.05400  0.34890  0.40560  Biso   1.000  H
  H27      1.0000 0.55400  0.65110  0.09440  Biso   1.000  H
  H28      1.0000 0.94600  0.15110  0.40560  Biso   1.000  H
  H29      1.0000 0.44600  0.84890  0.09440  Biso   1.000  H
  H30      1.0000 0.94600  0.65110  0.59440  Biso   1.000  H
  H31      1.0000 0.44600  0.34890  0.90560  Biso   1.000  H
  H32      1.0000 0.05400  0.84890  0.59440  Biso   1.000  H
  N9       1.0000 0.90292  0.26759  0.63033  Biso   1.000  N
  N10      1.0000 0.40292  0.23241  0.13033  Biso   1.000  N
  N11      1.0000 0.90292  0.76759  0.36967  Biso   1.000  N
  N12      1.0000 0.59708  0.26759  0.13033  Biso   1.000  N
  N13      1.0000 0.09708  0.73241  0.36967  Biso   1.000  N
  N14      1.0000 0.59708  0.76759  0.86967  Biso   1.000  N
  N15      1.0000 0.09708  0.23241  0.63033  Biso   1.000  N
  N16      1.0000 0.40292  0.73241  0.86967  Biso   1.000  N
  C41      1.0000 0.91992  0.31293  0.69700  Biso   1.000  C
  C42      1.0000 0.41992  0.18707  0.19700  Biso   1.000  C
  C43      1.0000 0.91992  0.81293  0.30300  Biso   1.000  C
  C44      1.0000 0.58008  0.31293  0.19700  Biso   1.000  C
  C45      1.0000 0.08008  0.68707  0.30300  Biso   1.000  C
  C46      1.0000 0.58008  0.81293  0.80300  Biso   1.000  C
  C47      1.0000 0.08008  0.18707  0.69700  Biso   1.000  C
  C48      1.0000 0.41992  0.68707  0.80300  Biso   1.000  C
  H33      1.0000 0.97410  0.34420  0.69980  Biso   1.000  H
  H34      1.0000 0.47410  0.15580  0.19980  Biso   1.000  H
  H35      1.0000 0.97410  0.84420  0.30020  Biso   1.000  H
  H36      1.0000 0.52590  0.34420  0.19980  Biso   1.000  H
  H37      1.0000 0.02590  0.65580  0.30020  Biso   1.000  H
  H38      1.0000 0.52590  0.84420  0.80020  Biso   1.000  H
  H39      1.0000 0.02590  0.15580  0.69980  Biso   1.000  H
  H40      1.0000 0.47410  0.65580  0.80020  Biso   1.000  H
  C49      1.0000 0.86028  0.31485  0.76134  Biso   1.000  C
  C50      1.0000 0.36028  0.18515  0.26134  Biso   1.000  C
  C51      1.0000 0.86028  0.81485  0.23866  Biso   1.000  C
  C52      1.0000 0.63972  0.31485  0.26134  Biso   1.000  C
  C53      1.0000 0.13972  0.68515  0.23866  Biso   1.000  C
  C54      1.0000 0.63972  0.81485  0.73866  Biso   1.000  C
  C55      1.0000 0.13972  0.18515  0.76134  Biso   1.000  C
  C56      1.0000 0.36028  0.68515  0.73866  Biso   1.000  C
  H41      1.0000 0.87500  0.34600  0.80680  Biso   1.000  H
  H42      1.0000 0.37500  0.15400  0.30680  Biso   1.000  H
  H43      1.0000 0.87500  0.84600  0.19320  Biso   1.000  H
  H44      1.0000 0.62500  0.34600  0.30680  Biso   1.000  H
  H45      1.0000 0.12500  0.65400  0.19320  Biso   1.000  H
  H46      1.0000 0.62500  0.84600  0.69320  Biso   1.000  H
  H47      1.0000 0.12500  0.15400  0.80680  Biso   1.000  H
  H48      1.0000 0.37500  0.65400  0.69320  Biso   1.000  H
  C57      1.0000 0.77747  0.26962  0.75771  Biso   1.000  C
  C58      1.0000 0.27747  0.23038  0.25771  Biso   1.000  C
  C59      1.0000 0.77747  0.76962  0.24229  Biso   1.000  C
  C60      1.0000 0.72253  0.26962  0.25771  Biso   1.000  C
  C61      1.0000 0.22253  0.73038  0.24229  Biso   1.000  C
  C62      1.0000 0.72253  0.76962  0.74229  Biso   1.000  C
  C63      1.0000 0.22253  0.23038  0.75771  Biso   1.000  C
  C64      1.0000 0.27747  0.73038  0.74229  Biso   1.000  C
  C65      1.0000 0.75826  0.22619  0.68675  Biso   1.000  C
  C66      1.0000 0.25826  0.27381  0.18675  Biso   1.000  C
  C67      1.0000 0.75826  0.72619  0.31325  Biso   1.000  C
  C68      1.0000 0.74174  0.22619  0.18675  Biso   1.000  C
  C69      1.0000 0.24174  0.77381  0.31325  Biso   1.000  C
  C70      1.0000 0.74174  0.72619  0.81325  Biso   1.000  C
  C71      1.0000 0.24174  0.27381  0.68675  Biso   1.000  C
  C72      1.0000 0.25826  0.77381  0.81325  Biso   1.000  C
  H49      1.0000 0.70260  0.19770  0.68070  Biso   1.000  H
  H50      1.0000 0.20260  0.30230  0.18070  Biso   1.000  H
  H51      1.0000 0.70260  0.69770  0.31930  Biso   1.000  H
  H52      1.0000 0.79740  0.19770  0.18070  Biso   1.000  H
  H53      1.0000 0.29740  0.80230  0.31930  Biso   1.000  H
  H54      1.0000 0.79740  0.69770  0.81930  Biso   1.000  H
  H55      1.0000 0.29740  0.30230  0.68070  Biso   1.000  H
  H56      1.0000 0.20260  0.80230  0.81930  Biso   1.000  H
  C73      1.0000 0.82226  0.22591  0.62585  Biso   1.000  C
  C74      1.0000 0.32226  0.27409  0.12585  Biso   1.000  C
  C75      1.0000 0.82226  0.72591  0.37415  Biso   1.000  C
  C76      1.0000 0.67774  0.22591  0.12585  Biso   1.000  C
  C77      1.0000 0.17774  0.77409  0.37415  Biso   1.000  C
  C78      1.0000 0.67774  0.72591  0.87415  Biso   1.000  C
  C79      1.0000 0.17774  0.27409  0.62585  Biso   1.000  C
  C80      1.0000 0.32226  0.77409  0.87415  Biso   1.000  C
  H57      1.0000 0.80910  0.19550  0.57950  Biso   1.000  H
  H58      1.0000 0.30910  0.30450  0.07950  Biso   1.000  H
  H59      1.0000 0.80910  0.69550  0.42050  Biso   1.000  H
  H60      1.0000 0.69090  0.19550  0.07950  Biso   1.000  H
  H61      1.0000 0.19090  0.80450  0.42050  Biso   1.000  H
  H62      1.0000 0.69090  0.69550  0.92050  Biso   1.000  H
  H63      1.0000 0.19090  0.30450  0.57950  Biso   1.000  H
  H64      1.0000 0.30910  0.80450  0.92050  Biso   1.000  H
  O1       1.0000 0.47156  0.40228  0.05136  Biso   1.000  O
  O2       1.0000 0.97156  0.09772  0.55136  Biso   1.000  O
  O3       1.0000 0.47156  0.90228  0.94864  Biso   1.000  O
  O4       1.0000 0.02844  0.40228  0.55136  Biso   1.000  O
  O5       1.0000 0.52844  0.59772  0.94864  Biso   1.000  O
  O6       1.0000 0.02844  0.90228  0.44864  Biso   1.000  O
  O7       1.0000 0.52844  0.09772  0.05136  Biso   1.000  O
  O8       1.0000 0.97156  0.59772  0.44864  Biso   1.000  O
  H65      1.0000 0.51040  0.43700  0.07030  Biso   1.000  H
  H66      1.0000 0.01040  0.06300  0.57030  Biso   1.000  H
  H67      1.0000 0.51040  0.93700  0.92970  Biso   1.000  H
  H68      1.0000 0.98960  0.43700  0.57030  Biso   1.000  H
  H69      1.0000 0.48960  0.56300  0.92970  Biso   1.000  H
  H70      1.0000 0.98960  0.93700  0.42970  Biso   1.000  H
  H71      1.0000 0.48960  0.06300  0.07030  Biso   1.000  H
  H72      1.0000 0.01040  0.56300  0.42970  Biso   1.000  H
  H73      1.0000 0.42500  0.42800  0.03190  Biso   1.000  H
  H74      1.0000 0.92500  0.07200  0.53190  Biso   1.000  H
  H75      1.0000 0.42500  0.92800  0.96810  Biso   1.000  H
  H76      1.0000 0.07500  0.42800  0.53190  Biso   1.000  H
  H77      1.0000 0.57500  0.57200  0.96810  Biso   1.000  H
  H78      1.0000 0.07500  0.92800  0.46810  Biso   1.000  H
  H79      1.0000 0.57500  0.07200  0.03190  Biso   1.000  H
  H80      1.0000 0.92500  0.57200  0.46810  Biso   1.000  H
  S1       1.0000 0.80687  0.04051  0.99854  Biso   1.000  S
  S2       1.0000 0.30687  0.45949  0.49854  Biso   1.000  S
  S3       1.0000 0.80687  0.54051  0.00146  Biso   1.000  S
  S4       1.0000 0.69313  0.04051  0.49854  Biso   1.000  S
  S5       1.0000 0.19313  0.95949  0.00146  Biso   1.000  S
  S6       1.0000 0.69313  0.54051  0.50146  Biso   1.000  S
  S7       1.0000 0.19313  0.45949  0.99854  Biso   1.000  S
  S8       1.0000 0.30687  0.95949  0.50146  Biso   1.000  S
  O9       1.0000 0.84458  0.97679  0.05144  Biso   1.000  O
  O10      1.0000 0.34458  0.52321  0.55144  Biso   1.000  O
  O11      1.0000 0.84458  0.47679  0.94856  Biso   1.000  O
  O12      1.0000 0.65542  0.97679  0.55144  Biso   1.000  O
  O13      1.0000 0.15542  0.02321  0.94856  Biso   1.000  O
  O14      1.0000 0.65542  0.47679  0.44856  Biso   1.000  O
  O15      1.0000 0.15542  0.52321  0.05144  Biso   1.000  O
  O16      1.0000 0.34458  0.02321  0.44856  Biso   1.000  O
  O17      1.0000 0.82221  0.12668  0.02366  Biso   1.000  O
  O18      1.0000 0.32221  0.37332  0.52366  Biso   1.000  O
  O19      1.0000 0.82221  0.62668  0.97634  Biso   1.000  O
  O20      1.0000 0.67779  0.12668  0.52366  Biso   1.000  O
  O21      1.0000 0.17779  0.87332  0.97634  Biso   1.000  O
  O22      1.0000 0.67779  0.62668  0.47634  Biso   1.000  O
  O23      1.0000 0.17779  0.37332  0.02366  Biso   1.000  O
  O24      1.0000 0.32221  0.87332  0.47634  Biso   1.000  O
  N17      1.0000 0.69843  0.02319  0.98011  Biso   1.000  N
  N18      1.0000 0.19843  0.47681  0.48011  Biso   1.000  N
  N19      1.0000 0.69843  0.52319  0.01989  Biso   1.000  N
  N20      1.0000 0.80157  0.02319  0.48011  Biso   1.000  N
  N21      1.0000 0.30157  0.97681  0.01989  Biso   1.000  N
  N22      1.0000 0.80157  0.52319  0.51989  Biso   1.000  N
  N23      1.0000 0.30157  0.47681  0.98011  Biso   1.000  N
  N24      1.0000 0.19843  0.97681  0.51989  Biso   1.000  N
  C81      1.0000 0.68414  0.00822  0.90151  Biso   1.000  C
  C82      1.0000 0.18414  0.49178  0.40151  Biso   1.000  C
  C83      1.0000 0.68414  0.50822  0.09849  Biso   1.000  C
  C84      1.0000 0.81586  0.00822  0.40151  Biso   1.000  C
  C85      1.0000 0.31586  0.99178  0.09849  Biso   1.000  C
  C86      1.0000 0.81586  0.50822  0.59849  Biso   1.000  C
  C87      1.0000 0.31586  0.49178  0.90151  Biso   1.000  C
  C88      1.0000 0.18414  0.99178  0.59849  Biso   1.000  C
  O25      1.0000 0.60738  0.99344  0.87090  Biso   1.000  O
  O26      1.0000 0.10738  0.50656  0.37090  Biso   1.000  O
  O27      1.0000 0.60738  0.49344  0.12910  Biso   1.000  O
  O28      1.0000 0.89262  0.99344  0.37090  Biso   1.000  O
  O29      1.0000 0.39262  0.00656  0.12910  Biso   1.000  O
  O30      1.0000 0.89262  0.49344  0.62910  Biso   1.000  O
  O31      1.0000 0.39262  0.50656  0.87090  Biso   1.000  O
  O32      1.0000 0.10738  0.00656  0.62910  Biso   1.000  O
  C89      1.0000 0.77124  0.01031  0.85204  Biso   1.000  C
  C90      1.0000 0.27124  0.48969  0.35204  Biso   1.000  C
  C91      1.0000 0.77124  0.51031  0.14796  Biso   1.000  C
  C92      1.0000 0.72876  0.01031  0.35204  Biso   1.000  C
  C93      1.0000 0.22876  0.98969  0.14796  Biso   1.000  C
  C94      1.0000 0.72876  0.51031  0.64796  Biso   1.000  C
  C95      1.0000 0.22876  0.48969  0.85204  Biso   1.000  C
  C96      1.0000 0.27124  0.98969  0.64796  Biso   1.000  C
  C97      1.0000 0.78093  0.99847  0.77018  Biso   1.000  C
  C98      1.0000 0.28093  0.50153  0.27018  Biso   1.000  C
  C99      1.0000 0.78093  0.49847  0.22982  Biso   1.000  C
  C100     1.0000 0.71907  0.99847  0.27018  Biso   1.000  C
  C101     1.0000 0.21907  0.00153  0.22982  Biso   1.000  C
  C102     1.0000 0.71907  0.49847  0.72982  Biso   1.000  C
  C103     1.0000 0.21907  0.50153  0.77018  Biso   1.000  C
  C104     1.0000 0.28093  0.00153  0.72982  Biso   1.000  C
  H81      1.0000 0.72990  0.98940  0.73750  Biso   1.000  H
  H82      1.0000 0.22990  0.51060  0.23750  Biso   1.000  H
  H83      1.0000 0.72990  0.48940  0.26250  Biso   1.000  H
  H84      1.0000 0.77010  0.98940  0.23750  Biso   1.000  H
  H85      1.0000 0.27010  0.01060  0.26250  Biso   1.000  H
  H86      1.0000 0.77010  0.48940  0.76250  Biso   1.000  H
  H87      1.0000 0.27010  0.51060  0.73750  Biso   1.000  H
  H88      1.0000 0.22990  0.01060  0.76250  Biso   1.000  H
  C105     1.0000 0.87020  0.00065  0.73841  Biso   1.000  C
  C106     1.0000 0.37020  0.49935  0.23841  Biso   1.000  C
  C107     1.0000 0.87020  0.50065  0.26159  Biso   1.000  C
  C108     1.0000 0.62980  0.00065  0.23841  Biso   1.000  C
  C109     1.0000 0.12980  0.99935  0.26159  Biso   1.000  C
  C110     1.0000 0.62980  0.50065  0.76159  Biso   1.000  C
  C111     1.0000 0.12980  0.49935  0.73841  Biso   1.000  C
  C112     1.0000 0.37020  0.99935  0.76159  Biso   1.000  C
  H89      1.0000 0.87870  0.99340  0.68360  Biso   1.000  H
  H90      1.0000 0.37870  0.50660  0.18360  Biso   1.000  H
  H91      1.0000 0.87870  0.49340  0.31640  Biso   1.000  H
  H92      1.0000 0.62130  0.99340  0.18360  Biso   1.000  H
  H93      1.0000 0.12130  0.00660  0.31640  Biso   1.000  H
  H94      1.0000 0.62130  0.49340  0.81640  Biso   1.000  H
  H95      1.0000 0.12130  0.50660  0.68360  Biso   1.000  H
  H96      1.0000 0.37870  0.00660  0.81640  Biso   1.000  H
  C113     1.0000 0.94651  0.01352  0.78740  Biso   1.000  C
  C114     1.0000 0.44651  0.48648  0.28740  Biso   1.000  C
  C115     1.0000 0.94651  0.51352  0.21260  Biso   1.000  C
  C116     1.0000 0.55349  0.01352  0.28740  Biso   1.000  C
  C117     1.0000 0.05349  0.98648  0.21260  Biso   1.000  C
  C118     1.0000 0.55349  0.51352  0.71260  Biso   1.000  C
  C119     1.0000 0.05349  0.48648  0.78740  Biso   1.000  C
  C120     1.0000 0.44651  0.98648  0.71260  Biso   1.000  C
  H97      1.0000 0.00520  0.01290  0.76490  Biso   1.000  H
  H98      1.0000 0.50520  0.48710  0.26490  Biso   1.000  H
  H99      1.0000 0.00520  0.51290  0.23510  Biso   1.000  H
  H100     1.0000 0.49480  0.01290  0.26490  Biso   1.000  H
  H101     1.0000 0.99480  0.98710  0.23510  Biso   1.000  H
  H102     1.0000 0.49480  0.51290  0.73510  Biso   1.000  H
  H103     1.0000 0.99480  0.48710  0.76490  Biso   1.000  H
  H104     1.0000 0.50520  0.98710  0.73510  Biso   1.000  H
  C121     1.0000 0.93695  0.02736  0.86918  Biso   1.000  C
  C122     1.0000 0.43695  0.47264  0.36918  Biso   1.000  C
  C123     1.0000 0.93695  0.52736  0.13082  Biso   1.000  C
  C124     1.0000 0.56305  0.02736  0.36918  Biso   1.000  C
  C125     1.0000 0.06305  0.97264  0.13082  Biso   1.000  C
  C126     1.0000 0.56305  0.52736  0.63082  Biso   1.000  C
  C127     1.0000 0.06305  0.47264  0.86918  Biso   1.000  C
  C128     1.0000 0.43695  0.97264  0.63082  Biso   1.000  C
  H105     1.0000 0.98770  0.03720  0.90200  Biso   1.000  H
  H106     1.0000 0.48770  0.46280  0.40200  Biso   1.000  H
  H107     1.0000 0.98770  0.53720  0.09800  Biso   1.000  H
  H108     1.0000 0.51230  0.03720  0.40200  Biso   1.000  H
  H109     1.0000 0.01230  0.96280  0.09800  Biso   1.000  H
  H110     1.0000 0.51230  0.53720  0.59800  Biso   1.000  H
  H111     1.0000 0.01230  0.46280  0.90200  Biso   1.000  H
  H112     1.0000 0.48770  0.96280  0.59800  Biso   1.000  H
  C129     1.0000 0.84743  0.02569  0.89958  Biso   1.000  C
  C130     1.0000 0.34743  0.47431  0.39958  Biso   1.000  C
  C131     1.0000 0.84743  0.52569  0.10042  Biso   1.000  C
  C132     1.0000 0.65257  0.02569  0.39958  Biso   1.000  C
  C133     1.0000 0.15257  0.97431  0.10042  Biso   1.000  C
  C134     1.0000 0.65257  0.52569  0.60042  Biso   1.000  C
  C135     1.0000 0.15257  0.47431  0.89958  Biso   1.000  C
  C136     1.0000 0.34743  0.97431  0.60042  Biso   1.000  C
  N25      1.0000 0.00000  0.25000  0.06350  Biso   1.000  N
  N26      1.0000 0.50000  0.25000  0.56350  Biso   1.000  N
  N27      1.0000 0.00000  0.75000  0.93650  Biso   1.000  N
  N28      1.0000 0.50000  0.75000  0.43650  Biso   1.000  N
  C137     1.0000 0.06050  0.18610  0.06420  Biso   1.000  C
  C138     1.0000 0.56050  0.31390  0.56420  Biso   1.000  C
  C139     1.0000 0.06050  0.68610  0.93580  Biso   1.000  C
  C140     1.0000 0.43950  0.18610  0.56420  Biso   1.000  C
  C141     1.0000 0.93950  0.81390  0.93580  Biso   1.000  C
  C142     1.0000 0.43950  0.68610  0.43580  Biso   1.000  C
  C143     1.0000 0.93950  0.31390  0.06420  Biso   1.000  C
  C144     1.0000 0.56050  0.81390  0.43580  Biso   1.000  C
  H113     1.0000 0.07500  0.17800  0.12010  Biso   1.000  H
  H114     1.0000 0.57500  0.32200  0.62010  Biso   1.000  H
  H115     1.0000 0.07500  0.67800  0.87990  Biso   1.000  H
  H116     1.0000 0.42500  0.17800  0.62010  Biso   1.000  H
  H117     1.0000 0.92500  0.82200  0.87990  Biso   1.000  H
  H118     1.0000 0.42500  0.67800  0.37990  Biso   1.000  H
  H119     1.0000 0.92500  0.32200  0.12010  Biso   1.000  H
  H120     1.0000 0.57500  0.82200  0.37990  Biso   1.000  H
  H121     1.0000 0.11700  0.19400  0.03400  Biso   1.000  H
  H122     1.0000 0.61700  0.30600  0.53400  Biso   1.000  H
  H123     1.0000 0.11700  0.69400  0.96600  Biso   1.000  H
  H124     1.0000 0.38300  0.19400  0.53400  Biso   1.000  H
  H125     1.0000 0.88300  0.80600  0.96600  Biso   1.000  H
  H126     1.0000 0.38300  0.69400  0.46600  Biso   1.000  H
  H127     1.0000 0.88300  0.30600  0.03400  Biso   1.000  H
  H128     1.0000 0.61700  0.80600  0.46600  Biso   1.000  H
  H129     1.0000 0.02900  0.13700  0.04500  Biso   1.000  H
  H130     1.0000 0.52900  0.36300  0.54500  Biso   1.000  H
  H131     1.0000 0.02900  0.63700  0.95500  Biso   1.000  H
  H132     1.0000 0.47100  0.13700  0.54500  Biso   1.000  H
  H133     1.0000 0.97100  0.86300  0.95500  Biso   1.000  H
  H134     1.0000 0.47100  0.63700  0.45500  Biso   1.000  H
  H135     1.0000 0.97100  0.36300  0.04500  Biso   1.000  H
  H136     1.0000 0.52900  0.86300  0.45500  Biso   1.000  H
  C145     1.0000 0.96450  0.28330  0.98540  Biso   1.000  C
  C146     1.0000 0.46450  0.21670  0.48540  Biso   1.000  C
  C147     1.0000 0.96450  0.78330  0.01460  Biso   1.000  C
  C148     1.0000 0.53550  0.28330  0.48540  Biso   1.000  C
  C149     1.0000 0.03550  0.71670  0.01460  Biso   1.000  C
  C150     1.0000 0.53550  0.78330  0.51460  Biso   1.000  C
  C151     1.0000 0.03550  0.21670  0.98540  Biso   1.000  C
  C152     1.0000 0.46450  0.71670  0.51460  Biso   1.000  C
  H137     1.0000 0.92300  0.24100  0.96300  Biso   1.000  H
  H138     1.0000 0.42300  0.25900  0.46300  Biso   1.000  H
  H139     1.0000 0.92300  0.74100  0.03700  Biso   1.000  H
  H140     1.0000 0.57700  0.24100  0.46300  Biso   1.000  H
  H141     1.0000 0.07700  0.75900  0.03700  Biso   1.000  H
  H142     1.0000 0.57700  0.74100  0.53700  Biso   1.000  H
  H143     1.0000 0.07700  0.25900  0.96300  Biso   1.000  H
  H144     1.0000 0.42300  0.75900  0.53700  Biso   1.000  H
  H145     1.0000 0.07100  0.16500  0.99200  Biso   1.000  H
  H146     1.0000 0.57100  0.33500  0.49200  Biso   1.000  H
  H147     1.0000 0.07100  0.66500  0.00800  Biso   1.000  H
  H148     1.0000 0.42900  0.16500  0.49200  Biso   1.000  H
  H149     1.0000 0.92900  0.83500  0.00800  Biso   1.000  H
  H150     1.0000 0.42900  0.66500  0.50800  Biso   1.000  H
  H151     1.0000 0.92900  0.33500  0.99200  Biso   1.000  H
  H152     1.0000 0.57100  0.83500  0.50800  Biso   1.000  H
  H153     1.0000 0.01200  0.29400  0.94600  Biso   1.000  H
  H154     1.0000 0.51200  0.20600  0.44600  Biso   1.000  H
  H155     1.0000 0.01200  0.79400  0.05400  Biso   1.000  H
  H156     1.0000 0.48800  0.29400  0.44600  Biso   1.000  H
  H157     1.0000 0.98800  0.70600  0.05400  Biso   1.000  H
  H158     1.0000 0.48800  0.79400  0.55400  Biso   1.000  H
  H159     1.0000 0.98800  0.20600  0.94600  Biso   1.000  H
  H160     1.0000 0.51200  0.70600  0.55400  Biso   1.000  H
  C153     1.0000 0.97730  0.29920  0.13050  Biso   1.000  C
  C154     1.0000 0.47730  0.20080  0.63050  Biso   1.000  C
  C155     1.0000 0.97730  0.79920  0.86950  Biso   1.000  C
  C156     1.0000 0.52270  0.29920  0.63050  Biso   1.000  C
  C157     1.0000 0.02270  0.70080  0.86950  Biso   1.000  C
  C158     1.0000 0.52270  0.79920  0.36950  Biso   1.000  C
  C159     1.0000 0.02270  0.20080  0.13050  Biso   1.000  C
  C160     1.0000 0.47730  0.70080  0.36950  Biso   1.000  C
  H161     1.0000 0.05900  0.15400  0.11900  Biso   1.000  H
  H162     1.0000 0.55900  0.34600  0.61900  Biso   1.000  H
  H163     1.0000 0.05900  0.65400  0.88100  Biso   1.000  H
  H164     1.0000 0.44100  0.15400  0.61900  Biso   1.000  H
  H165     1.0000 0.94100  0.84600  0.88100  Biso   1.000  H
  H166     1.0000 0.44100  0.65400  0.38100  Biso   1.000  H
  H167     1.0000 0.94100  0.34600  0.11900  Biso   1.000  H
  H168     1.0000 0.55900  0.84600  0.38100  Biso   1.000  H
  O33      1.0000 0.00370  0.28340  0.19720  Biso   1.000  O
  O34      1.0000 0.50370  0.21660  0.69720  Biso   1.000  O
  O35      1.0000 0.00370  0.78340  0.80280  Biso   1.000  O
  O36      1.0000 0.49630  0.28340  0.69720  Biso   1.000  O
  O37      1.0000 0.99630  0.71660  0.80280  Biso   1.000  O
  O38      1.0000 0.49630  0.78340  0.30280  Biso   1.000  O
  O39      1.0000 0.99630  0.21660  0.19720  Biso   1.000  O
  O40      1.0000 0.50370  0.71660  0.30280  Biso   1.000  O
