data_image0
_cell_length_a       6.5488
_cell_length_b       9.4281
_cell_length_c       10.6417
_cell_angle_alpha    90
_cell_angle_beta     90
_cell_angle_gamma    90

_symmetry_space_group_name_H-M    "P 1"
_symmetry_int_tables_number       1

loop_
  _symmetry_equiv_pos_as_xyz
  'x, y, z'

loop_
  _atom_site_label
  _atom_site_occupancy
  _atom_site_fract_x
  _atom_site_fract_y
  _atom_site_fract_z
  _atom_site_thermal_displace_type
  _atom_site_B_iso_or_equiv
  _atom_site_type_symbol
  Cu1      1.0000 0.00000  0.00000  0.50000  Biso   1.000  Cu
  Cu2      1.0000 0.00000  0.00000  0.00000  Biso   1.000  Cu
  Cu3      1.0000 0.00000  0.50000  0.00000  Biso   1.000  Cu
  Cu4      1.0000 0.00000  0.50000  0.50000  Biso   1.000  Cu
  Cl1      1.0000 0.18336  0.25000  0.50000  Biso   1.000  Cl
  Cl2      1.0000 0.81664  0.75000  0.00000  Biso   1.000  Cl
  Cl3      1.0000 0.81664  0.75000  0.50000  Biso   1.000  Cl
  Cl4      1.0000 0.18336  0.25000  0.00000  Biso   1.000  Cl
  C1       1.0000 0.46380  0.84820  0.25000  Biso   1.000  C
  C2       1.0000 0.53620  0.15180  0.75000  Biso   1.000  C
  C3       1.0000 0.53620  0.34820  0.25000  Biso   1.000  C
  C4       1.0000 0.46380  0.65180  0.75000  Biso   1.000  C
  H1       1.0000 0.59120  0.80470  0.25000  Biso   1.000  H
  H2       1.0000 0.40880  0.19530  0.75000  Biso   1.000  H
  H3       1.0000 0.40880  0.30470  0.25000  Biso   1.000  H
  H4       1.0000 0.59120  0.69530  0.75000  Biso   1.000  H
  C5       1.0000 0.36710  0.88126  0.36078  Biso   1.000  C
  C6       1.0000 0.63290  0.11874  0.86078  Biso   1.000  C
  C7       1.0000 0.63290  0.38126  0.13922  Biso   1.000  C
  C8       1.0000 0.36710  0.61874  0.63922  Biso   1.000  C
  C9       1.0000 0.63290  0.11874  0.63922  Biso   1.000  C
  C10      1.0000 0.36710  0.88126  0.13922  Biso   1.000  C
  C11      1.0000 0.36710  0.61874  0.86078  Biso   1.000  C
  C12      1.0000 0.63290  0.38126  0.36078  Biso   1.000  C
  H5       1.0000 0.43080  0.86160  0.43690  Biso   1.000  H
  H6       1.0000 0.56920  0.13840  0.93690  Biso   1.000  H
  H7       1.0000 0.56920  0.36160  0.06310  Biso   1.000  H
  H8       1.0000 0.43080  0.63840  0.56310  Biso   1.000  H
  H9       1.0000 0.56920  0.13840  0.56310  Biso   1.000  H
  H10      1.0000 0.43080  0.86160  0.06310  Biso   1.000  H
  H11      1.0000 0.43080  0.63840  0.93690  Biso   1.000  H
  H12      1.0000 0.56920  0.36160  0.43690  Biso   1.000  H
  O1       1.0000 0.81322  0.06480  0.35534  Biso   1.000  O
  O2       1.0000 0.18678  0.93520  0.85534  Biso   1.000  O
  O3       1.0000 0.18678  0.56480  0.14466  Biso   1.000  O
  O4       1.0000 0.81322  0.43520  0.64466  Biso   1.000  O
  O5       1.0000 0.18678  0.93520  0.64466  Biso   1.000  O
  O6       1.0000 0.81322  0.06480  0.14466  Biso   1.000  O
  O7       1.0000 0.81322  0.43520  0.85534  Biso   1.000  O
  O8       1.0000 0.18678  0.56480  0.35534  Biso   1.000  O
  N1       1.0000 0.18140  0.94169  0.36024  Biso   1.000  N
  N2       1.0000 0.81860  0.05831  0.86024  Biso   1.000  N
  N3       1.0000 0.81860  0.44169  0.13976  Biso   1.000  N
  N4       1.0000 0.18140  0.55831  0.63976  Biso   1.000  N
  N5       1.0000 0.81860  0.05831  0.63976  Biso   1.000  N
  N6       1.0000 0.18140  0.94169  0.13976  Biso   1.000  N
  N7       1.0000 0.18140  0.55831  0.86024  Biso   1.000  N
  N8       1.0000 0.81860  0.44169  0.36024  Biso   1.000  N
  C13      1.0000 0.09770  0.96900  0.25000  Biso   1.000  C
  C14      1.0000 0.90230  0.03100  0.75000  Biso   1.000  C
  C15      1.0000 0.90230  0.46900  0.25000  Biso   1.000  C
  C16      1.0000 0.09770  0.53100  0.75000  Biso   1.000  C
  C17      1.0000 0.88880  0.03970  0.25000  Biso   1.000  C
  C18      1.0000 0.11120  0.96030  0.75000  Biso   1.000  C
  C19      1.0000 0.11120  0.53970  0.25000  Biso   1.000  C
  C20      1.0000 0.88880  0.46030  0.75000  Biso   1.000  C
