data_image0
_cell_length_a       21.5359
_cell_length_b       21.5359
_cell_length_c       13.2232
_cell_angle_alpha    90
_cell_angle_beta     90
_cell_angle_gamma    120

_symmetry_space_group_name_H-M    "P 1"
_symmetry_int_tables_number       1

loop_
  _symmetry_equiv_pos_as_xyz
  'x, y, z'

loop_
  _atom_site_label
  _atom_site_occupancy
  _atom_site_fract_x
  _atom_site_fract_y
  _atom_site_fract_z
  _atom_site_thermal_displace_type
  _atom_site_B_iso_or_equiv
  _atom_site_type_symbol
  Cu1      1.0000 0.25624  0.01920  0.75085  Biso   1.000  Cu
  Cu2      1.0000 0.98080  0.23704  0.75085  Biso   1.000  Cu
  Cu3      1.0000 0.76296  0.74376  0.75085  Biso   1.000  Cu
  Cu4      1.0000 0.92291  0.35253  0.08418  Biso   1.000  Cu
  Cu5      1.0000 0.64747  0.57037  0.08418  Biso   1.000  Cu
  Cu6      1.0000 0.42963  0.07709  0.08418  Biso   1.000  Cu
  Cu7      1.0000 0.58957  0.68587  0.41752  Biso   1.000  Cu
  Cu8      1.0000 0.31413  0.90371  0.41752  Biso   1.000  Cu
  Cu9      1.0000 0.09629  0.41043  0.41752  Biso   1.000  Cu
  Cu10     1.0000 0.74376  0.98080  0.24915  Biso   1.000  Cu
  Cu11     1.0000 0.01920  0.76296  0.24915  Biso   1.000  Cu
  Cu12     1.0000 0.23704  0.25624  0.24915  Biso   1.000  Cu
  Cu13     1.0000 0.41043  0.31413  0.58248  Biso   1.000  Cu
  Cu14     1.0000 0.68587  0.09629  0.58248  Biso   1.000  Cu
  Cu15     1.0000 0.90371  0.58957  0.58248  Biso   1.000  Cu
  Cu16     1.0000 0.07709  0.64747  0.91582  Biso   1.000  Cu
  Cu17     1.0000 0.35253  0.42963  0.91582  Biso   1.000  Cu
  Cu18     1.0000 0.57037  0.92291  0.91582  Biso   1.000  Cu
  S1       1.0000 0.15889  0.13680  0.56987  Biso   1.000  S
  S2       1.0000 0.86320  0.02209  0.56987  Biso   1.000  S
  S3       1.0000 0.97791  0.84111  0.56987  Biso   1.000  S
  S4       1.0000 0.82556  0.47013  0.90320  Biso   1.000  S
  S5       1.0000 0.52987  0.35542  0.90320  Biso   1.000  S
  S6       1.0000 0.64458  0.17444  0.90320  Biso   1.000  S
  S7       1.0000 0.49222  0.80347  0.23654  Biso   1.000  S
  S8       1.0000 0.19653  0.68876  0.23654  Biso   1.000  S
  S9       1.0000 0.31124  0.50778  0.23654  Biso   1.000  S
  S10      1.0000 0.84111  0.86320  0.43013  Biso   1.000  S
  S11      1.0000 0.13680  0.97791  0.43013  Biso   1.000  S
  S12      1.0000 0.02209  0.15889  0.43013  Biso   1.000  S
  S13      1.0000 0.50778  0.19653  0.76346  Biso   1.000  S
  S14      1.0000 0.80347  0.31124  0.76346  Biso   1.000  S
  S15      1.0000 0.68876  0.49222  0.76346  Biso   1.000  S
  S16      1.0000 0.17444  0.52987  0.09680  Biso   1.000  S
  S17      1.0000 0.47013  0.64458  0.09680  Biso   1.000  S
  S18      1.0000 0.35542  0.82556  0.09680  Biso   1.000  S
  O1       1.0000 0.34593  0.04835  0.62780  Biso   1.000  O
  O2       1.0000 0.95165  0.29758  0.62780  Biso   1.000  O
  O3       1.0000 0.70242  0.65407  0.62780  Biso   1.000  O
  O4       1.0000 0.01260  0.38168  0.96113  Biso   1.000  O
  O5       1.0000 0.61832  0.63091  0.96113  Biso   1.000  O
  O6       1.0000 0.36909  0.98740  0.96113  Biso   1.000  O
  O7       1.0000 0.67926  0.71502  0.29447  Biso   1.000  O
  O8       1.0000 0.28498  0.96425  0.29447  Biso   1.000  O
  O9       1.0000 0.03575  0.32074  0.29447  Biso   1.000  O
  O10      1.0000 0.65407  0.95165  0.37220  Biso   1.000  O
  O11      1.0000 0.04835  0.70242  0.37220  Biso   1.000  O
  O12      1.0000 0.29758  0.34593  0.37220  Biso   1.000  O
  O13      1.0000 0.32074  0.28498  0.70553  Biso   1.000  O
  O14      1.0000 0.71502  0.03575  0.70553  Biso   1.000  O
  O15      1.0000 0.96425  0.67926  0.70553  Biso   1.000  O
  O16      1.0000 0.98740  0.61832  0.03887  Biso   1.000  O
  O17      1.0000 0.38168  0.36909  0.03887  Biso   1.000  O
  O18      1.0000 0.63091  0.01260  0.03887  Biso   1.000  O
  O19      1.0000 0.36090  0.99427  0.49460  Biso   1.000  O
  O20      1.0000 0.00573  0.36663  0.49460  Biso   1.000  O
  O21      1.0000 0.63337  0.63910  0.49460  Biso   1.000  O
  O22      1.0000 0.02757  0.32760  0.82793  Biso   1.000  O
  O23      1.0000 0.67240  0.69996  0.82793  Biso   1.000  O
  O24      1.0000 0.30004  0.97243  0.82793  Biso   1.000  O
  O25      1.0000 0.69423  0.66094  0.16127  Biso   1.000  O
  O26      1.0000 0.33906  0.03330  0.16127  Biso   1.000  O
  O27      1.0000 0.96670  0.30577  0.16127  Biso   1.000  O
  O28      1.0000 0.63910  0.00573  0.50540  Biso   1.000  O
  O29      1.0000 0.99427  0.63337  0.50540  Biso   1.000  O
  O30      1.0000 0.36663  0.36090  0.50540  Biso   1.000  O
  O31      1.0000 0.30577  0.33906  0.83873  Biso   1.000  O
  O32      1.0000 0.66094  0.96670  0.83873  Biso   1.000  O
  O33      1.0000 0.03330  0.69423  0.83873  Biso   1.000  O
  O34      1.0000 0.97243  0.67240  0.17207  Biso   1.000  O
  O35      1.0000 0.32760  0.30004  0.17207  Biso   1.000  O
  O36      1.0000 0.69996  0.02757  0.17207  Biso   1.000  O
  N1       1.0000 0.21136  0.93200  0.65790  Biso   1.000  N
  N2       1.0000 0.06800  0.27936  0.65790  Biso   1.000  N
  N3       1.0000 0.72064  0.78864  0.65790  Biso   1.000  N
  N4       1.0000 0.87803  0.26533  0.99123  Biso   1.000  N
  N5       1.0000 0.73467  0.61269  0.99123  Biso   1.000  N
  N6       1.0000 0.38731  0.12197  0.99123  Biso   1.000  N
  N7       1.0000 0.54469  0.59867  0.32457  Biso   1.000  N
  N8       1.0000 0.40133  0.94603  0.32457  Biso   1.000  N
  N9       1.0000 0.05397  0.45531  0.32457  Biso   1.000  N
  N10      1.0000 0.78864  0.06800  0.34210  Biso   1.000  N
  N11      1.0000 0.93200  0.72064  0.34210  Biso   1.000  N
  N12      1.0000 0.27936  0.21136  0.34210  Biso   1.000  N
  N13      1.0000 0.45531  0.40133  0.67543  Biso   1.000  N
  N14      1.0000 0.59867  0.05397  0.67543  Biso   1.000  N
  N15      1.0000 0.94603  0.54469  0.67543  Biso   1.000  N
  N16      1.0000 0.12197  0.73467  0.00877  Biso   1.000  N
  N17      1.0000 0.26533  0.38731  0.00877  Biso   1.000  N
  N18      1.0000 0.61269  0.87803  0.00877  Biso   1.000  N
  N19      1.0000 0.23440  0.88033  0.51630  Biso   1.000  N
  N20      1.0000 0.11967  0.35407  0.51630  Biso   1.000  N
  N21      1.0000 0.64593  0.76560  0.51630  Biso   1.000  N
  N22      1.0000 0.90107  0.21366  0.84963  Biso   1.000  N
  N23      1.0000 0.78634  0.68740  0.84963  Biso   1.000  N
  N24      1.0000 0.31260  0.09893  0.84963  Biso   1.000  N
  N25      1.0000 0.56773  0.54700  0.18297  Biso   1.000  N
  N26      1.0000 0.45300  0.02074  0.18297  Biso   1.000  N
  N27      1.0000 0.97926  0.43227  0.18297  Biso   1.000  N
  N28      1.0000 0.76560  0.11967  0.48370  Biso   1.000  N
  N29      1.0000 0.88033  0.64593  0.48370  Biso   1.000  N
  N30      1.0000 0.35407  0.23440  0.48370  Biso   1.000  N
  N31      1.0000 0.43227  0.45300  0.81703  Biso   1.000  N
  N32      1.0000 0.54700  0.97926  0.81703  Biso   1.000  N
  N33      1.0000 0.02074  0.56773  0.81703  Biso   1.000  N
  N34      1.0000 0.09893  0.78634  0.15037  Biso   1.000  N
  N35      1.0000 0.21366  0.31260  0.15037  Biso   1.000  N
  N36      1.0000 0.68740  0.90107  0.15037  Biso   1.000  N
  C1       1.0000 0.25230  0.93280  0.58310  Biso   1.000  C
  C2       1.0000 0.06720  0.31950  0.58310  Biso   1.000  C
  C3       1.0000 0.68050  0.74770  0.58310  Biso   1.000  C
  C4       1.0000 0.91897  0.26613  0.91643  Biso   1.000  C
  C5       1.0000 0.73387  0.65283  0.91643  Biso   1.000  C
  C6       1.0000 0.34717  0.08103  0.91643  Biso   1.000  C
  C7       1.0000 0.58563  0.59947  0.24977  Biso   1.000  C
  C8       1.0000 0.40053  0.98617  0.24977  Biso   1.000  C
  C9       1.0000 0.01383  0.41437  0.24977  Biso   1.000  C
  C10      1.0000 0.74770  0.06720  0.41690  Biso   1.000  C
  C11      1.0000 0.93280  0.68050  0.41690  Biso   1.000  C
  C12      1.0000 0.31950  0.25230  0.41690  Biso   1.000  C
  C13      1.0000 0.41437  0.40053  0.75023  Biso   1.000  C
  C14      1.0000 0.59947  0.01383  0.75023  Biso   1.000  C
  C15      1.0000 0.98617  0.58563  0.75023  Biso   1.000  C
  C16      1.0000 0.08103  0.73387  0.08357  Biso   1.000  C
  C17      1.0000 0.26613  0.34717  0.08357  Biso   1.000  C
  C18      1.0000 0.65283  0.91897  0.08357  Biso   1.000  C
  C19      1.0000 0.12370  0.81660  0.60050  Biso   1.000  C
  C20      1.0000 0.18340  0.30710  0.60050  Biso   1.000  C
  C21      1.0000 0.69290  0.87630  0.60050  Biso   1.000  C
  C22      1.0000 0.79037  0.14993  0.93383  Biso   1.000  C
  C23      1.0000 0.85007  0.64043  0.93383  Biso   1.000  C
  C24      1.0000 0.35957  0.20963  0.93383  Biso   1.000  C
  C25      1.0000 0.45703  0.48327  0.26717  Biso   1.000  C
  C26      1.0000 0.51673  0.97377  0.26717  Biso   1.000  C
  C27      1.0000 0.02623  0.54297  0.26717  Biso   1.000  C
  C28      1.0000 0.87630  0.18340  0.39950  Biso   1.000  C
  C29      1.0000 0.81660  0.69290  0.39950  Biso   1.000  C
  C30      1.0000 0.30710  0.12370  0.39950  Biso   1.000  C
  C31      1.0000 0.54297  0.51673  0.73283  Biso   1.000  C
  C32      1.0000 0.48327  0.02623  0.73283  Biso   1.000  C
  C33      1.0000 0.97377  0.45703  0.73283  Biso   1.000  C
  C34      1.0000 0.20963  0.85007  0.06617  Biso   1.000  C
  C35      1.0000 0.14993  0.35957  0.06617  Biso   1.000  C
  C36      1.0000 0.64043  0.79037  0.06617  Biso   1.000  C
  H1       1.0000 0.07850  0.77600  0.60700  Biso   1.000  H
  H2       1.0000 0.22400  0.30250  0.60700  Biso   1.000  H
  H3       1.0000 0.69750  0.92150  0.60700  Biso   1.000  H
  H4       1.0000 0.74517  0.10933  0.94033  Biso   1.000  H
  H5       1.0000 0.89067  0.63583  0.94033  Biso   1.000  H
  H6       1.0000 0.36417  0.25483  0.94033  Biso   1.000  H
  H7       1.0000 0.41183  0.44267  0.27367  Biso   1.000  H
  H8       1.0000 0.55733  0.96917  0.27367  Biso   1.000  H
  H9       1.0000 0.03083  0.58817  0.27367  Biso   1.000  H
  H10      1.0000 0.92150  0.22400  0.39300  Biso   1.000  H
  H11      1.0000 0.77600  0.69750  0.39300  Biso   1.000  H
  H12      1.0000 0.30250  0.07850  0.39300  Biso   1.000  H
  H13      1.0000 0.58817  0.55733  0.72633  Biso   1.000  H
  H14      1.0000 0.44267  0.03083  0.72633  Biso   1.000  H
  H15      1.0000 0.96917  0.41183  0.72633  Biso   1.000  H
  H16      1.0000 0.25483  0.89067  0.05967  Biso   1.000  H
  H17      1.0000 0.10933  0.36417  0.05967  Biso   1.000  H
  H18      1.0000 0.63583  0.74517  0.05967  Biso   1.000  H
  C37      1.0000 0.32600  0.99830  0.56890  Biso   1.000  C
  C38      1.0000 0.00170  0.32770  0.56890  Biso   1.000  C
  C39      1.0000 0.67230  0.67400  0.56890  Biso   1.000  C
  C40      1.0000 0.99267  0.33163  0.90223  Biso   1.000  C
  C41      1.0000 0.66837  0.66103  0.90223  Biso   1.000  C
  C42      1.0000 0.33897  0.00733  0.90223  Biso   1.000  C
  C43      1.0000 0.65933  0.66497  0.23557  Biso   1.000  C
  C44      1.0000 0.33503  0.99437  0.23557  Biso   1.000  C
  C45      1.0000 0.00563  0.34067  0.23557  Biso   1.000  C
  C46      1.0000 0.67400  0.00170  0.43110  Biso   1.000  C
  C47      1.0000 0.99830  0.67230  0.43110  Biso   1.000  C
  C48      1.0000 0.32770  0.32600  0.43110  Biso   1.000  C
  C49      1.0000 0.34067  0.33503  0.76443  Biso   1.000  C
  C50      1.0000 0.66497  0.00563  0.76443  Biso   1.000  C
  C51      1.0000 0.99437  0.65933  0.76443  Biso   1.000  C
  C52      1.0000 0.00733  0.66837  0.09777  Biso   1.000  C
  C53      1.0000 0.33163  0.33897  0.09777  Biso   1.000  C
  C54      1.0000 0.66103  0.99267  0.09777  Biso   1.000  C
  C55      1.0000 0.19190  0.09700  0.63620  Biso   1.000  C
  C56      1.0000 0.90300  0.09490  0.63620  Biso   1.000  C
  C57      1.0000 0.90510  0.80810  0.63620  Biso   1.000  C
  C58      1.0000 0.85857  0.43033  0.96953  Biso   1.000  C
  C59      1.0000 0.56967  0.42823  0.96953  Biso   1.000  C
  C60      1.0000 0.57177  0.14143  0.96953  Biso   1.000  C
  C61      1.0000 0.52523  0.76367  0.30287  Biso   1.000  C
  C62      1.0000 0.23633  0.76157  0.30287  Biso   1.000  C
  C63      1.0000 0.23843  0.47477  0.30287  Biso   1.000  C
  C64      1.0000 0.80810  0.90300  0.36380  Biso   1.000  C
  C65      1.0000 0.09700  0.90510  0.36380  Biso   1.000  C
  C66      1.0000 0.09490  0.19190  0.36380  Biso   1.000  C
  C67      1.0000 0.47477  0.23633  0.69713  Biso   1.000  C
  C68      1.0000 0.76367  0.23843  0.69713  Biso   1.000  C
  C69      1.0000 0.76157  0.52523  0.69713  Biso   1.000  C
  C70      1.0000 0.14143  0.56967  0.03047  Biso   1.000  C
  C71      1.0000 0.43033  0.57177  0.03047  Biso   1.000  C
  C72      1.0000 0.42823  0.85857  0.03047  Biso   1.000  C
  N37      1.0000 0.21470  0.06810  0.68250  Biso   1.000  N
  N38      1.0000 0.93190  0.14660  0.68250  Biso   1.000  N
  N39      1.0000 0.85340  0.78530  0.68250  Biso   1.000  N
  N40      1.0000 0.88137  0.40143  0.01583  Biso   1.000  N
  N41      1.0000 0.59857  0.47993  0.01583  Biso   1.000  N
  N42      1.0000 0.52007  0.11863  0.01583  Biso   1.000  N
  N43      1.0000 0.54803  0.73477  0.34917  Biso   1.000  N
  N44      1.0000 0.26523  0.81327  0.34917  Biso   1.000  N
  N45      1.0000 0.18673  0.45197  0.34917  Biso   1.000  N
  N46      1.0000 0.78530  0.93190  0.31750  Biso   1.000  N
  N47      1.0000 0.06810  0.85340  0.31750  Biso   1.000  N
  N48      1.0000 0.14660  0.21470  0.31750  Biso   1.000  N
  N49      1.0000 0.45197  0.26523  0.65083  Biso   1.000  N
  N50      1.0000 0.73477  0.18673  0.65083  Biso   1.000  N
  N51      1.0000 0.81327  0.54803  0.65083  Biso   1.000  N
  N52      1.0000 0.11863  0.59857  0.98417  Biso   1.000  N
  N53      1.0000 0.40143  0.52007  0.98417  Biso   1.000  N
  N54      1.0000 0.47993  0.88137  0.98417  Biso   1.000  N
  C73      1.0000 0.16920  0.82130  0.52550  Biso   1.000  C
  C74      1.0000 0.17870  0.34790  0.52550  Biso   1.000  C
  C75      1.0000 0.65210  0.83080  0.52550  Biso   1.000  C
  C76      1.0000 0.83587  0.15463  0.85883  Biso   1.000  C
  C77      1.0000 0.84537  0.68123  0.85883  Biso   1.000  C
  C78      1.0000 0.31877  0.16413  0.85883  Biso   1.000  C
  C79      1.0000 0.50253  0.48797  0.19217  Biso   1.000  C
  C80      1.0000 0.51203  0.01457  0.19217  Biso   1.000  C
  C81      1.0000 0.98543  0.49747  0.19217  Biso   1.000  C
  C82      1.0000 0.83080  0.17870  0.47450  Biso   1.000  C
  C83      1.0000 0.82130  0.65210  0.47450  Biso   1.000  C
  C84      1.0000 0.34790  0.16920  0.47450  Biso   1.000  C
  C85      1.0000 0.49747  0.51203  0.80783  Biso   1.000  C
  C86      1.0000 0.48797  0.98543  0.80783  Biso   1.000  C
  C87      1.0000 0.01457  0.50253  0.80783  Biso   1.000  C
  C88      1.0000 0.16413  0.84537  0.14117  Biso   1.000  C
  C89      1.0000 0.15463  0.31877  0.14117  Biso   1.000  C
  C90      1.0000 0.68123  0.83587  0.14117  Biso   1.000  C
  H19      1.0000 0.15530  0.78360  0.48020  Biso   1.000  H
  H20      1.0000 0.21640  0.37170  0.48020  Biso   1.000  H
  H21      1.0000 0.62830  0.84470  0.48020  Biso   1.000  H
  H22      1.0000 0.82197  0.11693  0.81353  Biso   1.000  H
  H23      1.0000 0.88307  0.70503  0.81353  Biso   1.000  H
  H24      1.0000 0.29497  0.17803  0.81353  Biso   1.000  H
  H25      1.0000 0.48863  0.45027  0.14687  Biso   1.000  H
  H26      1.0000 0.54973  0.03837  0.14687  Biso   1.000  H
  H27      1.0000 0.96163  0.51137  0.14687  Biso   1.000  H
  H28      1.0000 0.84470  0.21640  0.51980  Biso   1.000  H
  H29      1.0000 0.78360  0.62830  0.51980  Biso   1.000  H
  H30      1.0000 0.37170  0.15530  0.51980  Biso   1.000  H
  H31      1.0000 0.51137  0.54973  0.85313  Biso   1.000  H
  H32      1.0000 0.45027  0.96163  0.85313  Biso   1.000  H
  H33      1.0000 0.03837  0.48863  0.85313  Biso   1.000  H
  H34      1.0000 0.17803  0.88307  0.18647  Biso   1.000  H
  H35      1.0000 0.11693  0.29497  0.18647  Biso   1.000  H
  H36      1.0000 0.70503  0.82197  0.18647  Biso   1.000  H
  C91      1.0000 0.14640  0.87350  0.66640  Biso   1.000  C
  C92      1.0000 0.12650  0.27290  0.66640  Biso   1.000  C
  C93      1.0000 0.72710  0.85360  0.66640  Biso   1.000  C
  C94      1.0000 0.81307  0.20683  0.99973  Biso   1.000  C
  C95      1.0000 0.79317  0.60623  0.99973  Biso   1.000  C
  C96      1.0000 0.39377  0.18693  0.99973  Biso   1.000  C
  C97      1.0000 0.47973  0.54017  0.33307  Biso   1.000  C
  C98      1.0000 0.45983  0.93957  0.33307  Biso   1.000  C
  C99      1.0000 0.06043  0.52027  0.33307  Biso   1.000  C
  C100     1.0000 0.85360  0.12650  0.33360  Biso   1.000  C
  C101     1.0000 0.87350  0.72710  0.33360  Biso   1.000  C
  C102     1.0000 0.27290  0.14640  0.33360  Biso   1.000  C
  C103     1.0000 0.52027  0.45983  0.66693  Biso   1.000  C
  C104     1.0000 0.54017  0.06043  0.66693  Biso   1.000  C
  C105     1.0000 0.93957  0.47973  0.66693  Biso   1.000  C
  C106     1.0000 0.18693  0.79317  0.00027  Biso   1.000  C
  C107     1.0000 0.20683  0.39377  0.00027  Biso   1.000  C
  C108     1.0000 0.60623  0.81307  0.00027  Biso   1.000  C
  H37      1.0000 0.11590  0.87120  0.71790  Biso   1.000  H
  H38      1.0000 0.12880  0.24470  0.71790  Biso   1.000  H
  H39      1.0000 0.75530  0.88410  0.71790  Biso   1.000  H
  H40      1.0000 0.78257  0.20453  0.05123  Biso   1.000  H
  H41      1.0000 0.79547  0.57803  0.05123  Biso   1.000  H
  H42      1.0000 0.42197  0.21743  0.05123  Biso   1.000  H
  H43      1.0000 0.44923  0.53787  0.38457  Biso   1.000  H
  H44      1.0000 0.46213  0.91137  0.38457  Biso   1.000  H
  H45      1.0000 0.08863  0.55077  0.38457  Biso   1.000  H
  H46      1.0000 0.88410  0.12880  0.28210  Biso   1.000  H
  H47      1.0000 0.87120  0.75530  0.28210  Biso   1.000  H
  H48      1.0000 0.24470  0.11590  0.28210  Biso   1.000  H
  H49      1.0000 0.55077  0.46213  0.61543  Biso   1.000  H
  H50      1.0000 0.53787  0.08863  0.61543  Biso   1.000  H
  H51      1.0000 0.91137  0.44923  0.61543  Biso   1.000  H
  H52      1.0000 0.21743  0.79547  0.94877  Biso   1.000  H
  H53      1.0000 0.20453  0.42197  0.94877  Biso   1.000  H
  H54      1.0000 0.57803  0.78257  0.94877  Biso   1.000  H
  O37      1.0000 0.15530  0.96380  0.88520  Biso   1.000  O
  O38      1.0000 0.03620  0.19150  0.88520  Biso   1.000  O
  O39      1.0000 0.80850  0.84470  0.88520  Biso   1.000  O
  O40      1.0000 0.82197  0.29713  0.21853  Biso   1.000  O
  O41      1.0000 0.70287  0.52483  0.21853  Biso   1.000  O
  O42      1.0000 0.47517  0.17803  0.21853  Biso   1.000  O
  O43      1.0000 0.48863  0.63047  0.55187  Biso   1.000  O
  O44      1.0000 0.36953  0.85817  0.55187  Biso   1.000  O
  O45      1.0000 0.14183  0.51137  0.55187  Biso   1.000  O
  O46      1.0000 0.84470  0.03620  0.11480  Biso   1.000  O
  O47      1.0000 0.96380  0.80850  0.11480  Biso   1.000  O
  O48      1.0000 0.19150  0.15530  0.11480  Biso   1.000  O
  O49      1.0000 0.51137  0.36953  0.44813  Biso   1.000  O
  O50      1.0000 0.63047  0.14183  0.44813  Biso   1.000  O
  O51      1.0000 0.85817  0.48863  0.44813  Biso   1.000  O
  O52      1.0000 0.17803  0.70287  0.78147  Biso   1.000  O
  O53      1.0000 0.29713  0.47517  0.78147  Biso   1.000  O
  O54      1.0000 0.52483  0.82197  0.78147  Biso   1.000  O
  O55      1.0000 0.00000  0.00000  0.50000  Biso   1.000  O
  O56      1.0000 0.66667  0.33333  0.83333  Biso   1.000  O
  O57      1.0000 0.33333  0.66667  0.16667  Biso   1.000  O
  O58      1.0000 0.03350  0.81700  0.91900  Biso   1.000  O
  O59      1.0000 0.18300  0.21650  0.91900  Biso   1.000  O
  O60      1.0000 0.78350  0.96650  0.91900  Biso   1.000  O
  O61      1.0000 0.70017  0.15033  0.25233  Biso   1.000  O
  O62      1.0000 0.84967  0.54983  0.25233  Biso   1.000  O
  O63      1.0000 0.45017  0.29983  0.25233  Biso   1.000  O
  O64      1.0000 0.36683  0.48367  0.58567  Biso   1.000  O
  O65      1.0000 0.51633  0.88317  0.58567  Biso   1.000  O
  O66      1.0000 0.11683  0.63317  0.58567  Biso   1.000  O
  O67      1.0000 0.96650  0.18300  0.08100  Biso   1.000  O
  O68      1.0000 0.81700  0.78350  0.08100  Biso   1.000  O
  O69      1.0000 0.21650  0.03350  0.08100  Biso   1.000  O
  O70      1.0000 0.63317  0.51633  0.41433  Biso   1.000  O
  O71      1.0000 0.48367  0.11683  0.41433  Biso   1.000  O
  O72      1.0000 0.88317  0.36683  0.41433  Biso   1.000  O
  O73      1.0000 0.29983  0.84967  0.74767  Biso   1.000  O
  O74      1.0000 0.15033  0.45017  0.74767  Biso   1.000  O
  O75      1.0000 0.54983  0.70017  0.74767  Biso   1.000  O
  O76      1.0000 0.08280  0.04610  0.84700  Biso   1.000  O
  O77      1.0000 0.95390  0.03670  0.84700  Biso   1.000  O
  O78      1.0000 0.96330  0.91720  0.84700  Biso   1.000  O
  O79      1.0000 0.74947  0.37943  0.18033  Biso   1.000  O
  O80      1.0000 0.62057  0.37003  0.18033  Biso   1.000  O
  O81      1.0000 0.62997  0.25053  0.18033  Biso   1.000  O
  O82      1.0000 0.41613  0.71277  0.51367  Biso   1.000  O
  O83      1.0000 0.28723  0.70337  0.51367  Biso   1.000  O
  O84      1.0000 0.29663  0.58387  0.51367  Biso   1.000  O
  O85      1.0000 0.91720  0.95390  0.15300  Biso   1.000  O
  O86      1.0000 0.04610  0.96330  0.15300  Biso   1.000  O
  O87      1.0000 0.03670  0.08280  0.15300  Biso   1.000  O
  O88      1.0000 0.58387  0.28723  0.48633  Biso   1.000  O
  O89      1.0000 0.71277  0.29663  0.48633  Biso   1.000  O
  O90      1.0000 0.70337  0.41613  0.48633  Biso   1.000  O
  O91      1.0000 0.25053  0.62057  0.81967  Biso   1.000  O
  O92      1.0000 0.37943  0.62997  0.81967  Biso   1.000  O
  O93      1.0000 0.37003  0.74947  0.81967  Biso   1.000  O
  O94      1.0000 0.00000  0.00000  0.00000  Biso   1.000  O
  O95      1.0000 0.66667  0.33333  0.33333  Biso   1.000  O
  O96      1.0000 0.33333  0.66667  0.66667  Biso   1.000  O
