data_image0
_cell_length_a       5.2929
_cell_length_b       6.7384
_cell_length_c       9.8478
_cell_angle_alpha    90
_cell_angle_beta     90
_cell_angle_gamma    90

_symmetry_space_group_name_H-M    "P 1"
_symmetry_int_tables_number       1

loop_
  _symmetry_equiv_pos_as_xyz
  'x, y, z'

loop_
  _atom_site_label
  _atom_site_occupancy
  _atom_site_fract_x
  _atom_site_fract_y
  _atom_site_fract_z
  _atom_site_thermal_displace_type
  _atom_site_B_iso_or_equiv
  _atom_site_type_symbol
  Br1      1.0000 0.00000  0.19481  0.78927  Biso   1.000  Br
  Br2      1.0000 0.00000  0.80519  0.28927  Biso   1.000  Br
  Cu1      1.0000 0.00000  0.00030  0.03920  Biso   1.000  Cu
  Cu2      1.0000 0.00000  0.99970  0.53920  Biso   1.000  Cu
  O1       1.0000 0.28600  0.82240  0.97680  Biso   1.000  O
  O2       1.0000 0.71400  0.17760  0.47680  Biso   1.000  O
  O3       1.0000 0.71400  0.82240  0.97680  Biso   1.000  O
  O4       1.0000 0.28600  0.17760  0.47680  Biso   1.000  O
  C1       1.0000 0.50000  0.10050  0.07830  Biso   1.000  C
  C2       1.0000 0.50000  0.89950  0.57830  Biso   1.000  C
  C3       1.0000 0.50000  0.89940  0.00880  Biso   1.000  C
  C4       1.0000 0.50000  0.10060  0.50880  Biso   1.000  C
  N1       1.0000 0.28040  0.17860  0.09900  Biso   1.000  N
  N2       1.0000 0.71960  0.82140  0.59900  Biso   1.000  N
  N3       1.0000 0.71960  0.17860  0.09900  Biso   1.000  N
  N4       1.0000 0.28040  0.82140  0.59900  Biso   1.000  N
  C5       1.0000 0.27590  0.35410  0.15700  Biso   1.000  C
  C6       1.0000 0.72410  0.64590  0.65700  Biso   1.000  C
  C7       1.0000 0.72410  0.35410  0.15700  Biso   1.000  C
  C8       1.0000 0.27590  0.64590  0.65700  Biso   1.000  C
  H1       1.0000 0.12180  0.41450  0.17560  Biso   1.000  H
  H2       1.0000 0.87820  0.58550  0.67560  Biso   1.000  H
  H3       1.0000 0.87820  0.41450  0.17560  Biso   1.000  H
  H4       1.0000 0.12180  0.58550  0.67560  Biso   1.000  H
  C9       1.0000 0.50000  0.45030  0.19090  Biso   1.000  C
  C10      1.0000 0.50000  0.54970  0.69090  Biso   1.000  C
  H5       1.0000 0.50000  0.57300  0.23410  Biso   1.000  H
  H6       1.0000 0.50000  0.42700  0.73410  Biso   1.000  H
