data_image0
_cell_length_a       9.7896
_cell_length_b       11.6751
_cell_length_c       13.2753
_cell_angle_alpha    90
_cell_angle_beta     100.925
_cell_angle_gamma    90

_symmetry_space_group_name_H-M    "P 1"
_symmetry_int_tables_number       1

loop_
  _symmetry_equiv_pos_as_xyz
  'x, y, z'

loop_
  _atom_site_label
  _atom_site_occupancy
  _atom_site_fract_x
  _atom_site_fract_y
  _atom_site_fract_z
  _atom_site_thermal_displace_type
  _atom_site_B_iso_or_equiv
  _atom_site_type_symbol
  H1       1.0000 0.94900  0.23400  0.05300  Biso   1.000  H
  H2       1.0000 0.44900  0.73400  0.05300  Biso   1.000  H
  H3       1.0000 0.05100  0.23400  0.44700  Biso   1.000  H
  H4       1.0000 0.55100  0.73400  0.44700  Biso   1.000  H
  H5       1.0000 0.05100  0.76600  0.94700  Biso   1.000  H
  H6       1.0000 0.55100  0.26600  0.94700  Biso   1.000  H
  H7       1.0000 0.94900  0.76600  0.55300  Biso   1.000  H
  H8       1.0000 0.44900  0.26600  0.55300  Biso   1.000  H
  H9       1.0000 0.30100  0.07700  0.05800  Biso   1.000  H
  H10      1.0000 0.80100  0.57700  0.05800  Biso   1.000  H
  H11      1.0000 0.69900  0.07700  0.44200  Biso   1.000  H
  H12      1.0000 0.19900  0.57700  0.44200  Biso   1.000  H
  H13      1.0000 0.69900  0.92300  0.94200  Biso   1.000  H
  H14      1.0000 0.19900  0.42300  0.94200  Biso   1.000  H
  H15      1.0000 0.30100  0.92300  0.55800  Biso   1.000  H
  H16      1.0000 0.80100  0.42300  0.55800  Biso   1.000  H
  H17      1.0000 0.07400  0.10400  0.98100  Biso   1.000  H
  H18      1.0000 0.57400  0.60400  0.98100  Biso   1.000  H
  H19      1.0000 0.92600  0.10400  0.51900  Biso   1.000  H
  H20      1.0000 0.42600  0.60400  0.51900  Biso   1.000  H
  H21      1.0000 0.92600  0.89600  0.01900  Biso   1.000  H
  H22      1.0000 0.42600  0.39600  0.01900  Biso   1.000  H
  H23      1.0000 0.07400  0.89600  0.48100  Biso   1.000  H
  H24      1.0000 0.57400  0.39600  0.48100  Biso   1.000  H
  Cu1      1.0000 0.00000  0.39610  0.25000  Biso   1.000  Cu
  Cu2      1.0000 0.50000  0.89610  0.25000  Biso   1.000  Cu
  Cu3      1.0000 0.00000  0.60390  0.75000  Biso   1.000  Cu
  Cu4      1.0000 0.50000  0.10390  0.75000  Biso   1.000  Cu
  Cu5      1.0000 0.50000  0.17398  0.25000  Biso   1.000  Cu
  Cu6      1.0000 0.00000  0.67398  0.25000  Biso   1.000  Cu
  Cu7      1.0000 0.50000  0.82602  0.75000  Biso   1.000  Cu
  Cu8      1.0000 0.00000  0.32602  0.75000  Biso   1.000  Cu
  N1       1.0000 0.30460  0.18246  0.16671  Biso   1.000  N
  N2       1.0000 0.80460  0.68246  0.16671  Biso   1.000  N
  N3       1.0000 0.69540  0.18246  0.33329  Biso   1.000  N
  N4       1.0000 0.19540  0.68246  0.33329  Biso   1.000  N
  N5       1.0000 0.69540  0.81754  0.83329  Biso   1.000  N
  N6       1.0000 0.19540  0.31754  0.83329  Biso   1.000  N
  N7       1.0000 0.30460  0.81754  0.66671  Biso   1.000  N
  N8       1.0000 0.80460  0.31754  0.66671  Biso   1.000  N
  O1       1.0000 0.20670  0.37990  0.34105  Biso   1.000  O
  O2       1.0000 0.70670  0.87990  0.34105  Biso   1.000  O
  O3       1.0000 0.79330  0.37990  0.15895  Biso   1.000  O
  O4       1.0000 0.29330  0.87990  0.15895  Biso   1.000  O
  O5       1.0000 0.79330  0.62010  0.65895  Biso   1.000  O
  O6       1.0000 0.29330  0.12010  0.65895  Biso   1.000  O
  O7       1.0000 0.20670  0.62010  0.84105  Biso   1.000  O
  O8       1.0000 0.70670  0.12010  0.84105  Biso   1.000  O
  N9       1.0000 0.08860  0.27230  0.16665  Biso   1.000  N
  N10      1.0000 0.58860  0.77230  0.16665  Biso   1.000  N
  N11      1.0000 0.91140  0.27230  0.33335  Biso   1.000  N
  N12      1.0000 0.41140  0.77230  0.33335  Biso   1.000  N
  N13      1.0000 0.91140  0.72770  0.83335  Biso   1.000  N
  N14      1.0000 0.41140  0.22770  0.83335  Biso   1.000  N
  N15      1.0000 0.08860  0.72770  0.66665  Biso   1.000  N
  N16      1.0000 0.58860  0.22770  0.66665  Biso   1.000  N
  N17      1.0000 0.05380  0.52800  0.15740  Biso   1.000  N
  N18      1.0000 0.55380  0.02800  0.15740  Biso   1.000  N
  N19      1.0000 0.94620  0.52800  0.34260  Biso   1.000  N
  N20      1.0000 0.44620  0.02800  0.34260  Biso   1.000  N
  N21      1.0000 0.94620  0.47200  0.84260  Biso   1.000  N
  N22      1.0000 0.44620  0.97200  0.84260  Biso   1.000  N
  N23      1.0000 0.05380  0.47200  0.65740  Biso   1.000  N
  N24      1.0000 0.55380  0.97200  0.65740  Biso   1.000  N
  O9       1.0000 0.41040  0.29500  0.33699  Biso   1.000  O
  O10      1.0000 0.91040  0.79500  0.33699  Biso   1.000  O
  O11      1.0000 0.58960  0.29500  0.16301  Biso   1.000  O
  O12      1.0000 0.08960  0.79500  0.16301  Biso   1.000  O
  O13      1.0000 0.58960  0.70500  0.66301  Biso   1.000  O
  O14      1.0000 0.08960  0.20500  0.66301  Biso   1.000  O
  O15      1.0000 0.41040  0.70500  0.83699  Biso   1.000  O
  O16      1.0000 0.91040  0.20500  0.83699  Biso   1.000  O
  N25      1.0000 0.17090  0.53450  0.14190  Biso   1.000  N
  N26      1.0000 0.67090  0.03450  0.14190  Biso   1.000  N
  N27      1.0000 0.82910  0.53450  0.35810  Biso   1.000  N
  N28      1.0000 0.32910  0.03450  0.35810  Biso   1.000  N
  N29      1.0000 0.82910  0.46550  0.85810  Biso   1.000  N
  N30      1.0000 0.32910  0.96550  0.85810  Biso   1.000  N
  N31      1.0000 0.17090  0.46550  0.64190  Biso   1.000  N
  N32      1.0000 0.67090  0.96550  0.64190  Biso   1.000  N
  C1       1.0000 0.28550  0.31560  0.30350  Biso   1.000  C
  C2       1.0000 0.78550  0.81560  0.30350  Biso   1.000  C
  C3       1.0000 0.71450  0.31560  0.19650  Biso   1.000  C
  C4       1.0000 0.21450  0.81560  0.19650  Biso   1.000  C
  C5       1.0000 0.71450  0.68440  0.69650  Biso   1.000  C
  C6       1.0000 0.21450  0.18440  0.69650  Biso   1.000  C
  C7       1.0000 0.28550  0.68440  0.80350  Biso   1.000  C
  C8       1.0000 0.78550  0.18440  0.80350  Biso   1.000  C
  C9       1.0000 0.22220  0.25340  0.20582  Biso   1.000  C
  C10      1.0000 0.72220  0.75340  0.20582  Biso   1.000  C
  C11      1.0000 0.77780  0.25340  0.29418  Biso   1.000  C
  C12      1.0000 0.27780  0.75340  0.29418  Biso   1.000  C
  C13      1.0000 0.77780  0.74660  0.79418  Biso   1.000  C
  C14      1.0000 0.27780  0.24660  0.79418  Biso   1.000  C
  C15      1.0000 0.22220  0.74660  0.70582  Biso   1.000  C
  C16      1.0000 0.72220  0.24660  0.70582  Biso   1.000  C
  C17      1.0000 0.24890  0.12400  0.08240  Biso   1.000  C
  C18      1.0000 0.74890  0.62400  0.08240  Biso   1.000  C
  C19      1.0000 0.75110  0.12400  0.41760  Biso   1.000  C
  C20      1.0000 0.25110  0.62400  0.41760  Biso   1.000  C
  C21      1.0000 0.75110  0.87600  0.91760  Biso   1.000  C
  C22      1.0000 0.25110  0.37600  0.91760  Biso   1.000  C
  C23      1.0000 0.24890  0.87600  0.58240  Biso   1.000  C
  C24      1.0000 0.74890  0.37600  0.58240  Biso   1.000  C
  C25      1.0000 0.11140  0.13930  0.03680  Biso   1.000  C
  C26      1.0000 0.61140  0.63930  0.03680  Biso   1.000  C
  C27      1.0000 0.88860  0.13930  0.46320  Biso   1.000  C
  C28      1.0000 0.38860  0.63930  0.46320  Biso   1.000  C
  C29      1.0000 0.88860  0.86070  0.96320  Biso   1.000  C
  C30      1.0000 0.38860  0.36070  0.96320  Biso   1.000  C
  C31      1.0000 0.11140  0.86070  0.53680  Biso   1.000  C
  C32      1.0000 0.61140  0.36070  0.53680  Biso   1.000  C
  N33      1.0000 0.28170  0.54200  0.12790  Biso   1.000  N
  N34      1.0000 0.78170  0.04200  0.12790  Biso   1.000  N
  N35      1.0000 0.71830  0.54200  0.37210  Biso   1.000  N
  N36      1.0000 0.21830  0.04200  0.37210  Biso   1.000  N
  N37      1.0000 0.71830  0.45800  0.87210  Biso   1.000  N
  N38      1.0000 0.21830  0.95800  0.87210  Biso   1.000  N
  N39      1.0000 0.28170  0.45800  0.62790  Biso   1.000  N
  N40      1.0000 0.78170  0.95800  0.62790  Biso   1.000  N
  C33      1.0000 0.03430  0.21530  0.08080  Biso   1.000  C
  C34      1.0000 0.53430  0.71530  0.08080  Biso   1.000  C
  C35      1.0000 0.96570  0.21530  0.41920  Biso   1.000  C
  C36      1.0000 0.46570  0.71530  0.41920  Biso   1.000  C
  C37      1.0000 0.96570  0.78470  0.91920  Biso   1.000  C
  C38      1.0000 0.46570  0.28470  0.91920  Biso   1.000  C
  C39      1.0000 0.03430  0.78470  0.58080  Biso   1.000  C
  C40      1.0000 0.53430  0.28470  0.58080  Biso   1.000  C
