data_image0
_cell_length_a       6.5203
_cell_length_b       8.147
_cell_length_c       9.998
_cell_angle_alpha    84.71
_cell_angle_beta     72.64
_cell_angle_gamma    67.2

_symmetry_space_group_name_H-M    "P 1"
_symmetry_int_tables_number       1

loop_
  _symmetry_equiv_pos_as_xyz
  'x, y, z'

loop_
  _atom_site_label
  _atom_site_occupancy
  _atom_site_fract_x
  _atom_site_fract_y
  _atom_site_fract_z
  _atom_site_thermal_displace_type
  _atom_site_B_iso_or_equiv
  _atom_site_type_symbol
  Cu1      1.0000 0.73764  0.21663  0.70864  Biso   1.000  Cu
  Cu2      1.0000 0.26236  0.78337  0.29136  Biso   1.000  Cu
  O1       1.0000 0.41960  0.22603  0.78468  Biso   1.000  O
  O2       1.0000 0.58040  0.77397  0.21532  Biso   1.000  O
  O3       1.0000 0.21900  0.06110  0.89699  Biso   1.000  O
  O4       1.0000 0.78100  0.93890  0.10301  Biso   1.000  O
  N1       1.0000 0.81570  0.95970  0.75276  Biso   1.000  N
  N2       1.0000 0.18430  0.04030  0.24724  Biso   1.000  N
  N3       1.0000 0.62590  0.77220  0.87433  Biso   1.000  N
  N4       1.0000 0.37410  0.22780  0.12567  Biso   1.000  N
  N5       1.0000 0.60600  0.75120  0.54000  Biso   1.000  N
  N6       1.0000 0.39400  0.24880  0.46000  Biso   1.000  N
  O5       1.0000 0.76890  0.27293  0.91340  Biso   1.000  O
  O6       1.0000 0.23110  0.72707  0.08660  Biso   1.000  O
  N7       1.0000 0.63310  0.45990  0.63790  Biso   1.000  N
  N8       1.0000 0.36690  0.54010  0.36210  Biso   1.000  N
  N9       1.0000 0.94040  0.81730  0.40050  Biso   1.000  N
  N10      1.0000 0.05960  0.18270  0.59950  Biso   1.000  N
  C1       1.0000 0.62720  0.92570  0.82044  Biso   1.000  C
  C2       1.0000 0.37280  0.07430  0.17956  Biso   1.000  C
  C3       1.0000 0.39830  0.08320  0.83638  Biso   1.000  C
  C4       1.0000 0.60170  0.91680  0.16362  Biso   1.000  C
  C5       1.0000 0.83350  0.64090  0.85850  Biso   1.000  C
  C6       1.0000 0.16650  0.35910  0.14150  Biso   1.000  C
  C7       1.0000 0.63120  0.59290  0.58880  Biso   1.000  C
  C8       1.0000 0.36880  0.40710  0.41120  Biso   1.000  C
  C9       1.0000 0.03770  0.66300  0.78950  Biso   1.000  C
  C10      1.0000 0.96230  0.33700  0.21050  Biso   1.000  C
  C11      1.0000 0.78830  0.77950  0.46540  Biso   1.000  C
  C12      1.0000 0.21170  0.22050  0.53460  Biso   1.000  C
  C13      1.0000 0.02280  0.82760  0.73760  Biso   1.000  C
  C14      1.0000 0.97720  0.17240  0.26240  Biso   1.000  C
  H1       1.0000 0.83300  0.54000  0.89700  Biso   1.000  H
  H2       1.0000 0.16700  0.46000  0.10300  Biso   1.000  H
  H3       1.0000 0.18500  0.56600  0.78600  Biso   1.000  H
  H4       1.0000 0.81500  0.43400  0.21400  Biso   1.000  H
  H5       1.0000 0.13900  0.84900  0.69700  Biso   1.000  H
  H6       1.0000 0.86100  0.15100  0.30300  Biso   1.000  H
  H7       1.0000 0.91080  0.20290  0.90980  Biso   1.000  H
  H8       1.0000 0.08920  0.79710  0.09020  Biso   1.000  H
  H9       1.0000 0.67830  0.24500  0.97760  Biso   1.000  H
  H10      1.0000 0.32170  0.75500  0.02240  Biso   1.000  H
