data_image0
_cell_length_a       19.731
_cell_length_b       15.198
_cell_length_c       9.498
_cell_angle_alpha    90
_cell_angle_beta     95.615
_cell_angle_gamma    90

_symmetry_space_group_name_H-M    "P 1"
_symmetry_int_tables_number       1

loop_
  _symmetry_equiv_pos_as_xyz
  'x, y, z'

loop_
  _atom_site_label
  _atom_site_occupancy
  _atom_site_fract_x
  _atom_site_fract_y
  _atom_site_fract_z
  _atom_site_thermal_displace_type
  _atom_site_B_iso_or_equiv
  _atom_site_type_symbol
  C1       1.0000 0.15540  0.86480  0.96950  Biso   1.000  C
  C2       1.0000 0.65540  0.36480  0.96950  Biso   1.000  C
  C3       1.0000 0.84460  0.86480  0.53050  Biso   1.000  C
  C4       1.0000 0.34460  0.36480  0.53050  Biso   1.000  C
  C5       1.0000 0.84460  0.13520  0.03050  Biso   1.000  C
  C6       1.0000 0.34460  0.63520  0.03050  Biso   1.000  C
  C7       1.0000 0.15540  0.13520  0.46950  Biso   1.000  C
  C8       1.0000 0.65540  0.63520  0.46950  Biso   1.000  C
  N1       1.0000 0.17850  0.75400  0.31340  Biso   1.000  N
  N2       1.0000 0.67850  0.25400  0.31340  Biso   1.000  N
  N3       1.0000 0.82150  0.75400  0.18660  Biso   1.000  N
  N4       1.0000 0.32150  0.25400  0.18660  Biso   1.000  N
  N5       1.0000 0.82150  0.24600  0.68660  Biso   1.000  N
  N6       1.0000 0.32150  0.74600  0.68660  Biso   1.000  N
  N7       1.0000 0.17850  0.24600  0.81340  Biso   1.000  N
  N8       1.0000 0.67850  0.74600  0.81340  Biso   1.000  N
  N9       1.0000 0.05010  0.74970  0.61570  Biso   1.000  N
  N10      1.0000 0.55010  0.24970  0.61570  Biso   1.000  N
  N11      1.0000 0.94990  0.74970  0.88430  Biso   1.000  N
  N12      1.0000 0.44990  0.24970  0.88430  Biso   1.000  N
  N13      1.0000 0.94990  0.25030  0.38430  Biso   1.000  N
  N14      1.0000 0.44990  0.75030  0.38430  Biso   1.000  N
  N15      1.0000 0.05010  0.25030  0.11570  Biso   1.000  N
  N16      1.0000 0.55010  0.75030  0.11570  Biso   1.000  N
  C9       1.0000 0.19860  0.90710  0.63090  Biso   1.000  C
  C10      1.0000 0.69860  0.40710  0.63090  Biso   1.000  C
  C11      1.0000 0.80140  0.90710  0.86910  Biso   1.000  C
  C12      1.0000 0.30140  0.40710  0.86910  Biso   1.000  C
  C13      1.0000 0.80140  0.09290  0.36910  Biso   1.000  C
  C14      1.0000 0.30140  0.59290  0.36910  Biso   1.000  C
  C15      1.0000 0.19860  0.09290  0.13090  Biso   1.000  C
  C16      1.0000 0.69860  0.59290  0.13090  Biso   1.000  C
  C17      1.0000 0.04800  0.57810  0.33540  Biso   1.000  C
  C18      1.0000 0.54800  0.07810  0.33540  Biso   1.000  C
  C19      1.0000 0.95200  0.57810  0.16460  Biso   1.000  C
  C20      1.0000 0.45200  0.07810  0.16460  Biso   1.000  C
  C21      1.0000 0.95200  0.42190  0.66460  Biso   1.000  C
  C22      1.0000 0.45200  0.92190  0.66460  Biso   1.000  C
  C23      1.0000 0.04800  0.42190  0.83540  Biso   1.000  C
  C24      1.0000 0.54800  0.92190  0.83540  Biso   1.000  C
  H1       1.0000 0.08110  0.54920  0.39480  Biso   1.000  H
  H2       1.0000 0.58110  0.04920  0.39480  Biso   1.000  H
  H3       1.0000 0.91890  0.54920  0.10520  Biso   1.000  H
  H4       1.0000 0.41890  0.04920  0.10520  Biso   1.000  H
  H5       1.0000 0.91890  0.45080  0.60520  Biso   1.000  H
  H6       1.0000 0.41890  0.95080  0.60520  Biso   1.000  H
  H7       1.0000 0.08110  0.45080  0.89480  Biso   1.000  H
  H8       1.0000 0.58110  0.95080  0.89480  Biso   1.000  H
  C25      1.0000 0.00000  0.52740  0.25000  Biso   1.000  C
  C26      1.0000 0.50000  0.02740  0.25000  Biso   1.000  C
  C27      1.0000 0.00000  0.47260  0.75000  Biso   1.000  C
  C28      1.0000 0.50000  0.97260  0.75000  Biso   1.000  C
  H9       1.0000 0.00000  0.46620  0.25000  Biso   1.000  H
  H10      1.0000 0.50000  0.96620  0.25000  Biso   1.000  H
  H11      1.0000 0.00000  0.53380  0.75000  Biso   1.000  H
  H12      1.0000 0.50000  0.03380  0.75000  Biso   1.000  H
  C29      1.0000 0.30530  0.08430  0.85930  Biso   1.000  C
  C30      1.0000 0.80530  0.58430  0.85930  Biso   1.000  C
  C31      1.0000 0.69470  0.08430  0.64070  Biso   1.000  C
  C32      1.0000 0.19470  0.58430  0.64070  Biso   1.000  C
  C33      1.0000 0.69470  0.91570  0.14070  Biso   1.000  C
  C34      1.0000 0.19470  0.41570  0.14070  Biso   1.000  C
  C35      1.0000 0.30530  0.91570  0.35930  Biso   1.000  C
  C36      1.0000 0.80530  0.41570  0.35930  Biso   1.000  C
  C37      1.0000 0.35750  0.86250  0.02570  Biso   1.000  C
  C38      1.0000 0.85750  0.36250  0.02570  Biso   1.000  C
  C39      1.0000 0.64250  0.86250  0.47430  Biso   1.000  C
  C40      1.0000 0.14250  0.36250  0.47430  Biso   1.000  C
  C41      1.0000 0.64250  0.13750  0.97430  Biso   1.000  C
  C42      1.0000 0.14250  0.63750  0.97430  Biso   1.000  C
  C43      1.0000 0.35750  0.13750  0.52570  Biso   1.000  C
  C44      1.0000 0.85750  0.63750  0.52570  Biso   1.000  C
  N17      1.0000 0.10100  0.87030  0.95200  Biso   1.000  N
  N18      1.0000 0.60100  0.37030  0.95200  Biso   1.000  N
  N19      1.0000 0.89900  0.87030  0.54800  Biso   1.000  N
  N20      1.0000 0.39900  0.37030  0.54800  Biso   1.000  N
  N21      1.0000 0.89900  0.12970  0.04800  Biso   1.000  N
  N22      1.0000 0.39900  0.62970  0.04800  Biso   1.000  N
  N23      1.0000 0.10100  0.12970  0.45200  Biso   1.000  N
  N24      1.0000 0.60100  0.62970  0.45200  Biso   1.000  N
  N25      1.0000 0.16830  0.85330  0.56710  Biso   1.000  N
  N26      1.0000 0.66830  0.35330  0.56710  Biso   1.000  N
  N27      1.0000 0.83170  0.85330  0.93290  Biso   1.000  N
  N28      1.0000 0.33170  0.35330  0.93290  Biso   1.000  N
  N29      1.0000 0.83170  0.14670  0.43290  Biso   1.000  N
  N30      1.0000 0.33170  0.64670  0.43290  Biso   1.000  N
  N31      1.0000 0.16830  0.14670  0.06710  Biso   1.000  N
  N32      1.0000 0.66830  0.64670  0.06710  Biso   1.000  N
  N33      1.0000 0.33210  0.13850  0.92670  Biso   1.000  N
  N34      1.0000 0.83210  0.63850  0.92670  Biso   1.000  N
  N35      1.0000 0.66790  0.13850  0.57330  Biso   1.000  N
  N36      1.0000 0.16790  0.63850  0.57330  Biso   1.000  N
  N37      1.0000 0.66790  0.86150  0.07330  Biso   1.000  N
  N38      1.0000 0.16790  0.36150  0.07330  Biso   1.000  N
  N39      1.0000 0.33210  0.86150  0.42670  Biso   1.000  N
  N40      1.0000 0.83210  0.36150  0.42670  Biso   1.000  N
  N41      1.0000 0.41340  0.86490  0.04400  Biso   1.000  N
  N42      1.0000 0.91340  0.36490  0.04400  Biso   1.000  N
  N43      1.0000 0.58660  0.86490  0.45600  Biso   1.000  N
  N44      1.0000 0.08660  0.36490  0.45600  Biso   1.000  N
  N45      1.0000 0.58660  0.13510  0.95600  Biso   1.000  N
  N46      1.0000 0.08660  0.63510  0.95600  Biso   1.000  N
  N47      1.0000 0.41340  0.13510  0.54400  Biso   1.000  N
  N48      1.0000 0.91340  0.63510  0.54400  Biso   1.000  N
  K1       1.0000 0.02590  0.99310  0.87290  Biso   1.000  K
  K2       1.0000 0.52590  0.49310  0.87290  Biso   1.000  K
  K3       1.0000 0.97410  0.99310  0.62710  Biso   1.000  K
  K4       1.0000 0.47410  0.49310  0.62710  Biso   1.000  K
  K5       1.0000 0.97410  0.00690  0.12710  Biso   1.000  K
  K6       1.0000 0.47410  0.50690  0.12710  Biso   1.000  K
  K7       1.0000 0.02590  0.00690  0.37290  Biso   1.000  K
  K8       1.0000 0.52590  0.50690  0.37290  Biso   1.000  K
  Au1      1.0000 0.25605  0.86314  0.99852  Biso   1.000  Au
  Au2      1.0000 0.75605  0.36314  0.99852  Biso   1.000  Au
  Au3      1.0000 0.74395  0.86314  0.50148  Biso   1.000  Au
  Au4      1.0000 0.24395  0.36314  0.50148  Biso   1.000  Au
  Au5      1.0000 0.74395  0.13686  0.00148  Biso   1.000  Au
  Au6      1.0000 0.24395  0.63686  0.00148  Biso   1.000  Au
  Au7      1.0000 0.25605  0.13686  0.49852  Biso   1.000  Au
  Au8      1.0000 0.75605  0.63686  0.49852  Biso   1.000  Au
  Au9      1.0000 0.25309  0.99613  0.74306  Biso   1.000  Au
  Au10     1.0000 0.75309  0.49613  0.74306  Biso   1.000  Au
  Au11     1.0000 0.74691  0.99613  0.75694  Biso   1.000  Au
  Au12     1.0000 0.24691  0.49613  0.75694  Biso   1.000  Au
  Au13     1.0000 0.74691  0.00387  0.25694  Biso   1.000  Au
  Au14     1.0000 0.24691  0.50387  0.25694  Biso   1.000  Au
  Au15     1.0000 0.25309  0.00387  0.24306  Biso   1.000  Au
  Au16     1.0000 0.75309  0.50387  0.24306  Biso   1.000  Au
  Cu1      1.0000 0.11444  0.75068  0.46507  Biso   1.000  Cu
  Cu2      1.0000 0.61444  0.25068  0.46507  Biso   1.000  Cu
  Cu3      1.0000 0.88556  0.75068  0.03493  Biso   1.000  Cu
  Cu4      1.0000 0.38556  0.25068  0.03493  Biso   1.000  Cu
  Cu5      1.0000 0.88556  0.24932  0.53493  Biso   1.000  Cu
  Cu6      1.0000 0.38556  0.74932  0.53493  Biso   1.000  Cu
  Cu7      1.0000 0.11444  0.24932  0.96507  Biso   1.000  Cu
  Cu8      1.0000 0.61444  0.74932  0.96507  Biso   1.000  Cu
  O1       1.0000 0.04400  0.84220  0.33400  Biso   1.000  O
  O2       1.0000 0.54400  0.34220  0.33400  Biso   1.000  O
  O3       1.0000 0.95600  0.84220  0.16600  Biso   1.000  O
  O4       1.0000 0.45600  0.34220  0.16600  Biso   1.000  O
  O5       1.0000 0.95600  0.15780  0.66600  Biso   1.000  O
  O6       1.0000 0.45600  0.65780  0.66600  Biso   1.000  O
  O7       1.0000 0.04400  0.15780  0.83400  Biso   1.000  O
  O8       1.0000 0.54400  0.65780  0.83400  Biso   1.000  O
  C45      1.0000 0.00000  0.70600  0.25000  Biso   1.000  C
  C46      1.0000 0.50000  0.20600  0.25000  Biso   1.000  C
  C47      1.0000 0.00000  0.29400  0.75000  Biso   1.000  C
  C48      1.0000 0.50000  0.79400  0.75000  Biso   1.000  C
  C49      1.0000 0.00000  0.80380  0.25000  Biso   1.000  C
  C50      1.0000 0.50000  0.30380  0.25000  Biso   1.000  C
  C51      1.0000 0.00000  0.19620  0.75000  Biso   1.000  C
  C52      1.0000 0.50000  0.69620  0.75000  Biso   1.000  C
  N49      1.0000 0.04780  0.66760  0.33380  Biso   1.000  N
  N50      1.0000 0.54780  0.16760  0.33380  Biso   1.000  N
  N51      1.0000 0.95220  0.66760  0.16620  Biso   1.000  N
  N52      1.0000 0.45220  0.16760  0.16620  Biso   1.000  N
  N53      1.0000 0.95220  0.33240  0.66620  Biso   1.000  N
  N54      1.0000 0.45220  0.83240  0.66620  Biso   1.000  N
  N55      1.0000 0.04780  0.33240  0.83380  Biso   1.000  N
  N56      1.0000 0.54780  0.83240  0.83380  Biso   1.000  N
