data_image0
_cell_length_a       20.247
_cell_length_b       13.756
_cell_length_c       17.471
_cell_angle_alpha    90
_cell_angle_beta     90.823
_cell_angle_gamma    90

_symmetry_space_group_name_H-M    "P 1"
_symmetry_int_tables_number       1

loop_
  _symmetry_equiv_pos_as_xyz
  'x, y, z'

loop_
  _atom_site_label
  _atom_site_occupancy
  _atom_site_fract_x
  _atom_site_fract_y
  _atom_site_fract_z
  _atom_site_thermal_displace_type
  _atom_site_B_iso_or_equiv
  _atom_site_type_symbol
  Cu1      1.0000 0.00000  0.00867  0.25000  Biso   1.000  Cu
  Cu2      1.0000 0.50000  0.50867  0.25000  Biso   1.000  Cu
  Cu3      1.0000 0.00000  0.99133  0.75000  Biso   1.000  Cu
  Cu4      1.0000 0.50000  0.49133  0.75000  Biso   1.000  Cu
  Cu5      1.0000 0.00000  0.50834  0.25000  Biso   1.000  Cu
  Cu6      1.0000 0.50000  0.00834  0.25000  Biso   1.000  Cu
  Cu7      1.0000 0.00000  0.49166  0.75000  Biso   1.000  Cu
  Cu8      1.0000 0.50000  0.99166  0.75000  Biso   1.000  Cu
  C1       1.0000 0.02173  0.30880  0.18990  Biso   1.000  C
  C2       1.0000 0.52173  0.80880  0.18990  Biso   1.000  C
  C3       1.0000 0.97827  0.30880  0.31010  Biso   1.000  C
  C4       1.0000 0.47827  0.80880  0.31010  Biso   1.000  C
  C5       1.0000 0.97827  0.69120  0.81010  Biso   1.000  C
  C6       1.0000 0.47827  0.19120  0.81010  Biso   1.000  C
  C7       1.0000 0.02173  0.69120  0.68990  Biso   1.000  C
  C8       1.0000 0.52173  0.19120  0.68990  Biso   1.000  C
  H1       1.0000 0.03770  0.34260  0.14650  Biso   1.000  H
  H2       1.0000 0.53770  0.84260  0.14650  Biso   1.000  H
  H3       1.0000 0.96230  0.34260  0.35350  Biso   1.000  H
  H4       1.0000 0.46230  0.84260  0.35350  Biso   1.000  H
  H5       1.0000 0.96230  0.65740  0.85350  Biso   1.000  H
  H6       1.0000 0.46230  0.15740  0.85350  Biso   1.000  H
  H7       1.0000 0.03770  0.65740  0.64650  Biso   1.000  H
  H8       1.0000 0.53770  0.15740  0.64650  Biso   1.000  H
  C9       1.0000 0.02136  0.20780  0.18980  Biso   1.000  C
  C10      1.0000 0.52136  0.70780  0.18980  Biso   1.000  C
  C11      1.0000 0.97864  0.20780  0.31020  Biso   1.000  C
  C12      1.0000 0.47864  0.70780  0.31020  Biso   1.000  C
  C13      1.0000 0.97864  0.79220  0.81020  Biso   1.000  C
  C14      1.0000 0.47864  0.29220  0.81020  Biso   1.000  C
  C15      1.0000 0.02136  0.79220  0.68980  Biso   1.000  C
  C16      1.0000 0.52136  0.29220  0.68980  Biso   1.000  C
  H9       1.0000 0.03660  0.17390  0.14610  Biso   1.000  H
  H10      1.0000 0.53660  0.67390  0.14610  Biso   1.000  H
  H11      1.0000 0.96340  0.17390  0.35390  Biso   1.000  H
  H12      1.0000 0.46340  0.67390  0.35390  Biso   1.000  H
  H13      1.0000 0.96340  0.82610  0.85390  Biso   1.000  H
  H14      1.0000 0.46340  0.32610  0.85390  Biso   1.000  H
  H15      1.0000 0.03660  0.82610  0.64610  Biso   1.000  H
  H16      1.0000 0.53660  0.32610  0.64610  Biso   1.000  H
  C17      1.0000 0.95236  0.70730  0.21410  Biso   1.000  C
  C18      1.0000 0.45236  0.20730  0.21410  Biso   1.000  C
  C19      1.0000 0.04764  0.70730  0.28590  Biso   1.000  C
  C20      1.0000 0.54764  0.20730  0.28590  Biso   1.000  C
  C21      1.0000 0.04764  0.29270  0.78590  Biso   1.000  C
  C22      1.0000 0.54764  0.79270  0.78590  Biso   1.000  C
  C23      1.0000 0.95236  0.29270  0.71410  Biso   1.000  C
  C24      1.0000 0.45236  0.79270  0.71410  Biso   1.000  C
  H17      1.0000 0.91770  0.67330  0.18830  Biso   1.000  H
  H18      1.0000 0.41770  0.17330  0.18830  Biso   1.000  H
  H19      1.0000 0.08230  0.67330  0.31170  Biso   1.000  H
  H20      1.0000 0.58230  0.17330  0.31170  Biso   1.000  H
  H21      1.0000 0.08230  0.32670  0.81170  Biso   1.000  H
  H22      1.0000 0.58230  0.82670  0.81170  Biso   1.000  H
  H23      1.0000 0.91770  0.32670  0.68830  Biso   1.000  H
  H24      1.0000 0.41770  0.82670  0.68830  Biso   1.000  H
  C25      1.0000 0.95260  0.80810  0.21370  Biso   1.000  C
  C26      1.0000 0.45260  0.30810  0.21370  Biso   1.000  C
  C27      1.0000 0.04740  0.80810  0.28630  Biso   1.000  C
  C28      1.0000 0.54740  0.30810  0.28630  Biso   1.000  C
  C29      1.0000 0.04740  0.19190  0.78630  Biso   1.000  C
  C30      1.0000 0.54740  0.69190  0.78630  Biso   1.000  C
  C31      1.0000 0.95260  0.19190  0.71370  Biso   1.000  C
  C32      1.0000 0.45260  0.69190  0.71370  Biso   1.000  C
  H25      1.0000 0.91840  0.84190  0.18710  Biso   1.000  H
  H26      1.0000 0.41840  0.34190  0.18710  Biso   1.000  H
  H27      1.0000 0.08160  0.84190  0.31290  Biso   1.000  H
  H28      1.0000 0.58160  0.34190  0.31290  Biso   1.000  H
  H29      1.0000 0.08160  0.15810  0.81290  Biso   1.000  H
  H30      1.0000 0.58160  0.65810  0.81290  Biso   1.000  H
  H31      1.0000 0.91840  0.15810  0.68710  Biso   1.000  H
  H32      1.0000 0.41840  0.65810  0.68710  Biso   1.000  H
  N1       1.0000 0.00000  0.35950  0.25000  Biso   1.000  N
  N2       1.0000 0.50000  0.85950  0.25000  Biso   1.000  N
  N3       1.0000 0.00000  0.64050  0.75000  Biso   1.000  N
  N4       1.0000 0.50000  0.14050  0.75000  Biso   1.000  N
  N5       1.0000 0.00000  0.15730  0.25000  Biso   1.000  N
  N6       1.0000 0.50000  0.65730  0.25000  Biso   1.000  N
  N7       1.0000 0.00000  0.84270  0.75000  Biso   1.000  N
  N8       1.0000 0.50000  0.34270  0.75000  Biso   1.000  N
  N9       1.0000 0.00000  0.65720  0.25000  Biso   1.000  N
  N10      1.0000 0.50000  0.15720  0.25000  Biso   1.000  N
  N11      1.0000 0.00000  0.34280  0.75000  Biso   1.000  N
  N12      1.0000 0.50000  0.84280  0.75000  Biso   1.000  N
  N13      1.0000 0.00000  0.85890  0.25000  Biso   1.000  N
  N14      1.0000 0.50000  0.35890  0.25000  Biso   1.000  N
  N15      1.0000 0.00000  0.14110  0.75000  Biso   1.000  N
  N16      1.0000 0.50000  0.64110  0.75000  Biso   1.000  N
  V1       1.0000 0.11103  0.88560  0.02576  Biso   1.000  V
  V2       1.0000 0.61103  0.38560  0.02576  Biso   1.000  V
  V3       1.0000 0.88897  0.88560  0.47424  Biso   1.000  V
  V4       1.0000 0.38897  0.38560  0.47424  Biso   1.000  V
  V5       1.0000 0.88897  0.11440  0.97424  Biso   1.000  V
  V6       1.0000 0.38897  0.61440  0.97424  Biso   1.000  V
  V7       1.0000 0.11103  0.11440  0.52576  Biso   1.000  V
  V8       1.0000 0.61103  0.61440  0.52576  Biso   1.000  V
  V9       1.0000 0.19069  0.75583  0.14078  Biso   1.000  V
  V10      1.0000 0.69069  0.25583  0.14078  Biso   1.000  V
  V11      1.0000 0.80931  0.75583  0.35922  Biso   1.000  V
  V12      1.0000 0.30931  0.25583  0.35922  Biso   1.000  V
  V13      1.0000 0.80931  0.24417  0.85922  Biso   1.000  V
  V14      1.0000 0.30931  0.74417  0.85922  Biso   1.000  V
  V15      1.0000 0.19069  0.24417  0.64078  Biso   1.000  V
  V16      1.0000 0.69069  0.74417  0.64078  Biso   1.000  V
  V17      1.0000 0.25960  0.86750  0.00175  Biso   1.000  V
  V18      1.0000 0.75960  0.36750  0.00175  Biso   1.000  V
  V19      1.0000 0.74040  0.86750  0.49825  Biso   1.000  V
  V20      1.0000 0.24040  0.36750  0.49825  Biso   1.000  V
  V21      1.0000 0.74040  0.13250  0.99825  Biso   1.000  V
  V22      1.0000 0.24040  0.63250  0.99825  Biso   1.000  V
  V23      1.0000 0.25960  0.13250  0.50175  Biso   1.000  V
  V24      1.0000 0.75960  0.63250  0.50175  Biso   1.000  V
  V25      1.0000 0.15730  0.76603  0.88467  Biso   1.000  V
  V26      1.0000 0.65730  0.26603  0.88467  Biso   1.000  V
  V27      1.0000 0.84270  0.76603  0.61533  Biso   1.000  V
  V28      1.0000 0.34270  0.26603  0.61533  Biso   1.000  V
  V29      1.0000 0.84270  0.23397  0.11533  Biso   1.000  V
  V30      1.0000 0.34270  0.73397  0.11533  Biso   1.000  V
  V31      1.0000 0.15730  0.23397  0.38467  Biso   1.000  V
  V32      1.0000 0.65730  0.73397  0.38467  Biso   1.000  V
  V33      1.0000 0.09172  0.66594  0.02341  Biso   1.000  V
  V34      1.0000 0.59172  0.16594  0.02341  Biso   1.000  V
  V35      1.0000 0.90828  0.66594  0.47659  Biso   1.000  V
  V36      1.0000 0.40828  0.16594  0.47659  Biso   1.000  V
  V37      1.0000 0.90828  0.33406  0.97659  Biso   1.000  V
  V38      1.0000 0.40828  0.83406  0.97659  Biso   1.000  V
  V39      1.0000 0.09172  0.33406  0.52341  Biso   1.000  V
  V40      1.0000 0.59172  0.83406  0.52341  Biso   1.000  V
  O1       1.0000 0.06537  0.98040  0.03557  Biso   1.000  O
  O2       1.0000 0.56537  0.48040  0.03557  Biso   1.000  O
  O3       1.0000 0.93463  0.98040  0.46443  Biso   1.000  O
  O4       1.0000 0.43463  0.48040  0.46443  Biso   1.000  O
  O5       1.0000 0.93463  0.01960  0.96443  Biso   1.000  O
  O6       1.0000 0.43463  0.51960  0.96443  Biso   1.000  O
  O7       1.0000 0.06537  0.01960  0.53557  Biso   1.000  O
  O8       1.0000 0.56537  0.51960  0.53557  Biso   1.000  O
  O9       1.0000 0.14027  0.86380  0.12607  Biso   1.000  O
  O10      1.0000 0.64027  0.36380  0.12607  Biso   1.000  O
  O11      1.0000 0.85973  0.86380  0.37393  Biso   1.000  O
  O12      1.0000 0.35973  0.36380  0.37393  Biso   1.000  O
  O13      1.0000 0.85973  0.13620  0.87393  Biso   1.000  O
  O14      1.0000 0.35973  0.63620  0.87393  Biso   1.000  O
  O15      1.0000 0.14027  0.13620  0.62607  Biso   1.000  O
  O16      1.0000 0.64027  0.63620  0.62607  Biso   1.000  O
  O17      1.0000 0.20040  0.95180  0.01331  Biso   1.000  O
  O18      1.0000 0.70040  0.45180  0.01331  Biso   1.000  O
  O19      1.0000 0.79960  0.95180  0.48669  Biso   1.000  O
  O20      1.0000 0.29960  0.45180  0.48669  Biso   1.000  O
  O21      1.0000 0.79960  0.04820  0.98669  Biso   1.000  O
  O22      1.0000 0.29960  0.54820  0.98669  Biso   1.000  O
  O23      1.0000 0.20040  0.04820  0.51331  Biso   1.000  O
  O24      1.0000 0.70040  0.54820  0.51331  Biso   1.000  O
  O25      1.0000 0.11337  0.87320  0.91887  Biso   1.000  O
  O26      1.0000 0.61337  0.37320  0.91887  Biso   1.000  O
  O27      1.0000 0.88663  0.87320  0.58113  Biso   1.000  O
  O28      1.0000 0.38663  0.37320  0.58113  Biso   1.000  O
  O29      1.0000 0.88663  0.12680  0.08113  Biso   1.000  O
  O30      1.0000 0.38663  0.62680  0.08113  Biso   1.000  O
  O31      1.0000 0.11337  0.12680  0.41887  Biso   1.000  O
  O32      1.0000 0.61337  0.62680  0.41887  Biso   1.000  O
  O33      1.0000 0.05257  0.78450  0.03223  Biso   1.000  O
  O34      1.0000 0.55257  0.28450  0.03223  Biso   1.000  O
  O35      1.0000 0.94743  0.78450  0.46777  Biso   1.000  O
  O36      1.0000 0.44743  0.28450  0.46777  Biso   1.000  O
  O37      1.0000 0.94743  0.21550  0.96777  Biso   1.000  O
  O38      1.0000 0.44743  0.71550  0.96777  Biso   1.000  O
  O39      1.0000 0.05257  0.21550  0.53223  Biso   1.000  O
  O40      1.0000 0.55257  0.71550  0.53223  Biso   1.000  O
  O41      1.0000 0.20251  0.75270  0.23152  Biso   1.000  O
  O42      1.0000 0.70251  0.25270  0.23152  Biso   1.000  O
  O43      1.0000 0.79749  0.75270  0.26848  Biso   1.000  O
  O44      1.0000 0.29749  0.25270  0.26848  Biso   1.000  O
  O45      1.0000 0.79749  0.24730  0.76848  Biso   1.000  O
  O46      1.0000 0.29749  0.74730  0.76848  Biso   1.000  O
  O47      1.0000 0.20251  0.24730  0.73152  Biso   1.000  O
  O48      1.0000 0.70251  0.74730  0.73152  Biso   1.000  O
  O49      1.0000 0.33113  0.92900  0.99167  Biso   1.000  O
  O50      1.0000 0.83113  0.42900  0.99167  Biso   1.000  O
  O51      1.0000 0.66887  0.92900  0.50833  Biso   1.000  O
  O52      1.0000 0.16887  0.42900  0.50833  Biso   1.000  O
  O53      1.0000 0.66887  0.07100  0.00833  Biso   1.000  O
  O54      1.0000 0.16887  0.57100  0.00833  Biso   1.000  O
  O55      1.0000 0.33113  0.07100  0.49167  Biso   1.000  O
  O56      1.0000 0.83113  0.57100  0.49167  Biso   1.000  O
  O57      1.0000 0.14616  0.76930  0.79362  Biso   1.000  O
  O58      1.0000 0.64616  0.26930  0.79362  Biso   1.000  O
  O59      1.0000 0.85384  0.76930  0.70638  Biso   1.000  O
  O60      1.0000 0.35384  0.26930  0.70638  Biso   1.000  O
  O61      1.0000 0.85384  0.23070  0.20638  Biso   1.000  O
  O62      1.0000 0.35384  0.73070  0.20638  Biso   1.000  O
  O63      1.0000 0.14616  0.23070  0.29362  Biso   1.000  O
  O64      1.0000 0.64616  0.73070  0.29362  Biso   1.000  O
  O65      1.0000 0.03212  0.59000  0.03031  Biso   1.000  O
  O66      1.0000 0.53212  0.09000  0.03031  Biso   1.000  O
  O67      1.0000 0.96788  0.59000  0.46969  Biso   1.000  O
  O68      1.0000 0.46788  0.09000  0.46969  Biso   1.000  O
  O69      1.0000 0.96788  0.41000  0.96969  Biso   1.000  O
  O70      1.0000 0.46788  0.91000  0.96969  Biso   1.000  O
  O71      1.0000 0.03212  0.41000  0.53031  Biso   1.000  O
  O72      1.0000 0.53212  0.91000  0.53031  Biso   1.000  O
  O73      1.0000 0.27091  0.83413  0.10971  Biso   1.000  O
  O74      1.0000 0.77091  0.33413  0.10971  Biso   1.000  O
  O75      1.0000 0.72909  0.83413  0.39029  Biso   1.000  O
  O76      1.0000 0.22909  0.33413  0.39029  Biso   1.000  O
  O77      1.0000 0.72909  0.16587  0.89029  Biso   1.000  O
  O78      1.0000 0.22909  0.66587  0.89029  Biso   1.000  O
  O79      1.0000 0.27091  0.16587  0.60971  Biso   1.000  O
  O80      1.0000 0.77091  0.66587  0.60971  Biso   1.000  O
  O81      1.0000 0.25736  0.65715  0.10681  Biso   1.000  O
  O82      1.0000 0.75736  0.15715  0.10681  Biso   1.000  O
  O83      1.0000 0.74264  0.65715  0.39319  Biso   1.000  O
  O84      1.0000 0.24264  0.15715  0.39319  Biso   1.000  O
  O85      1.0000 0.74264  0.34285  0.89319  Biso   1.000  O
  O86      1.0000 0.24264  0.84285  0.89319  Biso   1.000  O
  O87      1.0000 0.25736  0.34285  0.60681  Biso   1.000  O
  O88      1.0000 0.75736  0.84285  0.60681  Biso   1.000  O
  O89      1.0000 0.09792  0.67790  0.91636  Biso   1.000  O
  O90      1.0000 0.59792  0.17790  0.91636  Biso   1.000  O
  O91      1.0000 0.90208  0.67790  0.58364  Biso   1.000  O
  O92      1.0000 0.40208  0.17790  0.58364  Biso   1.000  O
  O93      1.0000 0.90208  0.32210  0.08364  Biso   1.000  O
  O94      1.0000 0.40208  0.82210  0.08364  Biso   1.000  O
  O95      1.0000 0.09792  0.32210  0.41636  Biso   1.000  O
  O96      1.0000 0.59792  0.82210  0.41636  Biso   1.000  O
  O97      1.0000 0.12449  0.66930  0.12446  Biso   1.000  O
  O98      1.0000 0.62449  0.16930  0.12446  Biso   1.000  O
  O99      1.0000 0.87551  0.66930  0.37554  Biso   1.000  O
  O100     1.0000 0.37551  0.16930  0.37554  Biso   1.000  O
  O101     1.0000 0.87551  0.33070  0.87554  Biso   1.000  O
  O102     1.0000 0.37551  0.83070  0.87554  Biso   1.000  O
  O103     1.0000 0.12449  0.33070  0.62446  Biso   1.000  O
  O104     1.0000 0.62449  0.83070  0.62446  Biso   1.000  O
  O105     1.0000 0.18578  0.76105  0.01064  Biso   1.000  O
  O106     1.0000 0.68578  0.26105  0.01064  Biso   1.000  O
  O107     1.0000 0.81422  0.76105  0.48936  Biso   1.000  O
  O108     1.0000 0.31422  0.26105  0.48936  Biso   1.000  O
  O109     1.0000 0.81422  0.23895  0.98936  Biso   1.000  O
  O110     1.0000 0.31422  0.73895  0.98936  Biso   1.000  O
  O111     1.0000 0.18578  0.23895  0.51064  Biso   1.000  O
  O112     1.0000 0.68578  0.73895  0.51064  Biso   1.000  O
  O113     1.0000 0.96845  0.00325  0.14245  Biso   1.000  O
  O114     1.0000 0.46845  0.50325  0.14245  Biso   1.000  O
  O115     1.0000 0.03155  0.00325  0.35755  Biso   1.000  O
  O116     1.0000 0.53155  0.50325  0.35755  Biso   1.000  O
  O117     1.0000 0.03155  0.99675  0.85755  Biso   1.000  O
  O118     1.0000 0.53155  0.49675  0.85755  Biso   1.000  O
  O119     1.0000 0.96845  0.99675  0.64245  Biso   1.000  O
  O120     1.0000 0.46845  0.49675  0.64245  Biso   1.000  O
  O121     1.0000 0.11024  0.01450  0.21508  Biso   1.000  O
  O122     1.0000 0.61024  0.51450  0.21508  Biso   1.000  O
  O123     1.0000 0.88976  0.01450  0.28492  Biso   1.000  O
  O124     1.0000 0.38976  0.51450  0.28492  Biso   1.000  O
  O125     1.0000 0.88976  0.98550  0.78492  Biso   1.000  O
  O126     1.0000 0.38976  0.48550  0.78492  Biso   1.000  O
  O127     1.0000 0.11024  0.98550  0.71508  Biso   1.000  O
  O128     1.0000 0.61024  0.48550  0.71508  Biso   1.000  O
  O129     1.0000 0.94554  0.50510  0.13298  Biso   1.000  O
  O130     1.0000 0.44554  0.00510  0.13298  Biso   1.000  O
  O131     1.0000 0.05446  0.50510  0.36702  Biso   1.000  O
  O132     1.0000 0.55446  0.00510  0.36702  Biso   1.000  O
  O133     1.0000 0.05446  0.49490  0.86702  Biso   1.000  O
  O134     1.0000 0.55446  0.99490  0.86702  Biso   1.000  O
  O135     1.0000 0.94554  0.49490  0.63298  Biso   1.000  O
  O136     1.0000 0.44554  0.99490  0.63298  Biso   1.000  O
  O137     1.0000 0.08883  0.50760  0.20226  Biso   1.000  O
  O138     1.0000 0.58883  0.00760  0.20226  Biso   1.000  O
  O139     1.0000 0.91117  0.50760  0.29774  Biso   1.000  O
  O140     1.0000 0.41117  0.00760  0.29774  Biso   1.000  O
  O141     1.0000 0.91117  0.49240  0.79774  Biso   1.000  O
  O142     1.0000 0.41117  0.99240  0.79774  Biso   1.000  O
  O143     1.0000 0.08883  0.49240  0.70226  Biso   1.000  O
  O144     1.0000 0.58883  0.99240  0.70226  Biso   1.000  O
  O145     1.0000 0.21272  0.00880  0.81780  Biso   1.000  O
  O146     1.0000 0.71272  0.50880  0.81780  Biso   1.000  O
  O147     1.0000 0.78728  0.00880  0.68220  Biso   1.000  O
  O148     1.0000 0.28728  0.50880  0.68220  Biso   1.000  O
  O149     1.0000 0.78728  0.99120  0.18220  Biso   1.000  O
  O150     1.0000 0.28728  0.49120  0.18220  Biso   1.000  O
  O151     1.0000 0.21272  0.99120  0.31780  Biso   1.000  O
  O152     1.0000 0.71272  0.49120  0.31780  Biso   1.000  O
  O153     1.0000 0.24580  0.72110  0.38430  Biso   1.000  O
  O154     1.0000 0.74580  0.22110  0.38430  Biso   1.000  O
  O155     1.0000 0.75420  0.72110  0.11570  Biso   1.000  O
  O156     1.0000 0.25420  0.22110  0.11570  Biso   1.000  O
  O157     1.0000 0.75420  0.27890  0.61570  Biso   1.000  O
  O158     1.0000 0.25420  0.77890  0.61570  Biso   1.000  O
  O159     1.0000 0.24580  0.27890  0.88430  Biso   1.000  O
  O160     1.0000 0.74580  0.77890  0.88430  Biso   1.000  O
  O161     1.0000 0.91520  0.79190  0.00470  Biso   1.000  O
  O162     1.0000 0.41520  0.29190  0.00470  Biso   1.000  O
  O163     1.0000 0.08480  0.79190  0.49530  Biso   1.000  O
  O164     1.0000 0.58480  0.29190  0.49530  Biso   1.000  O
  O165     1.0000 0.08480  0.20810  0.99530  Biso   1.000  O
  O166     1.0000 0.58480  0.70810  0.99530  Biso   1.000  O
  O167     1.0000 0.91520  0.20810  0.50470  Biso   1.000  O
  O168     1.0000 0.41520  0.70810  0.50470  Biso   1.000  O
  O169     1.0000 0.19310  0.15970  0.91260  Biso   1.000  O
  O170     1.0000 0.69310  0.65970  0.91260  Biso   1.000  O
  O171     1.0000 0.80690  0.15970  0.58740  Biso   1.000  O
  O172     1.0000 0.30690  0.65970  0.58740  Biso   1.000  O
  O173     1.0000 0.80690  0.84030  0.08740  Biso   1.000  O
  O174     1.0000 0.30690  0.34030  0.08740  Biso   1.000  O
  O175     1.0000 0.19310  0.84030  0.41260  Biso   1.000  O
  O176     1.0000 0.69310  0.34030  0.41260  Biso   1.000  O
  O177     1.0000 0.19850  0.63860  0.38450  Biso   1.000  O
  O178     1.0000 0.69850  0.13860  0.38450  Biso   1.000  O
  O179     1.0000 0.80150  0.63860  0.11550  Biso   1.000  O
  O180     1.0000 0.30150  0.13860  0.11550  Biso   1.000  O
  O181     1.0000 0.80150  0.36140  0.61550  Biso   1.000  O
  O182     1.0000 0.30150  0.86140  0.61550  Biso   1.000  O
  O183     1.0000 0.19850  0.36140  0.88450  Biso   1.000  O
  O184     1.0000 0.69850  0.86140  0.88450  Biso   1.000  O
  O185     1.0000 0.25430  0.65260  0.46770  Biso   1.000  O
  O186     1.0000 0.75430  0.15260  0.46770  Biso   1.000  O
  O187     1.0000 0.74570  0.65260  0.03230  Biso   1.000  O
  O188     1.0000 0.24570  0.15260  0.03230  Biso   1.000  O
  O189     1.0000 0.74570  0.34740  0.53230  Biso   1.000  O
  O190     1.0000 0.24570  0.84740  0.53230  Biso   1.000  O
  O191     1.0000 0.25430  0.34740  0.96770  Biso   1.000  O
  O192     1.0000 0.75430  0.84740  0.96770  Biso   1.000  O
  O193     1.0000 0.82950  0.62910  0.97210  Biso   1.000  O
  O194     1.0000 0.32950  0.12910  0.97210  Biso   1.000  O
  O195     1.0000 0.17050  0.62910  0.52790  Biso   1.000  O
  O196     1.0000 0.67050  0.12910  0.52790  Biso   1.000  O
  O197     1.0000 0.17050  0.37090  0.02790  Biso   1.000  O
  O198     1.0000 0.67050  0.87090  0.02790  Biso   1.000  O
  O199     1.0000 0.82950  0.37090  0.47210  Biso   1.000  O
  O200     1.0000 0.32950  0.87090  0.47210  Biso   1.000  O
  O201     1.0000 0.87840  0.62030  0.96190  Biso   1.000  O
  O202     1.0000 0.37840  0.12030  0.96190  Biso   1.000  O
  O203     1.0000 0.12160  0.62030  0.53810  Biso   1.000  O
  O204     1.0000 0.62160  0.12030  0.53810  Biso   1.000  O
  O205     1.0000 0.12160  0.37970  0.03810  Biso   1.000  O
  O206     1.0000 0.62160  0.87970  0.03810  Biso   1.000  O
  O207     1.0000 0.87840  0.37970  0.46190  Biso   1.000  O
  O208     1.0000 0.37840  0.87970  0.46190  Biso   1.000  O
  O209     1.0000 0.16320  0.15570  0.12450  Biso   1.000  O
  O210     1.0000 0.66320  0.65570  0.12450  Biso   1.000  O
  O211     1.0000 0.83680  0.15570  0.37550  Biso   1.000  O
  O212     1.0000 0.33680  0.65570  0.37550  Biso   1.000  O
  O213     1.0000 0.83680  0.84430  0.87550  Biso   1.000  O
  O214     1.0000 0.33680  0.34430  0.87550  Biso   1.000  O
  O215     1.0000 0.16320  0.84430  0.62450  Biso   1.000  O
  O216     1.0000 0.66320  0.34430  0.62450  Biso   1.000  O
  O217     1.0000 0.29600  0.81440  0.35730  Biso   1.000  O
  O218     1.0000 0.79600  0.31440  0.35730  Biso   1.000  O
  O219     1.0000 0.70400  0.81440  0.14270  Biso   1.000  O
  O220     1.0000 0.20400  0.31440  0.14270  Biso   1.000  O
  O221     1.0000 0.70400  0.18560  0.64270  Biso   1.000  O
  O222     1.0000 0.20400  0.68560  0.64270  Biso   1.000  O
  O223     1.0000 0.29600  0.18560  0.85730  Biso   1.000  O
  O224     1.0000 0.79600  0.68560  0.85730  Biso   1.000  O
  O225     1.0000 0.19636  0.48160  0.29470  Biso   1.000  O
  O226     1.0000 0.69636  0.98160  0.29470  Biso   1.000  O
  O227     1.0000 0.80364  0.48160  0.20530  Biso   1.000  O
  O228     1.0000 0.30364  0.98160  0.20530  Biso   1.000  O
  O229     1.0000 0.80364  0.51840  0.70530  Biso   1.000  O
  O230     1.0000 0.30364  0.01840  0.70530  Biso   1.000  O
  O231     1.0000 0.19636  0.51840  0.79470  Biso   1.000  O
  O232     1.0000 0.69636  0.01840  0.79470  Biso   1.000  O
  O233     1.0000 0.21410  0.13790  0.14350  Biso   1.000  O
  O234     1.0000 0.71410  0.63790  0.14350  Biso   1.000  O
  O235     1.0000 0.78590  0.13790  0.35650  Biso   1.000  O
  O236     1.0000 0.28590  0.63790  0.35650  Biso   1.000  O
  O237     1.0000 0.78590  0.86210  0.85650  Biso   1.000  O
  O238     1.0000 0.28590  0.36210  0.85650  Biso   1.000  O
  O239     1.0000 0.21410  0.86210  0.64350  Biso   1.000  O
  O240     1.0000 0.71410  0.36210  0.64350  Biso   1.000  O
  O241     1.0000 0.32100  0.85200  0.32400  Biso   1.000  O
  O242     1.0000 0.82100  0.35200  0.32400  Biso   1.000  O
  O243     1.0000 0.67900  0.85200  0.17600  Biso   1.000  O
  O244     1.0000 0.17900  0.35200  0.17600  Biso   1.000  O
  O245     1.0000 0.67900  0.14800  0.67600  Biso   1.000  O
  O246     1.0000 0.17900  0.64800  0.67600  Biso   1.000  O
  O247     1.0000 0.32100  0.14800  0.82400  Biso   1.000  O
  O248     1.0000 0.82100  0.64800  0.82400  Biso   1.000  O
