data_image0
_cell_length_a       15.8506
_cell_length_b       9.7946
_cell_length_c       5.047
_cell_angle_alpha    90
_cell_angle_beta     90
_cell_angle_gamma    90

_symmetry_space_group_name_H-M    "P 1"
_symmetry_int_tables_number       1

loop_
  _symmetry_equiv_pos_as_xyz
  'x, y, z'

loop_
  _atom_site_label
  _atom_site_occupancy
  _atom_site_fract_x
  _atom_site_fract_y
  _atom_site_fract_z
  _atom_site_thermal_displace_type
  _atom_site_B_iso_or_equiv
  _atom_site_type_symbol
  C1       1.0000 0.68130  0.04760  0.66860  Biso   1.000  C
  C2       1.0000 0.31870  0.95240  0.66860  Biso   1.000  C
  C3       1.0000 0.18130  0.45240  0.33140  Biso   1.000  C
  C4       1.0000 0.81870  0.54760  0.33140  Biso   1.000  C
  C5       1.0000 0.67460  0.89570  0.59400  Biso   1.000  C
  C6       1.0000 0.32540  0.10430  0.59400  Biso   1.000  C
  C7       1.0000 0.17460  0.60430  0.40600  Biso   1.000  C
  C8       1.0000 0.82540  0.39570  0.40600  Biso   1.000  C
  H1       1.0000 0.68460  0.88830  0.40290  Biso   1.000  H
  H2       1.0000 0.31540  0.11170  0.40290  Biso   1.000  H
  H3       1.0000 0.18460  0.61170  0.59710  Biso   1.000  H
  H4       1.0000 0.81540  0.38830  0.59710  Biso   1.000  H
  C9       1.0000 0.58570  0.84340  0.64880  Biso   1.000  C
  C10      1.0000 0.41430  0.15660  0.64880  Biso   1.000  C
  C11      1.0000 0.08570  0.65660  0.35120  Biso   1.000  C
  C12      1.0000 0.91430  0.34340  0.35120  Biso   1.000  C
  H5       1.0000 0.54550  0.90760  0.57490  Biso   1.000  H
  H6       1.0000 0.45450  0.09240  0.57490  Biso   1.000  H
  H7       1.0000 0.04550  0.59240  0.42510  Biso   1.000  H
  H8       1.0000 0.95450  0.40760  0.42510  Biso   1.000  H
  H9       1.0000 0.57690  0.84080  0.83890  Biso   1.000  H
  H10      1.0000 0.42310  0.15920  0.83890  Biso   1.000  H
  H11      1.0000 0.07690  0.65920  0.16110  Biso   1.000  H
  H12      1.0000 0.92310  0.34080  0.16110  Biso   1.000  H
  C13      1.0000 0.56770  0.70120  0.53450  Biso   1.000  C
  C14      1.0000 0.43230  0.29880  0.53450  Biso   1.000  C
  C15      1.0000 0.06770  0.79880  0.46550  Biso   1.000  C
  C16      1.0000 0.93230  0.20120  0.46550  Biso   1.000  C
  H13      1.0000 0.50700  0.68840  0.52890  Biso   1.000  H
  H14      1.0000 0.49300  0.31160  0.52890  Biso   1.000  H
  H15      1.0000 0.00700  0.81160  0.47110  Biso   1.000  H
  H16      1.0000 0.99300  0.18840  0.47110  Biso   1.000  H
  H17      1.0000 0.58790  0.69910  0.35310  Biso   1.000  H
  H18      1.0000 0.41210  0.30090  0.35310  Biso   1.000  H
  H19      1.0000 0.08790  0.80090  0.64690  Biso   1.000  H
  H20      1.0000 0.91210  0.19910  0.64690  Biso   1.000  H
  C17      1.0000 0.60610  0.58160  0.68140  Biso   1.000  C
  C18      1.0000 0.39390  0.41840  0.68140  Biso   1.000  C
  C19      1.0000 0.10610  0.91840  0.31860  Biso   1.000  C
  C20      1.0000 0.89390  0.08160  0.31860  Biso   1.000  C
  N1       1.0000 0.74250  0.81730  0.73090  Biso   1.000  N
  N2       1.0000 0.25750  0.18270  0.73090  Biso   1.000  N
  N3       1.0000 0.24250  0.68270  0.26910  Biso   1.000  N
  N4       1.0000 0.75750  0.31730  0.26910  Biso   1.000  N
  H21      1.0000 0.71900  0.77600  0.86100  Biso   1.000  H
  H22      1.0000 0.28100  0.22400  0.86100  Biso   1.000  H
  H23      1.0000 0.21900  0.72400  0.13900  Biso   1.000  H
  H24      1.0000 0.78100  0.27600  0.13900  Biso   1.000  H
  H25      1.0000 0.77300  0.77400  0.62000  Biso   1.000  H
  H26      1.0000 0.22700  0.22600  0.62000  Biso   1.000  H
  H27      1.0000 0.27300  0.72600  0.38000  Biso   1.000  H
  H28      1.0000 0.72700  0.27400  0.38000  Biso   1.000  H
  N5       1.0000 0.91150  0.79940  0.95010  Biso   1.000  N
  N6       1.0000 0.08850  0.20060  0.95010  Biso   1.000  N
  N7       1.0000 0.41150  0.70060  0.04990  Biso   1.000  N
  N8       1.0000 0.58850  0.29940  0.04990  Biso   1.000  N
  H29      1.0000 0.89800  0.76500  0.10600  Biso   1.000  H
  H30      1.0000 0.10200  0.23500  0.10600  Biso   1.000  H
  H31      1.0000 0.39800  0.73500  0.89400  Biso   1.000  H
  H32      1.0000 0.60200  0.26500  0.89400  Biso   1.000  H
  H33      1.0000 0.96370  0.83100  0.96000  Biso   1.000  H
  H34      1.0000 0.03630  0.16900  0.96000  Biso   1.000  H
  H35      1.0000 0.46370  0.66900  0.04000  Biso   1.000  H
  H36      1.0000 0.53630  0.33100  0.04000  Biso   1.000  H
  H37      1.0000 0.91500  0.73000  0.83900  Biso   1.000  H
  H38      1.0000 0.08500  0.27000  0.83900  Biso   1.000  H
  H39      1.0000 0.41500  0.77000  0.16100  Biso   1.000  H
  H40      1.0000 0.58500  0.23000  0.16100  Biso   1.000  H
  O1       1.0000 0.73711  0.08220  0.83910  Biso   1.000  O
  O2       1.0000 0.26289  0.91780  0.83910  Biso   1.000  O
  O3       1.0000 0.23711  0.41780  0.16090  Biso   1.000  O
  O4       1.0000 0.76289  0.58220  0.16090  Biso   1.000  O
  O5       1.0000 0.63245  0.12930  0.55950  Biso   1.000  O
  O6       1.0000 0.36755  0.87070  0.55950  Biso   1.000  O
  O7       1.0000 0.13245  0.37070  0.44050  Biso   1.000  O
  O8       1.0000 0.86755  0.62930  0.44050  Biso   1.000  O
  O9       1.0000 0.63586  0.48200  0.56000  Biso   1.000  O
  O10      1.0000 0.36414  0.51800  0.56000  Biso   1.000  O
  O11      1.0000 0.13586  0.01800  0.44000  Biso   1.000  O
  O12      1.0000 0.86414  0.98200  0.44000  Biso   1.000  O
  O13      1.0000 0.60471  0.58810  0.93610  Biso   1.000  O
  O14      1.0000 0.39529  0.41190  0.93610  Biso   1.000  O
  O15      1.0000 0.10471  0.91190  0.06390  Biso   1.000  O
  O16      1.0000 0.89529  0.08810  0.06390  Biso   1.000  O
  Cu1      1.0000 0.82842  0.94703  0.88113  Biso   1.000  Cu
  Cu2      1.0000 0.17158  0.05297  0.88113  Biso   1.000  Cu
  Cu3      1.0000 0.32842  0.55297  0.11887  Biso   1.000  Cu
  Cu4      1.0000 0.67158  0.44703  0.11887  Biso   1.000  Cu
