data_image0
_cell_length_a       23.0144
_cell_length_b       8.9745
_cell_length_c       12.3423
_cell_angle_alpha    90
_cell_angle_beta     98.069
_cell_angle_gamma    90

_symmetry_space_group_name_H-M    "P 1"
_symmetry_int_tables_number       1

loop_
  _symmetry_equiv_pos_as_xyz
  'x, y, z'

loop_
  _atom_site_label
  _atom_site_occupancy
  _atom_site_fract_x
  _atom_site_fract_y
  _atom_site_fract_z
  _atom_site_thermal_displace_type
  _atom_site_B_iso_or_equiv
  _atom_site_type_symbol
  Cu1      1.0000 0.50000  0.50000  0.50000  Biso   1.000  Cu
  Cu2      1.0000 0.50000  0.50000  0.00000  Biso   1.000  Cu
  Cu3      1.0000 0.00000  0.00000  0.50000  Biso   1.000  Cu
  Cu4      1.0000 0.00000  0.00000  0.00000  Biso   1.000  Cu
  O1       1.0000 0.58519  0.51207  0.53213  Biso   1.000  O
  O2       1.0000 0.41481  0.51207  0.96787  Biso   1.000  O
  O3       1.0000 0.08519  0.01207  0.53213  Biso   1.000  O
  O4       1.0000 0.91481  0.01207  0.96787  Biso   1.000  O
  O5       1.0000 0.41481  0.48793  0.46787  Biso   1.000  O
  O6       1.0000 0.58519  0.48793  0.03213  Biso   1.000  O
  O7       1.0000 0.91481  0.98793  0.46787  Biso   1.000  O
  O8       1.0000 0.08519  0.98793  0.03213  Biso   1.000  O
  O9       1.0000 0.61861  0.34911  0.41710  Biso   1.000  O
  O10      1.0000 0.38139  0.34911  0.08290  Biso   1.000  O
  O11      1.0000 0.11861  0.84911  0.41710  Biso   1.000  O
  O12      1.0000 0.88139  0.84911  0.08290  Biso   1.000  O
  O13      1.0000 0.38139  0.65089  0.58290  Biso   1.000  O
  O14      1.0000 0.61861  0.65089  0.91710  Biso   1.000  O
  O15      1.0000 0.88139  0.15089  0.58290  Biso   1.000  O
  O16      1.0000 0.11861  0.15089  0.91710  Biso   1.000  O
  O17      1.0000 0.82854  0.37423  0.37985  Biso   1.000  O
  O18      1.0000 0.17146  0.37423  0.12015  Biso   1.000  O
  O19      1.0000 0.32854  0.87423  0.37985  Biso   1.000  O
  O20      1.0000 0.67146  0.87423  0.12015  Biso   1.000  O
  O21      1.0000 0.17146  0.62577  0.62015  Biso   1.000  O
  O22      1.0000 0.82854  0.62577  0.87985  Biso   1.000  O
  O23      1.0000 0.67146  0.12577  0.62015  Biso   1.000  O
  O24      1.0000 0.32854  0.12577  0.87985  Biso   1.000  O
  O25      1.0000 0.88901  0.47938  0.50754  Biso   1.000  O
  O26      1.0000 0.11099  0.47938  0.99246  Biso   1.000  O
  O27      1.0000 0.38901  0.97938  0.50754  Biso   1.000  O
  O28      1.0000 0.61099  0.97938  0.99246  Biso   1.000  O
  O29      1.0000 0.11099  0.52062  0.49246  Biso   1.000  O
  O30      1.0000 0.88901  0.52062  0.00754  Biso   1.000  O
  O31      1.0000 0.61099  0.02062  0.49246  Biso   1.000  O
  O32      1.0000 0.38901  0.02062  0.00754  Biso   1.000  O
  O33      1.0000 0.80893  0.85982  0.72034  Biso   1.000  O
  O34      1.0000 0.19107  0.85982  0.77966  Biso   1.000  O
  O35      1.0000 0.30893  0.35982  0.72034  Biso   1.000  O
  O36      1.0000 0.69107  0.35982  0.77966  Biso   1.000  O
  O37      1.0000 0.19107  0.14018  0.27966  Biso   1.000  O
  O38      1.0000 0.80893  0.14018  0.22034  Biso   1.000  O
  O39      1.0000 0.69107  0.64018  0.27966  Biso   1.000  O
  O40      1.0000 0.30893  0.64018  0.22034  Biso   1.000  O
  O41      1.0000 0.72396  0.81749  0.77213  Biso   1.000  O
  O42      1.0000 0.27604  0.81749  0.72787  Biso   1.000  O
  O43      1.0000 0.22396  0.31749  0.77213  Biso   1.000  O
  O44      1.0000 0.77604  0.31749  0.72787  Biso   1.000  O
  O45      1.0000 0.27604  0.18251  0.22787  Biso   1.000  O
  O46      1.0000 0.72396  0.18251  0.27213  Biso   1.000  O
  O47      1.0000 0.77604  0.68251  0.22787  Biso   1.000  O
  O48      1.0000 0.22396  0.68251  0.27213  Biso   1.000  O
  O49      1.0000 0.50062  0.72994  0.58486  Biso   1.000  O
  O50      1.0000 0.49938  0.72994  0.91514  Biso   1.000  O
  O51      1.0000 0.00062  0.22994  0.58486  Biso   1.000  O
  O52      1.0000 0.99938  0.22994  0.91514  Biso   1.000  O
  O53      1.0000 0.49938  0.27006  0.41514  Biso   1.000  O
  O54      1.0000 0.50062  0.27006  0.08486  Biso   1.000  O
  O55      1.0000 0.99938  0.77006  0.41514  Biso   1.000  O
  O56      1.0000 0.00062  0.77006  0.08486  Biso   1.000  O
  N1       1.0000 0.83935  0.44779  0.46407  Biso   1.000  N
  N2       1.0000 0.16065  0.44779  0.03593  Biso   1.000  N
  N3       1.0000 0.33935  0.94779  0.46407  Biso   1.000  N
  N4       1.0000 0.66065  0.94779  0.03593  Biso   1.000  N
  N5       1.0000 0.16065  0.55221  0.53593  Biso   1.000  N
  N6       1.0000 0.83935  0.55221  0.96407  Biso   1.000  N
  N7       1.0000 0.66065  0.05221  0.53593  Biso   1.000  N
  N8       1.0000 0.33935  0.05221  0.96407  Biso   1.000  N
  N9       1.0000 0.76271  0.79037  0.71585  Biso   1.000  N
  N10      1.0000 0.23729  0.79037  0.78415  Biso   1.000  N
  N11      1.0000 0.26271  0.29037  0.71585  Biso   1.000  N
  N12      1.0000 0.73729  0.29037  0.78415  Biso   1.000  N
  N13      1.0000 0.23729  0.20963  0.28415  Biso   1.000  N
  N14      1.0000 0.76271  0.20963  0.21585  Biso   1.000  N
  N15      1.0000 0.73729  0.70963  0.28415  Biso   1.000  N
  N16      1.0000 0.26271  0.70963  0.21585  Biso   1.000  N
  N17      1.0000 0.50044  0.62971  0.35006  Biso   1.000  N
  N18      1.0000 0.49956  0.62971  0.14994  Biso   1.000  N
  N19      1.0000 0.00044  0.12971  0.35006  Biso   1.000  N
  N20      1.0000 0.99956  0.12971  0.14994  Biso   1.000  N
  N21      1.0000 0.49956  0.37029  0.64994  Biso   1.000  N
  N22      1.0000 0.50044  0.37029  0.85006  Biso   1.000  N
  N23      1.0000 0.99956  0.87029  0.64994  Biso   1.000  N
  N24      1.0000 0.00044  0.87029  0.85006  Biso   1.000  N
  N25      1.0000 0.44664  0.82435  0.23691  Biso   1.000  N
  N26      1.0000 0.55336  0.82435  0.26309  Biso   1.000  N
  N27      1.0000 0.94664  0.32435  0.23691  Biso   1.000  N
  N28      1.0000 0.05336  0.32435  0.26309  Biso   1.000  N
  N29      1.0000 0.55336  0.17565  0.76309  Biso   1.000  N
  N30      1.0000 0.44664  0.17565  0.73691  Biso   1.000  N
  N31      1.0000 0.05336  0.67565  0.76309  Biso   1.000  N
  N32      1.0000 0.94664  0.67565  0.73691  Biso   1.000  N
  C1       1.0000 0.62528  0.44730  0.48766  Biso   1.000  C
  C2       1.0000 0.37472  0.44730  0.01234  Biso   1.000  C
  C3       1.0000 0.12528  0.94730  0.48766  Biso   1.000  C
  C4       1.0000 0.87472  0.94730  0.01234  Biso   1.000  C
  C5       1.0000 0.37472  0.55270  0.51234  Biso   1.000  C
  C6       1.0000 0.62528  0.55270  0.98766  Biso   1.000  C
  C7       1.0000 0.87472  0.05270  0.51234  Biso   1.000  C
  C8       1.0000 0.12528  0.05270  0.98766  Biso   1.000  C
  C9       1.0000 0.68671  0.50430  0.52655  Biso   1.000  C
  C10      1.0000 0.31329  0.50430  0.97345  Biso   1.000  C
  C11      1.0000 0.18671  0.00430  0.52655  Biso   1.000  C
  C12      1.0000 0.81329  0.00430  0.97345  Biso   1.000  C
  C13      1.0000 0.31329  0.49570  0.47345  Biso   1.000  C
  C14      1.0000 0.68671  0.49570  0.02655  Biso   1.000  C
  C15      1.0000 0.81329  0.99570  0.47345  Biso   1.000  C
  C16      1.0000 0.18671  0.99570  0.02655  Biso   1.000  C
  C17      1.0000 0.73359  0.44790  0.48009  Biso   1.000  C
  C18      1.0000 0.26641  0.44790  0.01991  Biso   1.000  C
  C19      1.0000 0.23359  0.94790  0.48009  Biso   1.000  C
  C20      1.0000 0.76641  0.94790  0.01991  Biso   1.000  C
  C21      1.0000 0.26641  0.55210  0.51991  Biso   1.000  C
  C22      1.0000 0.73359  0.55210  0.98009  Biso   1.000  C
  C23      1.0000 0.76641  0.05210  0.51991  Biso   1.000  C
  C24      1.0000 0.23359  0.05210  0.98009  Biso   1.000  C
  H1       1.0000 0.72760  0.37290  0.42530  Biso   1.000  H
  H2       1.0000 0.27240  0.37290  0.07470  Biso   1.000  H
  H3       1.0000 0.22760  0.87290  0.42530  Biso   1.000  H
  H4       1.0000 0.77240  0.87290  0.07470  Biso   1.000  H
  H5       1.0000 0.27240  0.62710  0.57470  Biso   1.000  H
  H6       1.0000 0.72760  0.62710  0.92530  Biso   1.000  H
  H7       1.0000 0.77240  0.12710  0.57470  Biso   1.000  H
  H8       1.0000 0.22760  0.12710  0.92530  Biso   1.000  H
  C25      1.0000 0.78935  0.50270  0.51482  Biso   1.000  C
  C26      1.0000 0.21065  0.50270  0.98518  Biso   1.000  C
  C27      1.0000 0.28935  0.00270  0.51482  Biso   1.000  C
  C28      1.0000 0.71065  0.00270  0.98518  Biso   1.000  C
  C29      1.0000 0.21065  0.49730  0.48518  Biso   1.000  C
  C30      1.0000 0.78935  0.49730  0.01482  Biso   1.000  C
  C31      1.0000 0.71065  0.99730  0.48518  Biso   1.000  C
  C32      1.0000 0.28935  0.99730  0.01482  Biso   1.000  C
  C33      1.0000 0.80073  0.61200  0.59422  Biso   1.000  C
  C34      1.0000 0.19927  0.61200  0.90578  Biso   1.000  C
  C35      1.0000 0.30073  0.11200  0.59422  Biso   1.000  C
  C36      1.0000 0.69927  0.11200  0.90578  Biso   1.000  C
  C37      1.0000 0.19927  0.38800  0.40578  Biso   1.000  C
  C38      1.0000 0.80073  0.38800  0.09422  Biso   1.000  C
  C39      1.0000 0.69927  0.88800  0.40578  Biso   1.000  C
  C40      1.0000 0.30073  0.88800  0.09422  Biso   1.000  C
  H9       1.0000 0.83940  0.64700  0.61810  Biso   1.000  H
  H10      1.0000 0.16060  0.64700  0.88190  Biso   1.000  H
  H11      1.0000 0.33940  0.14700  0.61810  Biso   1.000  H
  H12      1.0000 0.66060  0.14700  0.88190  Biso   1.000  H
  H13      1.0000 0.16060  0.35300  0.38190  Biso   1.000  H
  H14      1.0000 0.83940  0.35300  0.11810  Biso   1.000  H
  H15      1.0000 0.66060  0.85300  0.38190  Biso   1.000  H
  H16      1.0000 0.33940  0.85300  0.11810  Biso   1.000  H
  C41      1.0000 0.75262  0.66710  0.63662  Biso   1.000  C
  C42      1.0000 0.24738  0.66710  0.86338  Biso   1.000  C
  C43      1.0000 0.25262  0.16710  0.63662  Biso   1.000  C
  C44      1.0000 0.74738  0.16710  0.86338  Biso   1.000  C
  C45      1.0000 0.24738  0.33290  0.36338  Biso   1.000  C
  C46      1.0000 0.75262  0.33290  0.13662  Biso   1.000  C
  C47      1.0000 0.74738  0.83290  0.36338  Biso   1.000  C
  C48      1.0000 0.25262  0.83290  0.13662  Biso   1.000  C
  C49      1.0000 0.69593  0.61590  0.60576  Biso   1.000  C
  C50      1.0000 0.30407  0.61590  0.89424  Biso   1.000  C
  C51      1.0000 0.19593  0.11590  0.60576  Biso   1.000  C
  C52      1.0000 0.80407  0.11590  0.89424  Biso   1.000  C
  C53      1.0000 0.30407  0.38410  0.39424  Biso   1.000  C
  C54      1.0000 0.69593  0.38410  0.10576  Biso   1.000  C
  C55      1.0000 0.80407  0.88410  0.39424  Biso   1.000  C
  C56      1.0000 0.19593  0.88410  0.10576  Biso   1.000  C
  H17      1.0000 0.66410  0.65580  0.63780  Biso   1.000  H
  H18      1.0000 0.33590  0.65580  0.86220  Biso   1.000  H
  H19      1.0000 0.16410  0.15580  0.63780  Biso   1.000  H
  H20      1.0000 0.83590  0.15580  0.86220  Biso   1.000  H
  H21      1.0000 0.33590  0.34420  0.36220  Biso   1.000  H
  H22      1.0000 0.66410  0.34420  0.13780  Biso   1.000  H
  H23      1.0000 0.83590  0.84420  0.36220  Biso   1.000  H
  H24      1.0000 0.16410  0.84420  0.13780  Biso   1.000  H
  C57      1.0000 0.50000  0.53700  0.25000  Biso   1.000  C
  C58      1.0000 0.00000  0.03700  0.25000  Biso   1.000  C
  C59      1.0000 0.50000  0.46300  0.75000  Biso   1.000  C
  C60      1.0000 0.00000  0.96300  0.75000  Biso   1.000  C
  H25      1.0000 0.53510  0.47210  0.25870  Biso   1.000  H
  H26      1.0000 0.46490  0.47210  0.24130  Biso   1.000  H
  H27      1.0000 0.03510  0.97210  0.25870  Biso   1.000  H
  H28      1.0000 0.96490  0.97210  0.24130  Biso   1.000  H
  H29      1.0000 0.46490  0.52790  0.74130  Biso   1.000  H
  H30      1.0000 0.53510  0.52790  0.75870  Biso   1.000  H
  H31      1.0000 0.96490  0.02790  0.74130  Biso   1.000  H
  H32      1.0000 0.03510  0.02790  0.75870  Biso   1.000  H
  C61      1.0000 0.44742  0.72900  0.33332  Biso   1.000  C
  C62      1.0000 0.55258  0.72900  0.16668  Biso   1.000  C
  C63      1.0000 0.94742  0.22900  0.33332  Biso   1.000  C
  C64      1.0000 0.05258  0.22900  0.16668  Biso   1.000  C
  C65      1.0000 0.55258  0.27100  0.66668  Biso   1.000  C
  C66      1.0000 0.44742  0.27100  0.83332  Biso   1.000  C
  C67      1.0000 0.05258  0.77100  0.66668  Biso   1.000  C
  C68      1.0000 0.94742  0.77100  0.83332  Biso   1.000  C
  H33      1.0000 0.41160  0.66670  0.32480  Biso   1.000  H
  H34      1.0000 0.58840  0.66670  0.17520  Biso   1.000  H
  H35      1.0000 0.91160  0.16670  0.32480  Biso   1.000  H
  H36      1.0000 0.08840  0.16670  0.17520  Biso   1.000  H
  H37      1.0000 0.58840  0.33330  0.67520  Biso   1.000  H
  H38      1.0000 0.41160  0.33330  0.82480  Biso   1.000  H
  H39      1.0000 0.08840  0.83330  0.67520  Biso   1.000  H
  H40      1.0000 0.91160  0.83330  0.82480  Biso   1.000  H
  H41      1.0000 0.44700  0.79230  0.39890  Biso   1.000  H
  H42      1.0000 0.55300  0.79230  0.10110  Biso   1.000  H
  H43      1.0000 0.94700  0.29230  0.39890  Biso   1.000  H
  H44      1.0000 0.05300  0.29230  0.10110  Biso   1.000  H
  H45      1.0000 0.55300  0.20770  0.60110  Biso   1.000  H
  H46      1.0000 0.44700  0.20770  0.89890  Biso   1.000  H
  H47      1.0000 0.05300  0.70770  0.60110  Biso   1.000  H
  H48      1.0000 0.94700  0.70770  0.89890  Biso   1.000  H
  C69      1.0000 0.44667  0.72890  0.14068  Biso   1.000  C
  C70      1.0000 0.55333  0.72890  0.35932  Biso   1.000  C
  C71      1.0000 0.94667  0.22890  0.14068  Biso   1.000  C
  C72      1.0000 0.05333  0.22890  0.35932  Biso   1.000  C
  C73      1.0000 0.55333  0.27110  0.85932  Biso   1.000  C
  C74      1.0000 0.44667  0.27110  0.64068  Biso   1.000  C
  C75      1.0000 0.05333  0.77110  0.85932  Biso   1.000  C
  C76      1.0000 0.94667  0.77110  0.64068  Biso   1.000  C
  H49      1.0000 0.44570  0.79220  0.07480  Biso   1.000  H
  H50      1.0000 0.55430  0.79220  0.42520  Biso   1.000  H
  H51      1.0000 0.94570  0.29220  0.07480  Biso   1.000  H
  H52      1.0000 0.05430  0.29220  0.42520  Biso   1.000  H
  H53      1.0000 0.55430  0.20780  0.92520  Biso   1.000  H
  H54      1.0000 0.44570  0.20780  0.57480  Biso   1.000  H
  H55      1.0000 0.05430  0.70780  0.92520  Biso   1.000  H
  H56      1.0000 0.94570  0.70780  0.57480  Biso   1.000  H
  H57      1.0000 0.41080  0.66660  0.13150  Biso   1.000  H
  H58      1.0000 0.58920  0.66660  0.36850  Biso   1.000  H
  H59      1.0000 0.91080  0.16660  0.13150  Biso   1.000  H
  H60      1.0000 0.08920  0.16660  0.36850  Biso   1.000  H
  H61      1.0000 0.58920  0.33340  0.86850  Biso   1.000  H
  H62      1.0000 0.41080  0.33340  0.63150  Biso   1.000  H
  H63      1.0000 0.08920  0.83340  0.86850  Biso   1.000  H
  H64      1.0000 0.91080  0.83340  0.63150  Biso   1.000  H
  C77      1.0000 0.50000  0.91650  0.25000  Biso   1.000  C
  C78      1.0000 0.00000  0.41650  0.25000  Biso   1.000  C
  C79      1.0000 0.50000  0.08350  0.75000  Biso   1.000  C
  C80      1.0000 0.00000  0.58350  0.75000  Biso   1.000  C
  H65      1.0000 0.50030  0.98140  0.31500  Biso   1.000  H
  H66      1.0000 0.49970  0.98140  0.18500  Biso   1.000  H
  H67      1.0000 0.00030  0.48140  0.31500  Biso   1.000  H
  H68      1.0000 0.99970  0.48140  0.18500  Biso   1.000  H
  H69      1.0000 0.49970  0.01860  0.68500  Biso   1.000  H
  H70      1.0000 0.50030  0.01860  0.81500  Biso   1.000  H
  H71      1.0000 0.99970  0.51860  0.68500  Biso   1.000  H
  H72      1.0000 0.00030  0.51860  0.81500  Biso   1.000  H
  H73      1.0000 0.46740  0.74300  0.60300  Biso   1.000  H
  H74      1.0000 0.53260  0.74300  0.89700  Biso   1.000  H
  H75      1.0000 0.96740  0.24300  0.60300  Biso   1.000  H
  H76      1.0000 0.03260  0.24300  0.89700  Biso   1.000  H
  H77      1.0000 0.53260  0.25700  0.39700  Biso   1.000  H
  H78      1.0000 0.46740  0.25700  0.10300  Biso   1.000  H
  H79      1.0000 0.03260  0.75700  0.39700  Biso   1.000  H
  H80      1.0000 0.96740  0.75700  0.10300  Biso   1.000  H
  H81      1.0000 0.52740  0.75800  0.63350  Biso   1.000  H
  H82      1.0000 0.47260  0.75800  0.86650  Biso   1.000  H
  H83      1.0000 0.02740  0.25800  0.63350  Biso   1.000  H
  H84      1.0000 0.97260  0.25800  0.86650  Biso   1.000  H
  H85      1.0000 0.47260  0.24200  0.36650  Biso   1.000  H
  H86      1.0000 0.52740  0.24200  0.13350  Biso   1.000  H
  H87      1.0000 0.97260  0.74200  0.36650  Biso   1.000  H
  H88      1.0000 0.02740  0.74200  0.13350  Biso   1.000  H
  O57      1.0000 0.59276  0.84125  0.73270  Biso   1.000  O
  O58      1.0000 0.40724  0.84125  0.76730  Biso   1.000  O
  O59      1.0000 0.09276  0.34125  0.73270  Biso   1.000  O
  O60      1.0000 0.90724  0.34125  0.76730  Biso   1.000  O
  O61      1.0000 0.40724  0.15875  0.26730  Biso   1.000  O
  O62      1.0000 0.59276  0.15875  0.23270  Biso   1.000  O
  O63      1.0000 0.90724  0.65875  0.26730  Biso   1.000  O
  O64      1.0000 0.09276  0.65875  0.23270  Biso   1.000  O
  H89      1.0000 0.61070  0.79600  0.78610  Biso   1.000  H
  H90      1.0000 0.38930  0.79600  0.71390  Biso   1.000  H
  H91      1.0000 0.11070  0.29600  0.78610  Biso   1.000  H
  H92      1.0000 0.88930  0.29600  0.71390  Biso   1.000  H
  H93      1.0000 0.38930  0.20400  0.21390  Biso   1.000  H
  H94      1.0000 0.61070  0.20400  0.28610  Biso   1.000  H
  H95      1.0000 0.88930  0.70400  0.21390  Biso   1.000  H
  H96      1.0000 0.11070  0.70400  0.28610  Biso   1.000  H
  H97      1.0000 0.59690  0.93280  0.74100  Biso   1.000  H
  H98      1.0000 0.40310  0.93280  0.75900  Biso   1.000  H
  H99      1.0000 0.09690  0.43280  0.74100  Biso   1.000  H
  H100     1.0000 0.90310  0.43280  0.75900  Biso   1.000  H
  H101     1.0000 0.40310  0.06720  0.25900  Biso   1.000  H
  H102     1.0000 0.59690  0.06720  0.24100  Biso   1.000  H
  H103     1.0000 0.90310  0.56720  0.25900  Biso   1.000  H
  H104     1.0000 0.09690  0.56720  0.24100  Biso   1.000  H
