data_image0
_cell_length_a       23.0024
_cell_length_b       8.9753
_cell_length_c       12.3386
_cell_angle_alpha    90
_cell_angle_beta     98.041
_cell_angle_gamma    90

_symmetry_space_group_name_H-M    "P 1"
_symmetry_int_tables_number       1

loop_
  _symmetry_equiv_pos_as_xyz
  'x, y, z'

loop_
  _atom_site_label
  _atom_site_occupancy
  _atom_site_fract_x
  _atom_site_fract_y
  _atom_site_fract_z
  _atom_site_thermal_displace_type
  _atom_site_B_iso_or_equiv
  _atom_site_type_symbol
  Cu1      1.0000 0.50000  0.50000  0.50000  Biso   1.000  Cu
  Cu2      1.0000 0.50000  0.50000  0.00000  Biso   1.000  Cu
  Cu3      1.0000 0.00000  0.00000  0.50000  Biso   1.000  Cu
  Cu4      1.0000 0.00000  0.00000  0.00000  Biso   1.000  Cu
  O1       1.0000 0.58521  0.51213  0.53212  Biso   1.000  O
  O2       1.0000 0.41479  0.51213  0.96788  Biso   1.000  O
  O3       1.0000 0.08521  0.01213  0.53212  Biso   1.000  O
  O4       1.0000 0.91479  0.01213  0.96788  Biso   1.000  O
  O5       1.0000 0.41479  0.48787  0.46788  Biso   1.000  O
  O6       1.0000 0.58521  0.48787  0.03212  Biso   1.000  O
  O7       1.0000 0.91479  0.98787  0.46788  Biso   1.000  O
  O8       1.0000 0.08521  0.98787  0.03212  Biso   1.000  O
  O9       1.0000 0.61853  0.34884  0.41704  Biso   1.000  O
  O10      1.0000 0.38147  0.34884  0.08296  Biso   1.000  O
  O11      1.0000 0.11853  0.84884  0.41704  Biso   1.000  O
  O12      1.0000 0.88147  0.84884  0.08296  Biso   1.000  O
  O13      1.0000 0.38147  0.65116  0.58296  Biso   1.000  O
  O14      1.0000 0.61853  0.65116  0.91704  Biso   1.000  O
  O15      1.0000 0.88147  0.15116  0.58296  Biso   1.000  O
  O16      1.0000 0.11853  0.15116  0.91704  Biso   1.000  O
  O17      1.0000 0.82857  0.37419  0.37993  Biso   1.000  O
  O18      1.0000 0.17143  0.37419  0.12007  Biso   1.000  O
  O19      1.0000 0.32857  0.87419  0.37993  Biso   1.000  O
  O20      1.0000 0.67143  0.87419  0.12007  Biso   1.000  O
  O21      1.0000 0.17143  0.62581  0.62007  Biso   1.000  O
  O22      1.0000 0.82857  0.62581  0.87993  Biso   1.000  O
  O23      1.0000 0.67143  0.12581  0.62007  Biso   1.000  O
  O24      1.0000 0.32857  0.12581  0.87993  Biso   1.000  O
  O25      1.0000 0.88893  0.47924  0.50746  Biso   1.000  O
  O26      1.0000 0.11107  0.47924  0.99254  Biso   1.000  O
  O27      1.0000 0.38893  0.97924  0.50746  Biso   1.000  O
  O28      1.0000 0.61107  0.97924  0.99254  Biso   1.000  O
  O29      1.0000 0.11107  0.52076  0.49254  Biso   1.000  O
  O30      1.0000 0.88893  0.52076  0.00746  Biso   1.000  O
  O31      1.0000 0.61107  0.02076  0.49254  Biso   1.000  O
  O32      1.0000 0.38893  0.02076  0.00746  Biso   1.000  O
  O33      1.0000 0.80883  0.85976  0.72015  Biso   1.000  O
  O34      1.0000 0.19117  0.85976  0.77985  Biso   1.000  O
  O35      1.0000 0.30883  0.35976  0.72015  Biso   1.000  O
  O36      1.0000 0.69117  0.35976  0.77985  Biso   1.000  O
  O37      1.0000 0.19117  0.14024  0.27985  Biso   1.000  O
  O38      1.0000 0.80883  0.14024  0.22015  Biso   1.000  O
  O39      1.0000 0.69117  0.64024  0.27985  Biso   1.000  O
  O40      1.0000 0.30883  0.64024  0.22015  Biso   1.000  O
  O41      1.0000 0.72401  0.81747  0.77216  Biso   1.000  O
  O42      1.0000 0.27599  0.81747  0.72784  Biso   1.000  O
  O43      1.0000 0.22401  0.31747  0.77216  Biso   1.000  O
  O44      1.0000 0.77599  0.31747  0.72784  Biso   1.000  O
  O45      1.0000 0.27599  0.18253  0.22784  Biso   1.000  O
  O46      1.0000 0.72401  0.18253  0.27216  Biso   1.000  O
  O47      1.0000 0.77599  0.68253  0.22784  Biso   1.000  O
  O48      1.0000 0.22401  0.68253  0.27216  Biso   1.000  O
  O49      1.0000 0.50058  0.72998  0.58498  Biso   1.000  O
  O50      1.0000 0.49942  0.72998  0.91502  Biso   1.000  O
  O51      1.0000 0.00058  0.22998  0.58498  Biso   1.000  O
  O52      1.0000 0.99942  0.22998  0.91502  Biso   1.000  O
  O53      1.0000 0.49942  0.27002  0.41502  Biso   1.000  O
  O54      1.0000 0.50058  0.27002  0.08498  Biso   1.000  O
  O55      1.0000 0.99942  0.77002  0.41502  Biso   1.000  O
  O56      1.0000 0.00058  0.77002  0.08498  Biso   1.000  O
  N1       1.0000 0.83947  0.44802  0.46403  Biso   1.000  N
  N2       1.0000 0.16053  0.44802  0.03597  Biso   1.000  N
  N3       1.0000 0.33947  0.94802  0.46403  Biso   1.000  N
  N4       1.0000 0.66053  0.94802  0.03597  Biso   1.000  N
  N5       1.0000 0.16053  0.55198  0.53597  Biso   1.000  N
  N6       1.0000 0.83947  0.55198  0.96403  Biso   1.000  N
  N7       1.0000 0.66053  0.05198  0.53597  Biso   1.000  N
  N8       1.0000 0.33947  0.05198  0.96403  Biso   1.000  N
  N9       1.0000 0.76262  0.79012  0.71609  Biso   1.000  N
  N10      1.0000 0.23738  0.79012  0.78391  Biso   1.000  N
  N11      1.0000 0.26262  0.29012  0.71609  Biso   1.000  N
  N12      1.0000 0.73738  0.29012  0.78391  Biso   1.000  N
  N13      1.0000 0.23738  0.20988  0.28391  Biso   1.000  N
  N14      1.0000 0.76262  0.20988  0.21609  Biso   1.000  N
  N15      1.0000 0.73738  0.70988  0.28391  Biso   1.000  N
  N16      1.0000 0.26262  0.70988  0.21609  Biso   1.000  N
  N17      1.0000 0.50043  0.62980  0.35011  Biso   1.000  N
  N18      1.0000 0.49957  0.62980  0.14989  Biso   1.000  N
  N19      1.0000 0.00043  0.12980  0.35011  Biso   1.000  N
  N20      1.0000 0.99957  0.12980  0.14989  Biso   1.000  N
  N21      1.0000 0.49957  0.37020  0.64989  Biso   1.000  N
  N22      1.0000 0.50043  0.37020  0.85011  Biso   1.000  N
  N23      1.0000 0.99957  0.87020  0.64989  Biso   1.000  N
  N24      1.0000 0.00043  0.87020  0.85011  Biso   1.000  N
  N25      1.0000 0.44656  0.82434  0.23693  Biso   1.000  N
  N26      1.0000 0.55344  0.82434  0.26307  Biso   1.000  N
  N27      1.0000 0.94656  0.32434  0.23693  Biso   1.000  N
  N28      1.0000 0.05344  0.32434  0.26307  Biso   1.000  N
  N29      1.0000 0.55344  0.17566  0.76307  Biso   1.000  N
  N30      1.0000 0.44656  0.17566  0.73693  Biso   1.000  N
  N31      1.0000 0.05344  0.67566  0.76307  Biso   1.000  N
  N32      1.0000 0.94656  0.67566  0.73693  Biso   1.000  N
  C1       1.0000 0.62526  0.44761  0.48769  Biso   1.000  C
  C2       1.0000 0.37474  0.44761  0.01231  Biso   1.000  C
  C3       1.0000 0.12526  0.94761  0.48769  Biso   1.000  C
  C4       1.0000 0.87474  0.94761  0.01231  Biso   1.000  C
  C5       1.0000 0.37474  0.55239  0.51231  Biso   1.000  C
  C6       1.0000 0.62526  0.55239  0.98769  Biso   1.000  C
  C7       1.0000 0.87474  0.05239  0.51231  Biso   1.000  C
  C8       1.0000 0.12526  0.05239  0.98769  Biso   1.000  C
  C9       1.0000 0.68664  0.50449  0.52659  Biso   1.000  C
  C10      1.0000 0.31336  0.50449  0.97341  Biso   1.000  C
  C11      1.0000 0.18664  0.00449  0.52659  Biso   1.000  C
  C12      1.0000 0.81336  0.00449  0.97341  Biso   1.000  C
  C13      1.0000 0.31336  0.49551  0.47341  Biso   1.000  C
  C14      1.0000 0.68664  0.49551  0.02659  Biso   1.000  C
  C15      1.0000 0.81336  0.99551  0.47341  Biso   1.000  C
  C16      1.0000 0.18664  0.99551  0.02659  Biso   1.000  C
  C17      1.0000 0.73371  0.44790  0.48007  Biso   1.000  C
  C18      1.0000 0.26629  0.44790  0.01993  Biso   1.000  C
  C19      1.0000 0.23371  0.94790  0.48007  Biso   1.000  C
  C20      1.0000 0.76629  0.94790  0.01993  Biso   1.000  C
  C21      1.0000 0.26629  0.55210  0.51993  Biso   1.000  C
  C22      1.0000 0.73371  0.55210  0.98007  Biso   1.000  C
  C23      1.0000 0.76629  0.05210  0.51993  Biso   1.000  C
  C24      1.0000 0.23371  0.05210  0.98007  Biso   1.000  C
  H1       1.0000 0.72770  0.37280  0.42530  Biso   1.000  H
  H2       1.0000 0.27230  0.37280  0.07470  Biso   1.000  H
  H3       1.0000 0.22770  0.87280  0.42530  Biso   1.000  H
  H4       1.0000 0.77230  0.87280  0.07470  Biso   1.000  H
  H5       1.0000 0.27230  0.62720  0.57470  Biso   1.000  H
  H6       1.0000 0.72770  0.62720  0.92530  Biso   1.000  H
  H7       1.0000 0.77230  0.12720  0.57470  Biso   1.000  H
  H8       1.0000 0.22770  0.12720  0.92530  Biso   1.000  H
  C25      1.0000 0.78940  0.50278  0.51486  Biso   1.000  C
  C26      1.0000 0.21060  0.50278  0.98514  Biso   1.000  C
  C27      1.0000 0.28940  0.00278  0.51486  Biso   1.000  C
  C28      1.0000 0.71060  0.00278  0.98514  Biso   1.000  C
  C29      1.0000 0.21060  0.49722  0.48514  Biso   1.000  C
  C30      1.0000 0.78940  0.49722  0.01486  Biso   1.000  C
  C31      1.0000 0.71060  0.99722  0.48514  Biso   1.000  C
  C32      1.0000 0.28940  0.99722  0.01486  Biso   1.000  C
  C33      1.0000 0.80081  0.61206  0.59433  Biso   1.000  C
  C34      1.0000 0.19919  0.61206  0.90567  Biso   1.000  C
  C35      1.0000 0.30081  0.11206  0.59433  Biso   1.000  C
  C36      1.0000 0.69919  0.11206  0.90567  Biso   1.000  C
  C37      1.0000 0.19919  0.38794  0.40567  Biso   1.000  C
  C38      1.0000 0.80081  0.38794  0.09433  Biso   1.000  C
  C39      1.0000 0.69919  0.88794  0.40567  Biso   1.000  C
  C40      1.0000 0.30081  0.88794  0.09433  Biso   1.000  C
  H9       1.0000 0.83940  0.64720  0.61820  Biso   1.000  H
  H10      1.0000 0.16060  0.64720  0.88180  Biso   1.000  H
  H11      1.0000 0.33940  0.14720  0.61820  Biso   1.000  H
  H12      1.0000 0.66060  0.14720  0.88180  Biso   1.000  H
  H13      1.0000 0.16060  0.35280  0.38180  Biso   1.000  H
  H14      1.0000 0.83940  0.35280  0.11820  Biso   1.000  H
  H15      1.0000 0.66060  0.85280  0.38180  Biso   1.000  H
  H16      1.0000 0.33940  0.85280  0.11820  Biso   1.000  H
  C41      1.0000 0.75259  0.66682  0.63667  Biso   1.000  C
  C42      1.0000 0.24741  0.66682  0.86333  Biso   1.000  C
  C43      1.0000 0.25259  0.16682  0.63667  Biso   1.000  C
  C44      1.0000 0.74741  0.16682  0.86333  Biso   1.000  C
  C45      1.0000 0.24741  0.33318  0.36333  Biso   1.000  C
  C46      1.0000 0.75259  0.33318  0.13667  Biso   1.000  C
  C47      1.0000 0.74741  0.83318  0.36333  Biso   1.000  C
  C48      1.0000 0.25259  0.83318  0.13667  Biso   1.000  C
  C49      1.0000 0.69606  0.61615  0.60594  Biso   1.000  C
  C50      1.0000 0.30394  0.61615  0.89406  Biso   1.000  C
  C51      1.0000 0.19606  0.11615  0.60594  Biso   1.000  C
  C52      1.0000 0.80394  0.11615  0.89406  Biso   1.000  C
  C53      1.0000 0.30394  0.38385  0.39406  Biso   1.000  C
  C54      1.0000 0.69606  0.38385  0.10594  Biso   1.000  C
  C55      1.0000 0.80394  0.88385  0.39406  Biso   1.000  C
  C56      1.0000 0.19606  0.88385  0.10594  Biso   1.000  C
  H17      1.0000 0.66430  0.65630  0.63800  Biso   1.000  H
  H18      1.0000 0.33570  0.65630  0.86200  Biso   1.000  H
  H19      1.0000 0.16430  0.15630  0.63800  Biso   1.000  H
  H20      1.0000 0.83570  0.15630  0.86200  Biso   1.000  H
  H21      1.0000 0.33570  0.34370  0.36200  Biso   1.000  H
  H22      1.0000 0.66430  0.34370  0.13800  Biso   1.000  H
  H23      1.0000 0.83570  0.84370  0.36200  Biso   1.000  H
  H24      1.0000 0.16430  0.84370  0.13800  Biso   1.000  H
  C57      1.0000 0.50000  0.53690  0.25000  Biso   1.000  C
  C58      1.0000 0.00000  0.03690  0.25000  Biso   1.000  C
  C59      1.0000 0.50000  0.46310  0.75000  Biso   1.000  C
  C60      1.0000 0.00000  0.96310  0.75000  Biso   1.000  C
  H25      1.0000 0.46490  0.47200  0.24130  Biso   1.000  H
  H26      1.0000 0.53510  0.47200  0.25870  Biso   1.000  H
  H27      1.0000 0.96490  0.97200  0.24130  Biso   1.000  H
  H28      1.0000 0.03510  0.97200  0.25870  Biso   1.000  H
  H29      1.0000 0.53510  0.52800  0.75870  Biso   1.000  H
  H30      1.0000 0.46490  0.52800  0.74130  Biso   1.000  H
  H31      1.0000 0.03510  0.02800  0.75870  Biso   1.000  H
  H32      1.0000 0.96490  0.02800  0.74130  Biso   1.000  H
  C61      1.0000 0.44741  0.72904  0.33329  Biso   1.000  C
  C62      1.0000 0.55259  0.72904  0.16671  Biso   1.000  C
  C63      1.0000 0.94741  0.22904  0.33329  Biso   1.000  C
  C64      1.0000 0.05259  0.22904  0.16671  Biso   1.000  C
  C65      1.0000 0.55259  0.27096  0.66671  Biso   1.000  C
  C66      1.0000 0.44741  0.27096  0.83329  Biso   1.000  C
  C67      1.0000 0.05259  0.77096  0.66671  Biso   1.000  C
  C68      1.0000 0.94741  0.77096  0.83329  Biso   1.000  C
  H33      1.0000 0.41150  0.66670  0.32480  Biso   1.000  H
  H34      1.0000 0.58850  0.66670  0.17520  Biso   1.000  H
  H35      1.0000 0.91150  0.16670  0.32480  Biso   1.000  H
  H36      1.0000 0.08850  0.16670  0.17520  Biso   1.000  H
  H37      1.0000 0.58850  0.33330  0.67520  Biso   1.000  H
  H38      1.0000 0.41150  0.33330  0.82480  Biso   1.000  H
  H39      1.0000 0.08850  0.83330  0.67520  Biso   1.000  H
  H40      1.0000 0.91150  0.83330  0.82480  Biso   1.000  H
  H41      1.0000 0.44700  0.79230  0.39890  Biso   1.000  H
  H42      1.0000 0.55300  0.79230  0.10110  Biso   1.000  H
  H43      1.0000 0.94700  0.29230  0.39890  Biso   1.000  H
  H44      1.0000 0.05300  0.29230  0.10110  Biso   1.000  H
  H45      1.0000 0.55300  0.20770  0.60110  Biso   1.000  H
  H46      1.0000 0.44700  0.20770  0.89890  Biso   1.000  H
  H47      1.0000 0.05300  0.70770  0.60110  Biso   1.000  H
  H48      1.0000 0.94700  0.70770  0.89890  Biso   1.000  H
  C69      1.0000 0.44674  0.72853  0.14074  Biso   1.000  C
  C70      1.0000 0.55326  0.72853  0.35926  Biso   1.000  C
  C71      1.0000 0.94674  0.22853  0.14074  Biso   1.000  C
  C72      1.0000 0.05326  0.22853  0.35926  Biso   1.000  C
  C73      1.0000 0.55326  0.27147  0.85926  Biso   1.000  C
  C74      1.0000 0.44674  0.27147  0.64074  Biso   1.000  C
  C75      1.0000 0.05326  0.77147  0.85926  Biso   1.000  C
  C76      1.0000 0.94674  0.77147  0.64074  Biso   1.000  C
  H49      1.0000 0.44570  0.79170  0.07470  Biso   1.000  H
  H50      1.0000 0.55430  0.79170  0.42530  Biso   1.000  H
  H51      1.0000 0.94570  0.29170  0.07470  Biso   1.000  H
  H52      1.0000 0.05430  0.29170  0.42530  Biso   1.000  H
  H53      1.0000 0.55430  0.20830  0.92530  Biso   1.000  H
  H54      1.0000 0.44570  0.20830  0.57470  Biso   1.000  H
  H55      1.0000 0.05430  0.70830  0.92530  Biso   1.000  H
  H56      1.0000 0.94570  0.70830  0.57470  Biso   1.000  H
  H57      1.0000 0.41090  0.66610  0.13160  Biso   1.000  H
  H58      1.0000 0.58910  0.66610  0.36840  Biso   1.000  H
  H59      1.0000 0.91090  0.16610  0.13160  Biso   1.000  H
  H60      1.0000 0.08910  0.16610  0.36840  Biso   1.000  H
  H61      1.0000 0.58910  0.33390  0.86840  Biso   1.000  H
  H62      1.0000 0.41090  0.33390  0.63160  Biso   1.000  H
  H63      1.0000 0.08910  0.83390  0.86840  Biso   1.000  H
  H64      1.0000 0.91090  0.83390  0.63160  Biso   1.000  H
  C77      1.0000 0.50000  0.91640  0.25000  Biso   1.000  C
  C78      1.0000 0.00000  0.41640  0.25000  Biso   1.000  C
  C79      1.0000 0.50000  0.08360  0.75000  Biso   1.000  C
  C80      1.0000 0.00000  0.58360  0.75000  Biso   1.000  C
  H65      1.0000 0.50030  0.98120  0.31500  Biso   1.000  H
  H66      1.0000 0.49970  0.98120  0.18500  Biso   1.000  H
  H67      1.0000 0.00030  0.48120  0.31500  Biso   1.000  H
  H68      1.0000 0.99970  0.48120  0.18500  Biso   1.000  H
  H69      1.0000 0.49970  0.01880  0.68500  Biso   1.000  H
  H70      1.0000 0.50030  0.01880  0.81500  Biso   1.000  H
  H71      1.0000 0.99970  0.51880  0.68500  Biso   1.000  H
  H72      1.0000 0.00030  0.51880  0.81500  Biso   1.000  H
  H73      1.0000 0.46770  0.74500  0.60410  Biso   1.000  H
  H74      1.0000 0.53230  0.74500  0.89590  Biso   1.000  H
  H75      1.0000 0.96770  0.24500  0.60410  Biso   1.000  H
  H76      1.0000 0.03230  0.24500  0.89590  Biso   1.000  H
  H77      1.0000 0.53230  0.25500  0.39590  Biso   1.000  H
  H78      1.0000 0.46770  0.25500  0.10410  Biso   1.000  H
  H79      1.0000 0.03230  0.75500  0.39590  Biso   1.000  H
  H80      1.0000 0.96770  0.75500  0.10410  Biso   1.000  H
  H81      1.0000 0.52810  0.75800  0.63140  Biso   1.000  H
  H82      1.0000 0.47190  0.75800  0.86860  Biso   1.000  H
  H83      1.0000 0.02810  0.25800  0.63140  Biso   1.000  H
  H84      1.0000 0.97190  0.25800  0.86860  Biso   1.000  H
  H85      1.0000 0.47190  0.24200  0.36860  Biso   1.000  H
  H86      1.0000 0.52810  0.24200  0.13140  Biso   1.000  H
  H87      1.0000 0.97190  0.74200  0.36860  Biso   1.000  H
  H88      1.0000 0.02810  0.74200  0.13140  Biso   1.000  H
  O57      1.0000 0.59272  0.84111  0.73267  Biso   1.000  O
  O58      1.0000 0.40728  0.84111  0.76733  Biso   1.000  O
  O59      1.0000 0.09272  0.34111  0.73267  Biso   1.000  O
  O60      1.0000 0.90728  0.34111  0.76733  Biso   1.000  O
  O61      1.0000 0.40728  0.15889  0.26733  Biso   1.000  O
  O62      1.0000 0.59272  0.15889  0.23267  Biso   1.000  O
  O63      1.0000 0.90728  0.65889  0.26733  Biso   1.000  O
  O64      1.0000 0.09272  0.65889  0.23267  Biso   1.000  O
  H89      1.0000 0.61060  0.79400  0.78550  Biso   1.000  H
  H90      1.0000 0.38940  0.79400  0.71450  Biso   1.000  H
  H91      1.0000 0.11060  0.29400  0.78550  Biso   1.000  H
  H92      1.0000 0.88940  0.29400  0.71450  Biso   1.000  H
  H93      1.0000 0.38940  0.20600  0.21450  Biso   1.000  H
  H94      1.0000 0.61060  0.20600  0.28550  Biso   1.000  H
  H95      1.0000 0.88940  0.70600  0.21450  Biso   1.000  H
  H96      1.0000 0.11060  0.70600  0.28550  Biso   1.000  H
  H97      1.0000 0.59860  0.93220  0.74100  Biso   1.000  H
  H98      1.0000 0.40140  0.93220  0.75900  Biso   1.000  H
  H99      1.0000 0.09860  0.43220  0.74100  Biso   1.000  H
  H100     1.0000 0.90140  0.43220  0.75900  Biso   1.000  H
  H101     1.0000 0.40140  0.06780  0.25900  Biso   1.000  H
  H102     1.0000 0.59860  0.06780  0.24100  Biso   1.000  H
  H103     1.0000 0.90140  0.56780  0.25900  Biso   1.000  H
  H104     1.0000 0.09860  0.56780  0.24100  Biso   1.000  H
