data_image0
_cell_length_a       23.0151
_cell_length_b       8.9752
_cell_length_c       12.3404
_cell_angle_alpha    90
_cell_angle_beta     98.108
_cell_angle_gamma    90

_symmetry_space_group_name_H-M    "P 1"
_symmetry_int_tables_number       1

loop_
  _symmetry_equiv_pos_as_xyz
  'x, y, z'

loop_
  _atom_site_label
  _atom_site_occupancy
  _atom_site_fract_x
  _atom_site_fract_y
  _atom_site_fract_z
  _atom_site_thermal_displace_type
  _atom_site_B_iso_or_equiv
  _atom_site_type_symbol
  Cu1      1.0000 0.50000  0.50000  0.50000  Biso   1.000  Cu
  Cu2      1.0000 0.50000  0.50000  0.00000  Biso   1.000  Cu
  Cu3      1.0000 0.00000  0.00000  0.50000  Biso   1.000  Cu
  Cu4      1.0000 0.00000  0.00000  0.00000  Biso   1.000  Cu
  O1       1.0000 0.58522  0.51224  0.53207  Biso   1.000  O
  O2       1.0000 0.41478  0.51224  0.96793  Biso   1.000  O
  O3       1.0000 0.08522  0.01224  0.53207  Biso   1.000  O
  O4       1.0000 0.91478  0.01224  0.96793  Biso   1.000  O
  O5       1.0000 0.41478  0.48776  0.46793  Biso   1.000  O
  O6       1.0000 0.58522  0.48776  0.03207  Biso   1.000  O
  O7       1.0000 0.91478  0.98776  0.46793  Biso   1.000  O
  O8       1.0000 0.08522  0.98776  0.03207  Biso   1.000  O
  O9       1.0000 0.61859  0.34881  0.41709  Biso   1.000  O
  O10      1.0000 0.38141  0.34881  0.08291  Biso   1.000  O
  O11      1.0000 0.11859  0.84881  0.41709  Biso   1.000  O
  O12      1.0000 0.88141  0.84881  0.08291  Biso   1.000  O
  O13      1.0000 0.38141  0.65119  0.58291  Biso   1.000  O
  O14      1.0000 0.61859  0.65119  0.91709  Biso   1.000  O
  O15      1.0000 0.88141  0.15119  0.58291  Biso   1.000  O
  O16      1.0000 0.11859  0.15119  0.91709  Biso   1.000  O
  O17      1.0000 0.82855  0.37428  0.37999  Biso   1.000  O
  O18      1.0000 0.17145  0.37428  0.12001  Biso   1.000  O
  O19      1.0000 0.32855  0.87428  0.37999  Biso   1.000  O
  O20      1.0000 0.67145  0.87428  0.12001  Biso   1.000  O
  O21      1.0000 0.17145  0.62572  0.62001  Biso   1.000  O
  O22      1.0000 0.82855  0.62572  0.87999  Biso   1.000  O
  O23      1.0000 0.67145  0.12572  0.62001  Biso   1.000  O
  O24      1.0000 0.32855  0.12572  0.87999  Biso   1.000  O
  O25      1.0000 0.88902  0.47917  0.50747  Biso   1.000  O
  O26      1.0000 0.11098  0.47917  0.99253  Biso   1.000  O
  O27      1.0000 0.38902  0.97917  0.50747  Biso   1.000  O
  O28      1.0000 0.61098  0.97917  0.99253  Biso   1.000  O
  O29      1.0000 0.11098  0.52083  0.49253  Biso   1.000  O
  O30      1.0000 0.88902  0.52083  0.00747  Biso   1.000  O
  O31      1.0000 0.61098  0.02083  0.49253  Biso   1.000  O
  O32      1.0000 0.38902  0.02083  0.00747  Biso   1.000  O
  O33      1.0000 0.80894  0.85987  0.72015  Biso   1.000  O
  O34      1.0000 0.19106  0.85987  0.77985  Biso   1.000  O
  O35      1.0000 0.30894  0.35987  0.72015  Biso   1.000  O
  O36      1.0000 0.69106  0.35987  0.77985  Biso   1.000  O
  O37      1.0000 0.19106  0.14013  0.27985  Biso   1.000  O
  O38      1.0000 0.80894  0.14013  0.22015  Biso   1.000  O
  O39      1.0000 0.69106  0.64013  0.27985  Biso   1.000  O
  O40      1.0000 0.30894  0.64013  0.22015  Biso   1.000  O
  O41      1.0000 0.72395  0.81752  0.77218  Biso   1.000  O
  O42      1.0000 0.27605  0.81752  0.72782  Biso   1.000  O
  O43      1.0000 0.22395  0.31752  0.77218  Biso   1.000  O
  O44      1.0000 0.77605  0.31752  0.72782  Biso   1.000  O
  O45      1.0000 0.27605  0.18248  0.22782  Biso   1.000  O
  O46      1.0000 0.72395  0.18248  0.27218  Biso   1.000  O
  O47      1.0000 0.77605  0.68248  0.22782  Biso   1.000  O
  O48      1.0000 0.22395  0.68248  0.27218  Biso   1.000  O
  O49      1.0000 0.50065  0.72996  0.58502  Biso   1.000  O
  O50      1.0000 0.49935  0.72996  0.91498  Biso   1.000  O
  O51      1.0000 0.00065  0.22996  0.58502  Biso   1.000  O
  O52      1.0000 0.99935  0.22996  0.91498  Biso   1.000  O
  O53      1.0000 0.49935  0.27004  0.41498  Biso   1.000  O
  O54      1.0000 0.50065  0.27004  0.08502  Biso   1.000  O
  O55      1.0000 0.99935  0.77004  0.41498  Biso   1.000  O
  O56      1.0000 0.00065  0.77004  0.08502  Biso   1.000  O
  N1       1.0000 0.83942  0.44777  0.46402  Biso   1.000  N
  N2       1.0000 0.16058  0.44777  0.03598  Biso   1.000  N
  N3       1.0000 0.33942  0.94777  0.46402  Biso   1.000  N
  N4       1.0000 0.66058  0.94777  0.03598  Biso   1.000  N
  N5       1.0000 0.16058  0.55223  0.53598  Biso   1.000  N
  N6       1.0000 0.83942  0.55223  0.96402  Biso   1.000  N
  N7       1.0000 0.66058  0.05223  0.53598  Biso   1.000  N
  N8       1.0000 0.33942  0.05223  0.96402  Biso   1.000  N
  N9       1.0000 0.76269  0.78999  0.71606  Biso   1.000  N
  N10      1.0000 0.23731  0.78999  0.78394  Biso   1.000  N
  N11      1.0000 0.26269  0.28999  0.71606  Biso   1.000  N
  N12      1.0000 0.73731  0.28999  0.78394  Biso   1.000  N
  N13      1.0000 0.23731  0.21001  0.28394  Biso   1.000  N
  N14      1.0000 0.76269  0.21001  0.21606  Biso   1.000  N
  N15      1.0000 0.73731  0.71001  0.28394  Biso   1.000  N
  N16      1.0000 0.26269  0.71001  0.21606  Biso   1.000  N
  N17      1.0000 0.50043  0.62990  0.35004  Biso   1.000  N
  N18      1.0000 0.49957  0.62990  0.14996  Biso   1.000  N
  N19      1.0000 0.00043  0.12990  0.35004  Biso   1.000  N
  N20      1.0000 0.99957  0.12990  0.14996  Biso   1.000  N
  N21      1.0000 0.49957  0.37010  0.64996  Biso   1.000  N
  N22      1.0000 0.50043  0.37010  0.85004  Biso   1.000  N
  N23      1.0000 0.99957  0.87010  0.64996  Biso   1.000  N
  N24      1.0000 0.00043  0.87010  0.85004  Biso   1.000  N
  N25      1.0000 0.44670  0.82428  0.23683  Biso   1.000  N
  N26      1.0000 0.55330  0.82428  0.26317  Biso   1.000  N
  N27      1.0000 0.94670  0.32428  0.23683  Biso   1.000  N
  N28      1.0000 0.05330  0.32428  0.26317  Biso   1.000  N
  N29      1.0000 0.55330  0.17572  0.76317  Biso   1.000  N
  N30      1.0000 0.44670  0.17572  0.73683  Biso   1.000  N
  N31      1.0000 0.05330  0.67572  0.76317  Biso   1.000  N
  N32      1.0000 0.94670  0.67572  0.73683  Biso   1.000  N
  C1       1.0000 0.62522  0.44749  0.48768  Biso   1.000  C
  C2       1.0000 0.37478  0.44749  0.01232  Biso   1.000  C
  C3       1.0000 0.12522  0.94749  0.48768  Biso   1.000  C
  C4       1.0000 0.87478  0.94749  0.01232  Biso   1.000  C
  C5       1.0000 0.37478  0.55251  0.51232  Biso   1.000  C
  C6       1.0000 0.62522  0.55251  0.98768  Biso   1.000  C
  C7       1.0000 0.87478  0.05251  0.51232  Biso   1.000  C
  C8       1.0000 0.12522  0.05251  0.98768  Biso   1.000  C
  C9       1.0000 0.68668  0.50437  0.52671  Biso   1.000  C
  C10      1.0000 0.31332  0.50437  0.97329  Biso   1.000  C
  C11      1.0000 0.18668  0.00437  0.52671  Biso   1.000  C
  C12      1.0000 0.81332  0.00437  0.97329  Biso   1.000  C
  C13      1.0000 0.31332  0.49563  0.47329  Biso   1.000  C
  C14      1.0000 0.68668  0.49563  0.02671  Biso   1.000  C
  C15      1.0000 0.81332  0.99563  0.47329  Biso   1.000  C
  C16      1.0000 0.18668  0.99563  0.02671  Biso   1.000  C
  C17      1.0000 0.73371  0.44780  0.47990  Biso   1.000  C
  C18      1.0000 0.26629  0.44780  0.02010  Biso   1.000  C
  C19      1.0000 0.23371  0.94780  0.47990  Biso   1.000  C
  C20      1.0000 0.76629  0.94780  0.02010  Biso   1.000  C
  C21      1.0000 0.26629  0.55220  0.52010  Biso   1.000  C
  C22      1.0000 0.73371  0.55220  0.97990  Biso   1.000  C
  C23      1.0000 0.76629  0.05220  0.52010  Biso   1.000  C
  C24      1.0000 0.23371  0.05220  0.97990  Biso   1.000  C
  H1       1.0000 0.72770  0.37290  0.42500  Biso   1.000  H
  H2       1.0000 0.27230  0.37290  0.07500  Biso   1.000  H
  H3       1.0000 0.22770  0.87290  0.42500  Biso   1.000  H
  H4       1.0000 0.77230  0.87290  0.07500  Biso   1.000  H
  H5       1.0000 0.27230  0.62710  0.57500  Biso   1.000  H
  H6       1.0000 0.72770  0.62710  0.92500  Biso   1.000  H
  H7       1.0000 0.77230  0.12710  0.57500  Biso   1.000  H
  H8       1.0000 0.22770  0.12710  0.92500  Biso   1.000  H
  C25      1.0000 0.78940  0.50297  0.51504  Biso   1.000  C
  C26      1.0000 0.21060  0.50297  0.98496  Biso   1.000  C
  C27      1.0000 0.28940  0.00297  0.51504  Biso   1.000  C
  C28      1.0000 0.71060  0.00297  0.98496  Biso   1.000  C
  C29      1.0000 0.21060  0.49703  0.48496  Biso   1.000  C
  C30      1.0000 0.78940  0.49703  0.01504  Biso   1.000  C
  C31      1.0000 0.71060  0.99703  0.48496  Biso   1.000  C
  C32      1.0000 0.28940  0.99703  0.01504  Biso   1.000  C
  C33      1.0000 0.80073  0.61217  0.59404  Biso   1.000  C
  C34      1.0000 0.19927  0.61217  0.90596  Biso   1.000  C
  C35      1.0000 0.30073  0.11217  0.59404  Biso   1.000  C
  C36      1.0000 0.69927  0.11217  0.90596  Biso   1.000  C
  C37      1.0000 0.19927  0.38783  0.40596  Biso   1.000  C
  C38      1.0000 0.80073  0.38783  0.09404  Biso   1.000  C
  C39      1.0000 0.69927  0.88783  0.40596  Biso   1.000  C
  C40      1.0000 0.30073  0.88783  0.09404  Biso   1.000  C
  H9       1.0000 0.83940  0.64740  0.61770  Biso   1.000  H
  H10      1.0000 0.16060  0.64740  0.88230  Biso   1.000  H
  H11      1.0000 0.33940  0.14740  0.61770  Biso   1.000  H
  H12      1.0000 0.66060  0.14740  0.88230  Biso   1.000  H
  H13      1.0000 0.16060  0.35260  0.38230  Biso   1.000  H
  H14      1.0000 0.83940  0.35260  0.11770  Biso   1.000  H
  H15      1.0000 0.66060  0.85260  0.38230  Biso   1.000  H
  H16      1.0000 0.33940  0.85260  0.11770  Biso   1.000  H
  C41      1.0000 0.75260  0.66718  0.63665  Biso   1.000  C
  C42      1.0000 0.24740  0.66718  0.86335  Biso   1.000  C
  C43      1.0000 0.25260  0.16718  0.63665  Biso   1.000  C
  C44      1.0000 0.74740  0.16718  0.86335  Biso   1.000  C
  C45      1.0000 0.24740  0.33282  0.36335  Biso   1.000  C
  C46      1.0000 0.75260  0.33282  0.13665  Biso   1.000  C
  C47      1.0000 0.74740  0.83282  0.36335  Biso   1.000  C
  C48      1.0000 0.25260  0.83282  0.13665  Biso   1.000  C
  C49      1.0000 0.69594  0.61592  0.60588  Biso   1.000  C
  C50      1.0000 0.30406  0.61592  0.89412  Biso   1.000  C
  C51      1.0000 0.19594  0.11592  0.60588  Biso   1.000  C
  C52      1.0000 0.80406  0.11592  0.89412  Biso   1.000  C
  C53      1.0000 0.30406  0.38408  0.39412  Biso   1.000  C
  C54      1.0000 0.69594  0.38408  0.10588  Biso   1.000  C
  C55      1.0000 0.80406  0.88408  0.39412  Biso   1.000  C
  C56      1.0000 0.19594  0.88408  0.10588  Biso   1.000  C
  H17      1.0000 0.66410  0.65580  0.63800  Biso   1.000  H
  H18      1.0000 0.33590  0.65580  0.86200  Biso   1.000  H
  H19      1.0000 0.16410  0.15580  0.63800  Biso   1.000  H
  H20      1.0000 0.83590  0.15580  0.86200  Biso   1.000  H
  H21      1.0000 0.33590  0.34420  0.36200  Biso   1.000  H
  H22      1.0000 0.66410  0.34420  0.13800  Biso   1.000  H
  H23      1.0000 0.83590  0.84420  0.36200  Biso   1.000  H
  H24      1.0000 0.16410  0.84420  0.13800  Biso   1.000  H
  C57      1.0000 0.50000  0.53700  0.25000  Biso   1.000  C
  C58      1.0000 0.00000  0.03700  0.25000  Biso   1.000  C
  C59      1.0000 0.50000  0.46300  0.75000  Biso   1.000  C
  C60      1.0000 0.00000  0.96300  0.75000  Biso   1.000  C
  H25      1.0000 0.46490  0.47220  0.24130  Biso   1.000  H
  H26      1.0000 0.53510  0.47220  0.25870  Biso   1.000  H
  H27      1.0000 0.96490  0.97220  0.24130  Biso   1.000  H
  H28      1.0000 0.03510  0.97220  0.25870  Biso   1.000  H
  H29      1.0000 0.53510  0.52780  0.75870  Biso   1.000  H
  H30      1.0000 0.46490  0.52780  0.74130  Biso   1.000  H
  H31      1.0000 0.03510  0.02780  0.75870  Biso   1.000  H
  H32      1.0000 0.96490  0.02780  0.74130  Biso   1.000  H
  C61      1.0000 0.44744  0.72903  0.33350  Biso   1.000  C
  C62      1.0000 0.55256  0.72903  0.16650  Biso   1.000  C
  C63      1.0000 0.94744  0.22903  0.33350  Biso   1.000  C
  C64      1.0000 0.05256  0.22903  0.16650  Biso   1.000  C
  C65      1.0000 0.55256  0.27097  0.66650  Biso   1.000  C
  C66      1.0000 0.44744  0.27097  0.83350  Biso   1.000  C
  C67      1.0000 0.05256  0.77097  0.66650  Biso   1.000  C
  C68      1.0000 0.94744  0.77097  0.83350  Biso   1.000  C
  H33      1.0000 0.41160  0.66680  0.32510  Biso   1.000  H
  H34      1.0000 0.58840  0.66680  0.17490  Biso   1.000  H
  H35      1.0000 0.91160  0.16680  0.32510  Biso   1.000  H
  H36      1.0000 0.08840  0.16680  0.17490  Biso   1.000  H
  H37      1.0000 0.58840  0.33320  0.67490  Biso   1.000  H
  H38      1.0000 0.41160  0.33320  0.82510  Biso   1.000  H
  H39      1.0000 0.08840  0.83320  0.67490  Biso   1.000  H
  H40      1.0000 0.91160  0.83320  0.82510  Biso   1.000  H
  H41      1.0000 0.44710  0.79240  0.39910  Biso   1.000  H
  H42      1.0000 0.55290  0.79240  0.10090  Biso   1.000  H
  H43      1.0000 0.94710  0.29240  0.39910  Biso   1.000  H
  H44      1.0000 0.05290  0.29240  0.10090  Biso   1.000  H
  H45      1.0000 0.55290  0.20760  0.60090  Biso   1.000  H
  H46      1.0000 0.44710  0.20760  0.89910  Biso   1.000  H
  H47      1.0000 0.05290  0.70760  0.60090  Biso   1.000  H
  H48      1.0000 0.94710  0.70760  0.89910  Biso   1.000  H
  C69      1.0000 0.44668  0.72883  0.14076  Biso   1.000  C
  C70      1.0000 0.55332  0.72883  0.35924  Biso   1.000  C
  C71      1.0000 0.94668  0.22883  0.14076  Biso   1.000  C
  C72      1.0000 0.05332  0.22883  0.35924  Biso   1.000  C
  C73      1.0000 0.55332  0.27117  0.85924  Biso   1.000  C
  C74      1.0000 0.44668  0.27117  0.64076  Biso   1.000  C
  C75      1.0000 0.05332  0.77117  0.85924  Biso   1.000  C
  C76      1.0000 0.94668  0.77117  0.64076  Biso   1.000  C
  H49      1.0000 0.44560  0.79210  0.07480  Biso   1.000  H
  H50      1.0000 0.55440  0.79210  0.42520  Biso   1.000  H
  H51      1.0000 0.94560  0.29210  0.07480  Biso   1.000  H
  H52      1.0000 0.05440  0.29210  0.42520  Biso   1.000  H
  H53      1.0000 0.55440  0.20790  0.92520  Biso   1.000  H
  H54      1.0000 0.44560  0.20790  0.57480  Biso   1.000  H
  H55      1.0000 0.05440  0.70790  0.92520  Biso   1.000  H
  H56      1.0000 0.94560  0.70790  0.57480  Biso   1.000  H
  H57      1.0000 0.41090  0.66640  0.13170  Biso   1.000  H
  H58      1.0000 0.58910  0.66640  0.36830  Biso   1.000  H
  H59      1.0000 0.91090  0.16640  0.13170  Biso   1.000  H
  H60      1.0000 0.08910  0.16640  0.36830  Biso   1.000  H
  H61      1.0000 0.58910  0.33360  0.86830  Biso   1.000  H
  H62      1.0000 0.41090  0.33360  0.63170  Biso   1.000  H
  H63      1.0000 0.08910  0.83360  0.86830  Biso   1.000  H
  H64      1.0000 0.91090  0.83360  0.63170  Biso   1.000  H
  C77      1.0000 0.50000  0.91620  0.25000  Biso   1.000  C
  C78      1.0000 0.00000  0.41620  0.25000  Biso   1.000  C
  C79      1.0000 0.50000  0.08380  0.75000  Biso   1.000  C
  C80      1.0000 0.00000  0.58380  0.75000  Biso   1.000  C
  H65      1.0000 0.50030  0.98100  0.31500  Biso   1.000  H
  H66      1.0000 0.49970  0.98100  0.18500  Biso   1.000  H
  H67      1.0000 0.00030  0.48100  0.31500  Biso   1.000  H
  H68      1.0000 0.99970  0.48100  0.18500  Biso   1.000  H
  H69      1.0000 0.49970  0.01900  0.68500  Biso   1.000  H
  H70      1.0000 0.50030  0.01900  0.81500  Biso   1.000  H
  H71      1.0000 0.99970  0.51900  0.68500  Biso   1.000  H
  H72      1.0000 0.00030  0.51900  0.81500  Biso   1.000  H
  H73      1.0000 0.46750  0.74500  0.60290  Biso   1.000  H
  H74      1.0000 0.53250  0.74500  0.89710  Biso   1.000  H
  H75      1.0000 0.96750  0.24500  0.60290  Biso   1.000  H
  H76      1.0000 0.03250  0.24500  0.89710  Biso   1.000  H
  H77      1.0000 0.53250  0.25500  0.39710  Biso   1.000  H
  H78      1.0000 0.46750  0.25500  0.10290  Biso   1.000  H
  H79      1.0000 0.03250  0.75500  0.39710  Biso   1.000  H
  H80      1.0000 0.96750  0.75500  0.10290  Biso   1.000  H
  H81      1.0000 0.52690  0.76100  0.63300  Biso   1.000  H
  H82      1.0000 0.47310  0.76100  0.86700  Biso   1.000  H
  H83      1.0000 0.02690  0.26100  0.63300  Biso   1.000  H
  H84      1.0000 0.97310  0.26100  0.86700  Biso   1.000  H
  H85      1.0000 0.47310  0.23900  0.36700  Biso   1.000  H
  H86      1.0000 0.52690  0.23900  0.13300  Biso   1.000  H
  H87      1.0000 0.97310  0.73900  0.36700  Biso   1.000  H
  H88      1.0000 0.02690  0.73900  0.13300  Biso   1.000  H
  O57      1.0000 0.59277  0.84127  0.73271  Biso   1.000  O
  O58      1.0000 0.40723  0.84127  0.76729  Biso   1.000  O
  O59      1.0000 0.09277  0.34127  0.73271  Biso   1.000  O
  O60      1.0000 0.90723  0.34127  0.76729  Biso   1.000  O
  O61      1.0000 0.40723  0.15873  0.26729  Biso   1.000  O
  O62      1.0000 0.59277  0.15873  0.23271  Biso   1.000  O
  O63      1.0000 0.90723  0.65873  0.26729  Biso   1.000  O
  O64      1.0000 0.09277  0.65873  0.23271  Biso   1.000  O
  H89      1.0000 0.60990  0.79300  0.78550  Biso   1.000  H
  H90      1.0000 0.39010  0.79300  0.71450  Biso   1.000  H
  H91      1.0000 0.10990  0.29300  0.78550  Biso   1.000  H
  H92      1.0000 0.89010  0.29300  0.71450  Biso   1.000  H
  H93      1.0000 0.39010  0.20700  0.21450  Biso   1.000  H
  H94      1.0000 0.60990  0.20700  0.28550  Biso   1.000  H
  H95      1.0000 0.89010  0.70700  0.21450  Biso   1.000  H
  H96      1.0000 0.10990  0.70700  0.28550  Biso   1.000  H
  H97      1.0000 0.59680  0.93310  0.74100  Biso   1.000  H
  H98      1.0000 0.40320  0.93310  0.75900  Biso   1.000  H
  H99      1.0000 0.09680  0.43310  0.74100  Biso   1.000  H
  H100     1.0000 0.90320  0.43310  0.75900  Biso   1.000  H
  H101     1.0000 0.40320  0.06690  0.25900  Biso   1.000  H
  H102     1.0000 0.59680  0.06690  0.24100  Biso   1.000  H
  H103     1.0000 0.90320  0.56690  0.25900  Biso   1.000  H
  H104     1.0000 0.09680  0.56690  0.24100  Biso   1.000  H
