data_image0
_cell_length_a       23.0253
_cell_length_b       8.9728
_cell_length_c       12.3325
_cell_angle_alpha    90
_cell_angle_beta     98.12
_cell_angle_gamma    90

_symmetry_space_group_name_H-M    "P 1"
_symmetry_int_tables_number       1

loop_
  _symmetry_equiv_pos_as_xyz
  'x, y, z'

loop_
  _atom_site_label
  _atom_site_occupancy
  _atom_site_fract_x
  _atom_site_fract_y
  _atom_site_fract_z
  _atom_site_thermal_displace_type
  _atom_site_B_iso_or_equiv
  _atom_site_type_symbol
  Cu1      1.0000 0.50000  0.50000  0.50000  Biso   1.000  Cu
  Cu2      1.0000 0.50000  0.50000  0.00000  Biso   1.000  Cu
  Cu3      1.0000 0.00000  0.00000  0.50000  Biso   1.000  Cu
  Cu4      1.0000 0.00000  0.00000  0.00000  Biso   1.000  Cu
  O1       1.0000 0.58508  0.51214  0.53194  Biso   1.000  O
  O2       1.0000 0.41492  0.51214  0.96806  Biso   1.000  O
  O3       1.0000 0.08508  0.01214  0.53194  Biso   1.000  O
  O4       1.0000 0.91492  0.01214  0.96806  Biso   1.000  O
  O5       1.0000 0.41492  0.48786  0.46806  Biso   1.000  O
  O6       1.0000 0.58508  0.48786  0.03194  Biso   1.000  O
  O7       1.0000 0.91492  0.98786  0.46806  Biso   1.000  O
  O8       1.0000 0.08508  0.98786  0.03194  Biso   1.000  O
  O9       1.0000 0.61853  0.34894  0.41709  Biso   1.000  O
  O10      1.0000 0.38147  0.34894  0.08291  Biso   1.000  O
  O11      1.0000 0.11853  0.84894  0.41709  Biso   1.000  O
  O12      1.0000 0.88147  0.84894  0.08291  Biso   1.000  O
  O13      1.0000 0.38147  0.65106  0.58291  Biso   1.000  O
  O14      1.0000 0.61853  0.65106  0.91709  Biso   1.000  O
  O15      1.0000 0.88147  0.15106  0.58291  Biso   1.000  O
  O16      1.0000 0.11853  0.15106  0.91709  Biso   1.000  O
  O17      1.0000 0.82856  0.37397  0.37982  Biso   1.000  O
  O18      1.0000 0.17144  0.37397  0.12018  Biso   1.000  O
  O19      1.0000 0.32856  0.87397  0.37982  Biso   1.000  O
  O20      1.0000 0.67144  0.87397  0.12018  Biso   1.000  O
  O21      1.0000 0.17144  0.62603  0.62018  Biso   1.000  O
  O22      1.0000 0.82856  0.62603  0.87982  Biso   1.000  O
  O23      1.0000 0.67144  0.12603  0.62018  Biso   1.000  O
  O24      1.0000 0.32856  0.12603  0.87982  Biso   1.000  O
  O25      1.0000 0.88899  0.47963  0.50742  Biso   1.000  O
  O26      1.0000 0.11101  0.47963  0.99258  Biso   1.000  O
  O27      1.0000 0.38899  0.97963  0.50742  Biso   1.000  O
  O28      1.0000 0.61101  0.97963  0.99258  Biso   1.000  O
  O29      1.0000 0.11101  0.52037  0.49258  Biso   1.000  O
  O30      1.0000 0.88899  0.52037  0.00742  Biso   1.000  O
  O31      1.0000 0.61101  0.02037  0.49258  Biso   1.000  O
  O32      1.0000 0.38899  0.02037  0.00742  Biso   1.000  O
  O33      1.0000 0.80883  0.85972  0.72016  Biso   1.000  O
  O34      1.0000 0.19117  0.85972  0.77984  Biso   1.000  O
  O35      1.0000 0.30883  0.35972  0.72016  Biso   1.000  O
  O36      1.0000 0.69117  0.35972  0.77984  Biso   1.000  O
  O37      1.0000 0.19117  0.14028  0.27984  Biso   1.000  O
  O38      1.0000 0.80883  0.14028  0.22016  Biso   1.000  O
  O39      1.0000 0.69117  0.64028  0.27984  Biso   1.000  O
  O40      1.0000 0.30883  0.64028  0.22016  Biso   1.000  O
  O41      1.0000 0.72399  0.81773  0.77215  Biso   1.000  O
  O42      1.0000 0.27601  0.81773  0.72785  Biso   1.000  O
  O43      1.0000 0.22399  0.31773  0.77215  Biso   1.000  O
  O44      1.0000 0.77601  0.31773  0.72785  Biso   1.000  O
  O45      1.0000 0.27601  0.18227  0.22785  Biso   1.000  O
  O46      1.0000 0.72399  0.18227  0.27215  Biso   1.000  O
  O47      1.0000 0.77601  0.68227  0.22785  Biso   1.000  O
  O48      1.0000 0.22399  0.68227  0.27215  Biso   1.000  O
  O49      1.0000 0.50072  0.72999  0.58515  Biso   1.000  O
  O50      1.0000 0.49928  0.72999  0.91485  Biso   1.000  O
  O51      1.0000 0.00072  0.22999  0.58515  Biso   1.000  O
  O52      1.0000 0.99928  0.22999  0.91485  Biso   1.000  O
  O53      1.0000 0.49928  0.27001  0.41485  Biso   1.000  O
  O54      1.0000 0.50072  0.27001  0.08515  Biso   1.000  O
  O55      1.0000 0.99928  0.77001  0.41485  Biso   1.000  O
  O56      1.0000 0.00072  0.77001  0.08515  Biso   1.000  O
  N1       1.0000 0.83943  0.44777  0.46435  Biso   1.000  N
  N2       1.0000 0.16057  0.44777  0.03565  Biso   1.000  N
  N3       1.0000 0.33943  0.94777  0.46435  Biso   1.000  N
  N4       1.0000 0.66057  0.94777  0.03565  Biso   1.000  N
  N5       1.0000 0.16057  0.55223  0.53565  Biso   1.000  N
  N6       1.0000 0.83943  0.55223  0.96435  Biso   1.000  N
  N7       1.0000 0.66057  0.05223  0.53565  Biso   1.000  N
  N8       1.0000 0.33943  0.05223  0.96435  Biso   1.000  N
  N9       1.0000 0.76267  0.79004  0.71602  Biso   1.000  N
  N10      1.0000 0.23733  0.79004  0.78398  Biso   1.000  N
  N11      1.0000 0.26267  0.29004  0.71602  Biso   1.000  N
  N12      1.0000 0.73733  0.29004  0.78398  Biso   1.000  N
  N13      1.0000 0.23733  0.20996  0.28398  Biso   1.000  N
  N14      1.0000 0.76267  0.20996  0.21602  Biso   1.000  N
  N15      1.0000 0.73733  0.70996  0.28398  Biso   1.000  N
  N16      1.0000 0.26267  0.70996  0.21602  Biso   1.000  N
  N17      1.0000 0.50052  0.62983  0.35017  Biso   1.000  N
  N18      1.0000 0.49948  0.62983  0.14983  Biso   1.000  N
  N19      1.0000 0.00052  0.12983  0.35017  Biso   1.000  N
  N20      1.0000 0.99948  0.12983  0.14983  Biso   1.000  N
  N21      1.0000 0.49948  0.37017  0.64983  Biso   1.000  N
  N22      1.0000 0.50052  0.37017  0.85017  Biso   1.000  N
  N23      1.0000 0.99948  0.87017  0.64983  Biso   1.000  N
  N24      1.0000 0.00052  0.87017  0.85017  Biso   1.000  N
  N25      1.0000 0.44664  0.82427  0.23684  Biso   1.000  N
  N26      1.0000 0.55336  0.82427  0.26316  Biso   1.000  N
  N27      1.0000 0.94664  0.32427  0.23684  Biso   1.000  N
  N28      1.0000 0.05336  0.32427  0.26316  Biso   1.000  N
  N29      1.0000 0.55336  0.17573  0.76316  Biso   1.000  N
  N30      1.0000 0.44664  0.17573  0.73684  Biso   1.000  N
  N31      1.0000 0.05336  0.67573  0.76316  Biso   1.000  N
  N32      1.0000 0.94664  0.67573  0.73684  Biso   1.000  N
  C1       1.0000 0.62539  0.44750  0.48761  Biso   1.000  C
  C2       1.0000 0.37461  0.44750  0.01239  Biso   1.000  C
  C3       1.0000 0.12539  0.94750  0.48761  Biso   1.000  C
  C4       1.0000 0.87461  0.94750  0.01239  Biso   1.000  C
  C5       1.0000 0.37461  0.55250  0.51239  Biso   1.000  C
  C6       1.0000 0.62539  0.55250  0.98761  Biso   1.000  C
  C7       1.0000 0.87461  0.05250  0.51239  Biso   1.000  C
  C8       1.0000 0.12539  0.05250  0.98761  Biso   1.000  C
  C9       1.0000 0.68672  0.50440  0.52674  Biso   1.000  C
  C10      1.0000 0.31328  0.50440  0.97326  Biso   1.000  C
  C11      1.0000 0.18672  0.00440  0.52674  Biso   1.000  C
  C12      1.0000 0.81328  0.00440  0.97326  Biso   1.000  C
  C13      1.0000 0.31328  0.49560  0.47326  Biso   1.000  C
  C14      1.0000 0.68672  0.49560  0.02674  Biso   1.000  C
  C15      1.0000 0.81328  0.99560  0.47326  Biso   1.000  C
  C16      1.0000 0.18672  0.99560  0.02674  Biso   1.000  C
  C17      1.0000 0.73364  0.44790  0.48018  Biso   1.000  C
  C18      1.0000 0.26636  0.44790  0.01982  Biso   1.000  C
  C19      1.0000 0.23364  0.94790  0.48018  Biso   1.000  C
  C20      1.0000 0.76636  0.94790  0.01982  Biso   1.000  C
  C21      1.0000 0.26636  0.55210  0.51982  Biso   1.000  C
  C22      1.0000 0.73364  0.55210  0.98018  Biso   1.000  C
  C23      1.0000 0.76636  0.05210  0.51982  Biso   1.000  C
  C24      1.0000 0.23364  0.05210  0.98018  Biso   1.000  C
  H1       1.0000 0.72760  0.37290  0.42540  Biso   1.000  H
  H2       1.0000 0.27240  0.37290  0.07460  Biso   1.000  H
  H3       1.0000 0.22760  0.87290  0.42540  Biso   1.000  H
  H4       1.0000 0.77240  0.87290  0.07460  Biso   1.000  H
  H5       1.0000 0.27240  0.62710  0.57460  Biso   1.000  H
  H6       1.0000 0.72760  0.62710  0.92540  Biso   1.000  H
  H7       1.0000 0.77240  0.12710  0.57460  Biso   1.000  H
  H8       1.0000 0.22760  0.12710  0.92540  Biso   1.000  H
  C25      1.0000 0.78927  0.50260  0.51487  Biso   1.000  C
  C26      1.0000 0.21073  0.50260  0.98513  Biso   1.000  C
  C27      1.0000 0.28927  0.00260  0.51487  Biso   1.000  C
  C28      1.0000 0.71073  0.00260  0.98513  Biso   1.000  C
  C29      1.0000 0.21073  0.49740  0.48513  Biso   1.000  C
  C30      1.0000 0.78927  0.49740  0.01487  Biso   1.000  C
  C31      1.0000 0.71073  0.99740  0.48513  Biso   1.000  C
  C32      1.0000 0.28927  0.99740  0.01487  Biso   1.000  C
  C33      1.0000 0.80064  0.61220  0.59412  Biso   1.000  C
  C34      1.0000 0.19936  0.61220  0.90588  Biso   1.000  C
  C35      1.0000 0.30064  0.11220  0.59412  Biso   1.000  C
  C36      1.0000 0.69936  0.11220  0.90588  Biso   1.000  C
  C37      1.0000 0.19936  0.38780  0.40588  Biso   1.000  C
  C38      1.0000 0.80064  0.38780  0.09412  Biso   1.000  C
  C39      1.0000 0.69936  0.88780  0.40588  Biso   1.000  C
  C40      1.0000 0.30064  0.88780  0.09412  Biso   1.000  C
  H9       1.0000 0.83920  0.64760  0.61770  Biso   1.000  H
  H10      1.0000 0.16080  0.64760  0.88230  Biso   1.000  H
  H11      1.0000 0.33920  0.14760  0.61770  Biso   1.000  H
  H12      1.0000 0.66080  0.14760  0.88230  Biso   1.000  H
  H13      1.0000 0.16080  0.35240  0.38230  Biso   1.000  H
  H14      1.0000 0.83920  0.35240  0.11770  Biso   1.000  H
  H15      1.0000 0.66080  0.85240  0.38230  Biso   1.000  H
  H16      1.0000 0.33920  0.85240  0.11770  Biso   1.000  H
  C41      1.0000 0.75270  0.66710  0.63690  Biso   1.000  C
  C42      1.0000 0.24730  0.66710  0.86310  Biso   1.000  C
  C43      1.0000 0.25270  0.16710  0.63690  Biso   1.000  C
  C44      1.0000 0.74730  0.16710  0.86310  Biso   1.000  C
  C45      1.0000 0.24730  0.33290  0.36310  Biso   1.000  C
  C46      1.0000 0.75270  0.33290  0.13690  Biso   1.000  C
  C47      1.0000 0.74730  0.83290  0.36310  Biso   1.000  C
  C48      1.0000 0.25270  0.83290  0.13690  Biso   1.000  C
  C49      1.0000 0.69593  0.61600  0.60591  Biso   1.000  C
  C50      1.0000 0.30407  0.61600  0.89409  Biso   1.000  C
  C51      1.0000 0.19593  0.11600  0.60591  Biso   1.000  C
  C52      1.0000 0.80407  0.11600  0.89409  Biso   1.000  C
  C53      1.0000 0.30407  0.38400  0.39409  Biso   1.000  C
  C54      1.0000 0.69593  0.38400  0.10591  Biso   1.000  C
  C55      1.0000 0.80407  0.88400  0.39409  Biso   1.000  C
  C56      1.0000 0.19593  0.88400  0.10591  Biso   1.000  C
  H17      1.0000 0.66410  0.65610  0.63780  Biso   1.000  H
  H18      1.0000 0.33590  0.65610  0.86220  Biso   1.000  H
  H19      1.0000 0.16410  0.15610  0.63780  Biso   1.000  H
  H20      1.0000 0.83590  0.15610  0.86220  Biso   1.000  H
  H21      1.0000 0.33590  0.34390  0.36220  Biso   1.000  H
  H22      1.0000 0.66410  0.34390  0.13780  Biso   1.000  H
  H23      1.0000 0.83590  0.84390  0.36220  Biso   1.000  H
  H24      1.0000 0.16410  0.84390  0.13780  Biso   1.000  H
  C57      1.0000 0.50000  0.53690  0.25000  Biso   1.000  C
  C58      1.0000 0.00000  0.03690  0.25000  Biso   1.000  C
  C59      1.0000 0.50000  0.46310  0.75000  Biso   1.000  C
  C60      1.0000 0.00000  0.96310  0.75000  Biso   1.000  C
  H25      1.0000 0.53510  0.47200  0.25860  Biso   1.000  H
  H26      1.0000 0.46490  0.47200  0.24140  Biso   1.000  H
  H27      1.0000 0.03510  0.97200  0.25860  Biso   1.000  H
  H28      1.0000 0.96490  0.97200  0.24140  Biso   1.000  H
  H29      1.0000 0.46490  0.52800  0.74140  Biso   1.000  H
  H30      1.0000 0.53510  0.52800  0.75860  Biso   1.000  H
  H31      1.0000 0.96490  0.02800  0.74140  Biso   1.000  H
  H32      1.0000 0.03510  0.02800  0.75860  Biso   1.000  H
  C61      1.0000 0.44745  0.72910  0.33365  Biso   1.000  C
  C62      1.0000 0.55255  0.72910  0.16635  Biso   1.000  C
  C63      1.0000 0.94745  0.22910  0.33365  Biso   1.000  C
  C64      1.0000 0.05255  0.22910  0.16635  Biso   1.000  C
  C65      1.0000 0.55255  0.27090  0.66635  Biso   1.000  C
  C66      1.0000 0.44745  0.27090  0.83365  Biso   1.000  C
  C67      1.0000 0.05255  0.77090  0.66635  Biso   1.000  C
  C68      1.0000 0.94745  0.77090  0.83365  Biso   1.000  C
  H33      1.0000 0.41160  0.66680  0.32530  Biso   1.000  H
  H34      1.0000 0.58840  0.66680  0.17470  Biso   1.000  H
  H35      1.0000 0.91160  0.16680  0.32530  Biso   1.000  H
  H36      1.0000 0.08840  0.16680  0.17470  Biso   1.000  H
  H37      1.0000 0.58840  0.33320  0.67470  Biso   1.000  H
  H38      1.0000 0.41160  0.33320  0.82530  Biso   1.000  H
  H39      1.0000 0.08840  0.83320  0.67470  Biso   1.000  H
  H40      1.0000 0.91160  0.83320  0.82530  Biso   1.000  H
  H41      1.0000 0.44720  0.79250  0.39920  Biso   1.000  H
  H42      1.0000 0.55280  0.79250  0.10080  Biso   1.000  H
  H43      1.0000 0.94720  0.29250  0.39920  Biso   1.000  H
  H44      1.0000 0.05280  0.29250  0.10080  Biso   1.000  H
  H45      1.0000 0.55280  0.20750  0.60080  Biso   1.000  H
  H46      1.0000 0.44720  0.20750  0.89920  Biso   1.000  H
  H47      1.0000 0.05280  0.70750  0.60080  Biso   1.000  H
  H48      1.0000 0.94720  0.70750  0.89920  Biso   1.000  H
  C69      1.0000 0.44660  0.72850  0.14074  Biso   1.000  C
  C70      1.0000 0.55340  0.72850  0.35926  Biso   1.000  C
  C71      1.0000 0.94660  0.22850  0.14074  Biso   1.000  C
  C72      1.0000 0.05340  0.22850  0.35926  Biso   1.000  C
  C73      1.0000 0.55340  0.27150  0.85926  Biso   1.000  C
  C74      1.0000 0.44660  0.27150  0.64074  Biso   1.000  C
  C75      1.0000 0.05340  0.77150  0.85926  Biso   1.000  C
  C76      1.0000 0.94660  0.77150  0.64074  Biso   1.000  C
  H49      1.0000 0.44540  0.79150  0.07460  Biso   1.000  H
  H50      1.0000 0.55460  0.79150  0.42540  Biso   1.000  H
  H51      1.0000 0.94540  0.29150  0.07460  Biso   1.000  H
  H52      1.0000 0.05460  0.29150  0.42540  Biso   1.000  H
  H53      1.0000 0.55460  0.20850  0.92540  Biso   1.000  H
  H54      1.0000 0.44540  0.20850  0.57460  Biso   1.000  H
  H55      1.0000 0.05460  0.70850  0.92540  Biso   1.000  H
  H56      1.0000 0.94540  0.70850  0.57460  Biso   1.000  H
  H57      1.0000 0.41080  0.66590  0.13190  Biso   1.000  H
  H58      1.0000 0.58920  0.66590  0.36810  Biso   1.000  H
  H59      1.0000 0.91080  0.16590  0.13190  Biso   1.000  H
  H60      1.0000 0.08920  0.16590  0.36810  Biso   1.000  H
  H61      1.0000 0.58920  0.33410  0.86810  Biso   1.000  H
  H62      1.0000 0.41080  0.33410  0.63190  Biso   1.000  H
  H63      1.0000 0.08920  0.83410  0.86810  Biso   1.000  H
  H64      1.0000 0.91080  0.83410  0.63190  Biso   1.000  H
  C77      1.0000 0.50000  0.91630  0.25000  Biso   1.000  C
  C78      1.0000 0.00000  0.41630  0.25000  Biso   1.000  C
  C79      1.0000 0.50000  0.08370  0.75000  Biso   1.000  C
  C80      1.0000 0.00000  0.58370  0.75000  Biso   1.000  C
  H65      1.0000 0.50030  0.98120  0.31500  Biso   1.000  H
  H66      1.0000 0.49970  0.98120  0.18500  Biso   1.000  H
  H67      1.0000 0.00030  0.48120  0.31500  Biso   1.000  H
  H68      1.0000 0.99970  0.48120  0.18500  Biso   1.000  H
  H69      1.0000 0.49970  0.01880  0.68500  Biso   1.000  H
  H70      1.0000 0.50030  0.01880  0.81500  Biso   1.000  H
  H71      1.0000 0.99970  0.51880  0.68500  Biso   1.000  H
  H72      1.0000 0.00030  0.51880  0.81500  Biso   1.000  H
  H73      1.0000 0.46710  0.74000  0.60200  Biso   1.000  H
  H74      1.0000 0.53290  0.74000  0.89800  Biso   1.000  H
  H75      1.0000 0.96710  0.24000  0.60200  Biso   1.000  H
  H76      1.0000 0.03290  0.24000  0.89800  Biso   1.000  H
  H77      1.0000 0.53290  0.26000  0.39800  Biso   1.000  H
  H78      1.0000 0.46710  0.26000  0.10200  Biso   1.000  H
  H79      1.0000 0.03290  0.76000  0.39800  Biso   1.000  H
  H80      1.0000 0.96710  0.76000  0.10200  Biso   1.000  H
  H81      1.0000 0.52730  0.75900  0.63420  Biso   1.000  H
  H82      1.0000 0.47270  0.75900  0.86580  Biso   1.000  H
  H83      1.0000 0.02730  0.25900  0.63420  Biso   1.000  H
  H84      1.0000 0.97270  0.25900  0.86580  Biso   1.000  H
  H85      1.0000 0.47270  0.24100  0.36580  Biso   1.000  H
  H86      1.0000 0.52730  0.24100  0.13420  Biso   1.000  H
  H87      1.0000 0.97270  0.74100  0.36580  Biso   1.000  H
  H88      1.0000 0.02730  0.74100  0.13420  Biso   1.000  H
  O57      1.0000 0.59278  0.84123  0.73270  Biso   1.000  O
  O58      1.0000 0.40722  0.84123  0.76730  Biso   1.000  O
  O59      1.0000 0.09278  0.34123  0.73270  Biso   1.000  O
  O60      1.0000 0.90722  0.34123  0.76730  Biso   1.000  O
  O61      1.0000 0.40722  0.15877  0.26730  Biso   1.000  O
  O62      1.0000 0.59278  0.15877  0.23270  Biso   1.000  O
  O63      1.0000 0.90722  0.65877  0.26730  Biso   1.000  O
  O64      1.0000 0.09278  0.65877  0.23270  Biso   1.000  O
  H89      1.0000 0.61110  0.79400  0.78480  Biso   1.000  H
  H90      1.0000 0.38890  0.79400  0.71520  Biso   1.000  H
  H91      1.0000 0.11110  0.29400  0.78480  Biso   1.000  H
  H92      1.0000 0.88890  0.29400  0.71520  Biso   1.000  H
  H93      1.0000 0.38890  0.20600  0.21520  Biso   1.000  H
  H94      1.0000 0.61110  0.20600  0.28480  Biso   1.000  H
  H95      1.0000 0.88890  0.70600  0.21520  Biso   1.000  H
  H96      1.0000 0.11110  0.70600  0.28480  Biso   1.000  H
  H97      1.0000 0.59770  0.93250  0.74300  Biso   1.000  H
  H98      1.0000 0.40230  0.93250  0.75700  Biso   1.000  H
  H99      1.0000 0.09770  0.43250  0.74300  Biso   1.000  H
  H100     1.0000 0.90230  0.43250  0.75700  Biso   1.000  H
  H101     1.0000 0.40230  0.06750  0.25700  Biso   1.000  H
  H102     1.0000 0.59770  0.06750  0.24300  Biso   1.000  H
  H103     1.0000 0.90230  0.56750  0.25700  Biso   1.000  H
  H104     1.0000 0.09770  0.56750  0.24300  Biso   1.000  H
