data_image0
_cell_length_a       21.69
_cell_length_b       12.867
_cell_length_c       16.81
_cell_angle_alpha    90
_cell_angle_beta     114.46
_cell_angle_gamma    90

_symmetry_space_group_name_H-M    "P 1"
_symmetry_int_tables_number       1

loop_
  _symmetry_equiv_pos_as_xyz
  'x, y, z'

loop_
  _atom_site_label
  _atom_site_occupancy
  _atom_site_fract_x
  _atom_site_fract_y
  _atom_site_fract_z
  _atom_site_thermal_displace_type
  _atom_site_B_iso_or_equiv
  _atom_site_type_symbol
  Cu1      1.0000 0.00122  0.54646  0.09218  Biso   1.000  Cu
  Cu2      1.0000 0.99878  0.04646  0.40782  Biso   1.000  Cu
  Cu3      1.0000 0.99878  0.45354  0.90782  Biso   1.000  Cu
  Cu4      1.0000 0.00122  0.95354  0.59218  Biso   1.000  Cu
  Cu5      1.0000 0.15085  0.50375  0.22017  Biso   1.000  Cu
  Cu6      1.0000 0.84915  0.00375  0.27983  Biso   1.000  Cu
  Cu7      1.0000 0.84915  0.49625  0.77983  Biso   1.000  Cu
  Cu8      1.0000 0.15085  0.99625  0.72017  Biso   1.000  Cu
  Cu9      1.0000 0.36760  0.50919  0.57142  Biso   1.000  Cu
  Cu10     1.0000 0.63240  0.00919  0.92858  Biso   1.000  Cu
  Cu11     1.0000 0.63240  0.49081  0.42858  Biso   1.000  Cu
  Cu12     1.0000 0.36760  0.99081  0.07142  Biso   1.000  Cu
  Cu13     1.0000 0.51146  0.54933  0.59426  Biso   1.000  Cu
  Cu14     1.0000 0.48854  0.04933  0.90574  Biso   1.000  Cu
  Cu15     1.0000 0.48854  0.45067  0.40574  Biso   1.000  Cu
  Cu16     1.0000 0.51146  0.95067  0.09426  Biso   1.000  Cu
  O1       1.0000 0.05969  0.52124  0.21533  Biso   1.000  O
  O2       1.0000 0.94031  0.02124  0.28467  Biso   1.000  O
  O3       1.0000 0.94031  0.47876  0.78467  Biso   1.000  O
  O4       1.0000 0.05969  0.97876  0.71533  Biso   1.000  O
  N1       1.0000 0.95004  0.43030  0.11128  Biso   1.000  N
  N2       1.0000 0.04996  0.93030  0.38872  Biso   1.000  N
  N3       1.0000 0.04996  0.56970  0.88872  Biso   1.000  N
  N4       1.0000 0.95004  0.06970  0.61128  Biso   1.000  N
  N5       1.0000 0.14847  0.37520  0.28644  Biso   1.000  N
  N6       1.0000 0.85153  0.87520  0.21356  Biso   1.000  N
  N7       1.0000 0.85153  0.62480  0.71356  Biso   1.000  N
  N8       1.0000 0.14847  0.12480  0.78644  Biso   1.000  N
  O5       1.0000 0.45887  0.52654  0.66276  Biso   1.000  O
  O6       1.0000 0.54113  0.02654  0.83724  Biso   1.000  O
  O7       1.0000 0.54113  0.47346  0.33724  Biso   1.000  O
  O8       1.0000 0.45887  0.97346  0.16276  Biso   1.000  O
  N9       1.0000 0.36814  0.38500  0.63985  Biso   1.000  N
  N10      1.0000 0.63186  0.88500  0.86015  Biso   1.000  N
  N11      1.0000 0.63186  0.61500  0.36015  Biso   1.000  N
  N12      1.0000 0.36814  0.11500  0.13985  Biso   1.000  N
  N13      1.0000 0.56707  0.43700  0.66833  Biso   1.000  N
  N14      1.0000 0.43293  0.93700  0.83167  Biso   1.000  N
  N15      1.0000 0.43293  0.56300  0.33167  Biso   1.000  N
  N16      1.0000 0.56707  0.06300  0.16833  Biso   1.000  N
  O9       1.0000 0.04246  0.68023  0.09488  Biso   1.000  O
  O10      1.0000 0.95754  0.18023  0.40512  Biso   1.000  O
  O11      1.0000 0.95754  0.31977  0.90512  Biso   1.000  O
  O12      1.0000 0.04246  0.81977  0.59488  Biso   1.000  O
  O13      1.0000 0.15185  0.64251  0.17401  Biso   1.000  O
  O14      1.0000 0.84815  0.14251  0.32599  Biso   1.000  O
  O15      1.0000 0.84815  0.35749  0.82599  Biso   1.000  O
  O16      1.0000 0.15185  0.85749  0.67401  Biso   1.000  O
  O17      1.0000 0.36095  0.64985  0.53077  Biso   1.000  O
  O18      1.0000 0.63905  0.14985  0.96923  Biso   1.000  O
  O19      1.0000 0.63905  0.35015  0.46923  Biso   1.000  O
  O20      1.0000 0.36095  0.85015  0.03077  Biso   1.000  O
  O21      1.0000 0.46695  0.68039  0.54719  Biso   1.000  O
  O22      1.0000 0.53305  0.18039  0.95281  Biso   1.000  O
  O23      1.0000 0.53305  0.31961  0.45281  Biso   1.000  O
  O24      1.0000 0.46695  0.81961  0.04719  Biso   1.000  O
  N17      1.0000 0.93717  0.56840  0.96841  Biso   1.000  N
  N18      1.0000 0.06283  0.06840  0.53159  Biso   1.000  N
  N19      1.0000 0.06283  0.43160  0.03159  Biso   1.000  N
  N20      1.0000 0.93717  0.93160  0.46841  Biso   1.000  N
  N21      1.0000 0.22943  0.45770  0.20320  Biso   1.000  N
  N22      1.0000 0.77057  0.95770  0.29680  Biso   1.000  N
  N23      1.0000 0.77057  0.54230  0.79680  Biso   1.000  N
  N24      1.0000 0.22943  0.04230  0.70320  Biso   1.000  N
  N25      1.0000 0.21882  0.58400  0.36560  Biso   1.000  N
  N26      1.0000 0.78118  0.08400  0.13440  Biso   1.000  N
  N27      1.0000 0.78118  0.41600  0.63440  Biso   1.000  N
  N28      1.0000 0.21882  0.91600  0.86560  Biso   1.000  N
  N29      1.0000 0.27935  0.47560  0.48370  Biso   1.000  N
  N30      1.0000 0.72065  0.97560  0.01630  Biso   1.000  N
  N31      1.0000 0.72065  0.52440  0.51630  Biso   1.000  N
  N32      1.0000 0.27935  0.02440  0.98370  Biso   1.000  N
  N33      1.0000 0.56697  0.56670  0.52609  Biso   1.000  N
  N34      1.0000 0.43303  0.06670  0.97391  Biso   1.000  N
  N35      1.0000 0.43303  0.43330  0.47391  Biso   1.000  N
  N36      1.0000 0.56697  0.93330  0.02609  Biso   1.000  N
  C1       1.0000 0.20060  0.30980  0.32430  Biso   1.000  C
  C2       1.0000 0.79940  0.80980  0.17570  Biso   1.000  C
  C3       1.0000 0.79940  0.69020  0.67570  Biso   1.000  C
  C4       1.0000 0.20060  0.19020  0.82430  Biso   1.000  C
  C5       1.0000 0.20210  0.23730  0.38550  Biso   1.000  C
  C6       1.0000 0.79790  0.73730  0.11450  Biso   1.000  C
  C7       1.0000 0.79790  0.76270  0.61450  Biso   1.000  C
  C8       1.0000 0.20210  0.26270  0.88550  Biso   1.000  C
  C9       1.0000 0.14940  0.23610  0.41100  Biso   1.000  C
  C10      1.0000 0.85060  0.73610  0.08900  Biso   1.000  C
  C11      1.0000 0.85060  0.76390  0.58900  Biso   1.000  C
  C12      1.0000 0.14940  0.26390  0.91100  Biso   1.000  C
  C13      1.0000 0.09620  0.30360  0.37300  Biso   1.000  C
  C14      1.0000 0.90380  0.80360  0.12700  Biso   1.000  C
  C15      1.0000 0.90380  0.69640  0.62700  Biso   1.000  C
  C16      1.0000 0.09620  0.19640  0.87300  Biso   1.000  C
  C17      1.0000 0.09614  0.37170  0.30830  Biso   1.000  C
  C18      1.0000 0.90386  0.87170  0.19170  Biso   1.000  C
  C19      1.0000 0.90386  0.62830  0.69170  Biso   1.000  C
  C20      1.0000 0.09614  0.12830  0.80830  Biso   1.000  C
  C21      1.0000 0.03815  0.44700  0.25850  Biso   1.000  C
  C22      1.0000 0.96185  0.94700  0.24150  Biso   1.000  C
  C23      1.0000 0.96185  0.55300  0.74150  Biso   1.000  C
  C24      1.0000 0.03815  0.05300  0.75850  Biso   1.000  C
  O25      1.0000 0.02182  0.49092  0.32396  Biso   1.000  O
  O26      1.0000 0.97818  0.99092  0.17604  Biso   1.000  O
  O27      1.0000 0.97818  0.50908  0.67604  Biso   1.000  O
  O28      1.0000 0.02182  0.00908  0.82396  Biso   1.000  O
  C25      1.0000 0.97631  0.38950  0.19180  Biso   1.000  C
  C26      1.0000 0.02369  0.88950  0.30820  Biso   1.000  C
  C27      1.0000 0.02369  0.61050  0.80820  Biso   1.000  C
  C28      1.0000 0.97631  0.11050  0.69180  Biso   1.000  C
  C29      1.0000 0.94660  0.30560  0.21300  Biso   1.000  C
  C30      1.0000 0.05340  0.80560  0.28700  Biso   1.000  C
  C31      1.0000 0.05340  0.69440  0.78700  Biso   1.000  C
  C32      1.0000 0.94660  0.19440  0.71300  Biso   1.000  C
  C33      1.0000 0.88950  0.26210  0.14970  Biso   1.000  C
  C34      1.0000 0.11050  0.76210  0.35030  Biso   1.000  C
  C35      1.0000 0.11050  0.73790  0.85030  Biso   1.000  C
  C36      1.0000 0.88950  0.23790  0.64970  Biso   1.000  C
  C37      1.0000 0.86220  0.30340  0.06720  Biso   1.000  C
  C38      1.0000 0.13780  0.80340  0.43280  Biso   1.000  C
  C39      1.0000 0.13780  0.69660  0.93280  Biso   1.000  C
  C40      1.0000 0.86220  0.19660  0.56720  Biso   1.000  C
  C41      1.0000 0.89321  0.38850  0.04980  Biso   1.000  C
  C42      1.0000 0.10679  0.88850  0.45020  Biso   1.000  C
  C43      1.0000 0.10679  0.61150  0.95020  Biso   1.000  C
  C44      1.0000 0.89321  0.11150  0.54980  Biso   1.000  C
  C45      1.0000 0.96500  0.56080  0.29290  Biso   1.000  C
  C46      1.0000 0.03500  0.06080  0.20710  Biso   1.000  C
  C47      1.0000 0.03500  0.43920  0.70710  Biso   1.000  C
  C48      1.0000 0.96500  0.93920  0.79290  Biso   1.000  C
  C49      1.0000 0.31420  0.32400  0.62420  Biso   1.000  C
  C50      1.0000 0.68580  0.82400  0.87580  Biso   1.000  C
  C51      1.0000 0.68580  0.67600  0.37580  Biso   1.000  C
  C52      1.0000 0.31420  0.17600  0.12420  Biso   1.000  C
  C53      1.0000 0.31220  0.25420  0.68440  Biso   1.000  C
  C54      1.0000 0.68780  0.75420  0.81560  Biso   1.000  C
  C55      1.0000 0.68780  0.74580  0.31560  Biso   1.000  C
  C56      1.0000 0.31220  0.24580  0.18440  Biso   1.000  C
  C57      1.0000 0.36680  0.24760  0.76370  Biso   1.000  C
  C58      1.0000 0.63320  0.74760  0.73630  Biso   1.000  C
  C59      1.0000 0.63320  0.75240  0.23630  Biso   1.000  C
  C60      1.0000 0.36680  0.25240  0.26370  Biso   1.000  C
  C61      1.0000 0.42280  0.30880  0.78040  Biso   1.000  C
  C62      1.0000 0.57720  0.80880  0.71960  Biso   1.000  C
  C63      1.0000 0.57720  0.69120  0.21960  Biso   1.000  C
  C64      1.0000 0.42280  0.19120  0.28040  Biso   1.000  C
  C65      1.0000 0.42248  0.37640  0.71580  Biso   1.000  C
  C66      1.0000 0.57752  0.87640  0.78420  Biso   1.000  C
  C67      1.0000 0.57752  0.62360  0.28420  Biso   1.000  C
  C68      1.0000 0.42248  0.12360  0.21580  Biso   1.000  C
  C69      1.0000 0.48139  0.44870  0.72630  Biso   1.000  C
  C70      1.0000 0.51861  0.94870  0.77370  Biso   1.000  C
  C71      1.0000 0.51861  0.55130  0.27370  Biso   1.000  C
  C72      1.0000 0.48139  0.05130  0.22630  Biso   1.000  C
  O29      1.0000 0.50160  0.48860  0.81175  Biso   1.000  O
  O30      1.0000 0.49840  0.98860  0.68825  Biso   1.000  O
  O31      1.0000 0.49840  0.51140  0.18825  Biso   1.000  O
  O32      1.0000 0.50160  0.01140  0.31175  Biso   1.000  O
  C73      1.0000 0.54176  0.39170  0.72060  Biso   1.000  C
  C74      1.0000 0.45824  0.89170  0.77940  Biso   1.000  C
  C75      1.0000 0.45824  0.60830  0.27940  Biso   1.000  C
  C76      1.0000 0.54176  0.10830  0.22060  Biso   1.000  C
  C77      1.0000 0.57250  0.30610  0.77030  Biso   1.000  C
  C78      1.0000 0.42750  0.80610  0.72970  Biso   1.000  C
  C79      1.0000 0.42750  0.69390  0.22970  Biso   1.000  C
  C80      1.0000 0.57250  0.19390  0.27030  Biso   1.000  C
  C81      1.0000 0.63180  0.26980  0.76810  Biso   1.000  C
  C82      1.0000 0.36820  0.76980  0.73190  Biso   1.000  C
  C83      1.0000 0.36820  0.73020  0.23190  Biso   1.000  C
  C84      1.0000 0.63180  0.23020  0.26810  Biso   1.000  C
  C85      1.0000 0.65900  0.31800  0.71810  Biso   1.000  C
  C86      1.0000 0.34100  0.81800  0.78190  Biso   1.000  C
  C87      1.0000 0.34100  0.68200  0.28190  Biso   1.000  C
  C88      1.0000 0.65900  0.18200  0.21810  Biso   1.000  C
  C89      1.0000 0.62520  0.40110  0.66840  Biso   1.000  C
  C90      1.0000 0.37480  0.90110  0.83160  Biso   1.000  C
  C91      1.0000 0.37480  0.59890  0.33160  Biso   1.000  C
  C92      1.0000 0.62520  0.09890  0.16840  Biso   1.000  C
  C93      1.0000 0.55720  0.55980  0.84030  Biso   1.000  C
  C94      1.0000 0.44280  0.05980  0.65970  Biso   1.000  C
  C95      1.0000 0.44280  0.44020  0.15970  Biso   1.000  C
  C96      1.0000 0.55720  0.94020  0.34030  Biso   1.000  C
  C97      1.0000 0.10435  0.70380  0.13090  Biso   1.000  C
  C98      1.0000 0.89565  0.20380  0.36910  Biso   1.000  C
  C99      1.0000 0.89565  0.29620  0.86910  Biso   1.000  C
  C100     1.0000 0.10435  0.79620  0.63090  Biso   1.000  C
  C101     1.0000 0.12292  0.81320  0.11950  Biso   1.000  C
  C102     1.0000 0.87708  0.31320  0.38050  Biso   1.000  C
  C103     1.0000 0.87708  0.18680  0.88050  Biso   1.000  C
  C104     1.0000 0.12292  0.68680  0.61950  Biso   1.000  C
  C105     1.0000 0.18390  0.85440  0.17610  Biso   1.000  C
  C106     1.0000 0.81610  0.35440  0.32390  Biso   1.000  C
  C107     1.0000 0.81610  0.14560  0.82390  Biso   1.000  C
  C108     1.0000 0.18390  0.64560  0.67610  Biso   1.000  C
  C109     1.0000 0.20120  0.95580  0.16500  Biso   1.000  C
  C110     1.0000 0.79880  0.45580  0.33500  Biso   1.000  C
  C111     1.0000 0.79880  0.04420  0.83500  Biso   1.000  C
  C112     1.0000 0.20120  0.54420  0.66500  Biso   1.000  C
  C113     1.0000 0.15770  0.01400  0.09590  Biso   1.000  C
  C114     1.0000 0.84230  0.51400  0.40410  Biso   1.000  C
  C115     1.0000 0.84230  0.98600  0.90410  Biso   1.000  C
  C116     1.0000 0.15770  0.48600  0.59590  Biso   1.000  C
  C117     1.0000 0.09760  0.97420  0.04130  Biso   1.000  C
  C118     1.0000 0.90240  0.47420  0.45870  Biso   1.000  C
  C119     1.0000 0.90240  0.02580  0.95870  Biso   1.000  C
  C120     1.0000 0.09760  0.52580  0.54130  Biso   1.000  C
  C121     1.0000 0.07880  0.87430  0.05310  Biso   1.000  C
  C122     1.0000 0.92120  0.37430  0.44690  Biso   1.000  C
  C123     1.0000 0.92120  0.12570  0.94690  Biso   1.000  C
  C124     1.0000 0.07880  0.62570  0.55310  Biso   1.000  C
  C125     1.0000 0.40545  0.70600  0.52310  Biso   1.000  C
  C126     1.0000 0.59455  0.20600  0.97690  Biso   1.000  C
  C127     1.0000 0.59455  0.29400  0.47690  Biso   1.000  C
  C128     1.0000 0.40545  0.79400  0.02310  Biso   1.000  C
  C129     1.0000 0.38492  0.81110  0.48280  Biso   1.000  C
  C130     1.0000 0.61508  0.31110  0.01720  Biso   1.000  C
  C131     1.0000 0.61508  0.18890  0.51720  Biso   1.000  C
  C132     1.0000 0.38492  0.68890  0.98280  Biso   1.000  C
  C133     1.0000 0.42890  0.87120  0.46230  Biso   1.000  C
  C134     1.0000 0.57110  0.37120  0.03770  Biso   1.000  C
  C135     1.0000 0.57110  0.12880  0.53770  Biso   1.000  C
  C136     1.0000 0.42890  0.62880  0.96230  Biso   1.000  C
  C137     1.0000 0.40850  0.96690  0.42250  Biso   1.000  C
  C138     1.0000 0.59150  0.46690  0.07750  Biso   1.000  C
  C139     1.0000 0.59150  0.03310  0.57750  Biso   1.000  C
  C140     1.0000 0.40850  0.53310  0.92250  Biso   1.000  C
  C141     1.0000 0.34350  0.00200  0.40310  Biso   1.000  C
  C142     1.0000 0.65650  0.50200  0.09690  Biso   1.000  C
  C143     1.0000 0.65650  0.99800  0.59690  Biso   1.000  C
  C144     1.0000 0.34350  0.49800  0.90310  Biso   1.000  C
  C145     1.0000 0.30050  0.94370  0.42480  Biso   1.000  C
  C146     1.0000 0.69950  0.44370  0.07520  Biso   1.000  C
  C147     1.0000 0.69950  0.05630  0.57520  Biso   1.000  C
  C148     1.0000 0.30050  0.55630  0.92480  Biso   1.000  C
  C149     1.0000 0.32080  0.84730  0.46410  Biso   1.000  C
  C150     1.0000 0.67920  0.34730  0.03590  Biso   1.000  C
  C151     1.0000 0.67920  0.15270  0.53590  Biso   1.000  C
  C152     1.0000 0.32080  0.65270  0.96410  Biso   1.000  C
  N37      1.0000 0.92650  0.65640  0.94043  Biso   1.000  N
  N38      1.0000 0.07350  0.15640  0.55957  Biso   1.000  N
  N39      1.0000 0.07350  0.34360  0.05957  Biso   1.000  N
  N40      1.0000 0.92650  0.84360  0.44043  Biso   1.000  N
  N41      1.0000 0.91490  0.73750  0.91120  Biso   1.000  N
  N42      1.0000 0.08510  0.23750  0.58880  Biso   1.000  N
  N43      1.0000 0.08510  0.26250  0.08880  Biso   1.000  N
  N44      1.0000 0.91490  0.76250  0.41120  Biso   1.000  N
  N45      1.0000 0.24181  0.48940  0.14670  Biso   1.000  N
  N46      1.0000 0.75819  0.98940  0.35330  Biso   1.000  N
  N47      1.0000 0.75819  0.51060  0.85330  Biso   1.000  N
  N48      1.0000 0.24181  0.01060  0.64670  Biso   1.000  N
  N49      1.0000 0.25650  0.51630  0.09190  Biso   1.000  N
  N50      1.0000 0.74350  0.01630  0.40810  Biso   1.000  N
  N51      1.0000 0.74350  0.48370  0.90810  Biso   1.000  N
  N52      1.0000 0.25650  0.98370  0.59190  Biso   1.000  N
  N53      1.0000 0.24921  0.53300  0.42440  Biso   1.000  N
  N54      1.0000 0.75079  0.03300  0.07560  Biso   1.000  N
  N55      1.0000 0.75079  0.46700  0.57560  Biso   1.000  N
  N56      1.0000 0.24921  0.96700  0.92440  Biso   1.000  N
  N57      1.0000 0.57967  0.65570  0.51390  Biso   1.000  N
  N58      1.0000 0.42033  0.15570  0.98610  Biso   1.000  N
  N59      1.0000 0.42033  0.34430  0.48610  Biso   1.000  N
  N60      1.0000 0.57967  0.84430  0.01390  Biso   1.000  N
  N61      1.0000 0.59450  0.73770  0.50280  Biso   1.000  N
  N62      1.0000 0.40550  0.23770  0.99720  Biso   1.000  N
  N63      1.0000 0.40550  0.26230  0.49720  Biso   1.000  N
  N64      1.0000 0.59450  0.76230  0.00280  Biso   1.000  N
  H1       1.0000 0.23290  0.31400  0.30700  Biso   1.000  H
  H2       1.0000 0.76710  0.81400  0.19300  Biso   1.000  H
  H3       1.0000 0.76710  0.68600  0.69300  Biso   1.000  H
  H4       1.0000 0.23290  0.18600  0.80700  Biso   1.000  H
  H5       1.0000 0.24300  0.19600  0.41600  Biso   1.000  H
  H6       1.0000 0.75700  0.69600  0.08400  Biso   1.000  H
  H7       1.0000 0.75700  0.80400  0.58400  Biso   1.000  H
  H8       1.0000 0.24300  0.30400  0.91600  Biso   1.000  H
  H9       1.0000 0.15000  0.18800  0.45800  Biso   1.000  H
  H10      1.0000 0.85000  0.68800  0.04200  Biso   1.000  H
  H11      1.0000 0.85000  0.81200  0.54200  Biso   1.000  H
  H12      1.0000 0.15000  0.31200  0.95800  Biso   1.000  H
  H13      1.0000 0.06100  0.30900  0.39100  Biso   1.000  H
  H14      1.0000 0.93900  0.80900  0.10900  Biso   1.000  H
  H15      1.0000 0.93900  0.69100  0.60900  Biso   1.000  H
  H16      1.0000 0.06100  0.19100  0.89100  Biso   1.000  H
  H17      1.0000 0.96250  0.28400  0.27000  Biso   1.000  H
  H18      1.0000 0.03750  0.78400  0.23000  Biso   1.000  H
  H19      1.0000 0.03750  0.71600  0.73000  Biso   1.000  H
  H20      1.0000 0.96250  0.21600  0.77000  Biso   1.000  H
  H21      1.0000 0.87100  0.19800  0.16700  Biso   1.000  H
  H22      1.0000 0.12900  0.69800  0.33300  Biso   1.000  H
  H23      1.0000 0.12900  0.80200  0.83300  Biso   1.000  H
  H24      1.0000 0.87100  0.30200  0.66700  Biso   1.000  H
  H25      1.0000 0.82200  0.27700  0.02000  Biso   1.000  H
  H26      1.0000 0.17800  0.77700  0.48000  Biso   1.000  H
  H27      1.0000 0.17800  0.72300  0.98000  Biso   1.000  H
  H28      1.0000 0.82200  0.22300  0.52000  Biso   1.000  H
  H29      1.0000 0.87400  0.42500  0.99600  Biso   1.000  H
  H30      1.0000 0.12600  0.92500  0.50400  Biso   1.000  H
  H31      1.0000 0.12600  0.57500  0.00400  Biso   1.000  H
  H32      1.0000 0.87400  0.07500  0.49600  Biso   1.000  H
  H33      1.0000 0.91900  0.52600  0.26400  Biso   1.000  H
  H34      1.0000 0.08100  0.02600  0.23600  Biso   1.000  H
  H35      1.0000 0.08100  0.47400  0.73600  Biso   1.000  H
  H36      1.0000 0.91900  0.97400  0.76400  Biso   1.000  H
  H37      1.0000 0.96900  0.61000  0.25600  Biso   1.000  H
  H38      1.0000 0.03100  0.11000  0.24400  Biso   1.000  H
  H39      1.0000 0.03100  0.39000  0.74400  Biso   1.000  H
  H40      1.0000 0.96900  0.89000  0.75600  Biso   1.000  H
  H41      1.0000 0.96100  0.59800  0.33800  Biso   1.000  H
  H42      1.0000 0.03900  0.09800  0.16200  Biso   1.000  H
  H43      1.0000 0.03900  0.40200  0.66200  Biso   1.000  H
  H44      1.0000 0.96100  0.90200  0.83800  Biso   1.000  H
  H45      1.0000 0.27800  0.33400  0.57100  Biso   1.000  H
  H46      1.0000 0.72200  0.83400  0.92900  Biso   1.000  H
  H47      1.0000 0.72200  0.66600  0.42900  Biso   1.000  H
  H48      1.0000 0.27800  0.16600  0.07100  Biso   1.000  H
  H49      1.0000 0.27100  0.21300  0.66900  Biso   1.000  H
  H50      1.0000 0.72900  0.71300  0.83100  Biso   1.000  H
  H51      1.0000 0.72900  0.78700  0.33100  Biso   1.000  H
  H52      1.0000 0.27100  0.28700  0.16900  Biso   1.000  H
  H53      1.0000 0.36900  0.20700  0.80700  Biso   1.000  H
  H54      1.0000 0.63100  0.70700  0.69300  Biso   1.000  H
  H55      1.0000 0.63100  0.79300  0.19300  Biso   1.000  H
  H56      1.0000 0.36900  0.29300  0.30700  Biso   1.000  H
  H57      1.0000 0.45700  0.31000  0.82800  Biso   1.000  H
  H58      1.0000 0.54300  0.81000  0.67200  Biso   1.000  H
  H59      1.0000 0.54300  0.69000  0.17200  Biso   1.000  H
  H60      1.0000 0.45700  0.19000  0.32800  Biso   1.000  H
  H61      1.0000 0.55500  0.27400  0.81000  Biso   1.000  H
  H62      1.0000 0.44500  0.77400  0.69000  Biso   1.000  H
  H63      1.0000 0.44500  0.72600  0.19000  Biso   1.000  H
  H64      1.0000 0.55500  0.22600  0.31000  Biso   1.000  H
  H65      1.0000 0.65700  0.21200  0.81100  Biso   1.000  H
  H66      1.0000 0.34300  0.71200  0.68900  Biso   1.000  H
  H67      1.0000 0.34300  0.78800  0.18900  Biso   1.000  H
  H68      1.0000 0.65700  0.28800  0.31100  Biso   1.000  H
  H69      1.0000 0.70500  0.29400  0.71900  Biso   1.000  H
  H70      1.0000 0.29500  0.79400  0.78100  Biso   1.000  H
  H71      1.0000 0.29500  0.70600  0.28100  Biso   1.000  H
  H72      1.0000 0.70500  0.20600  0.21900  Biso   1.000  H
  H73      1.0000 0.64100  0.43900  0.62900  Biso   1.000  H
  H74      1.0000 0.35900  0.93900  0.87100  Biso   1.000  H
  H75      1.0000 0.35900  0.56100  0.37100  Biso   1.000  H
  H76      1.0000 0.64100  0.06100  0.12900  Biso   1.000  H
  H77      1.0000 0.55200  0.62500  0.80100  Biso   1.000  H
  H78      1.0000 0.44800  0.12500  0.69900  Biso   1.000  H
  H79      1.0000 0.44800  0.37500  0.19900  Biso   1.000  H
  H80      1.0000 0.55200  0.87500  0.30100  Biso   1.000  H
  H81      1.0000 0.60700  0.53100  0.84600  Biso   1.000  H
  H82      1.0000 0.39300  0.03100  0.65400  Biso   1.000  H
  H83      1.0000 0.39300  0.46900  0.15400  Biso   1.000  H
  H84      1.0000 0.60700  0.96900  0.34600  Biso   1.000  H
  H85      1.0000 0.56400  0.57700  0.89100  Biso   1.000  H
  H86      1.0000 0.43600  0.07700  0.60900  Biso   1.000  H
  H87      1.0000 0.43600  0.42300  0.10900  Biso   1.000  H
  H88      1.0000 0.56400  0.92300  0.39100  Biso   1.000  H
  H89      1.0000 0.21300  0.81700  0.22800  Biso   1.000  H
  H90      1.0000 0.78700  0.31700  0.27200  Biso   1.000  H
  H91      1.0000 0.78700  0.18300  0.77200  Biso   1.000  H
  H92      1.0000 0.21300  0.68300  0.72800  Biso   1.000  H
  H93      1.0000 0.24500  0.98300  0.20300  Biso   1.000  H
  H94      1.0000 0.75500  0.48300  0.29700  Biso   1.000  H
  H95      1.0000 0.75500  0.01700  0.79700  Biso   1.000  H
  H96      1.0000 0.24500  0.51700  0.70300  Biso   1.000  H
  H97      1.0000 0.16800  0.09100  0.08800  Biso   1.000  H
  H98      1.0000 0.83200  0.59100  0.41200  Biso   1.000  H
  H99      1.0000 0.83200  0.90900  0.91200  Biso   1.000  H
  H100     1.0000 0.16800  0.40900  0.58800  Biso   1.000  H
  H101     1.0000 0.07200  0.01200  0.00600  Biso   1.000  H
  H102     1.0000 0.92800  0.51200  0.49400  Biso   1.000  H
  H103     1.0000 0.92800  0.98800  0.99400  Biso   1.000  H
  H104     1.0000 0.07200  0.48800  0.50600  Biso   1.000  H
  H105     1.0000 0.03800  0.84900  0.02000  Biso   1.000  H
  H106     1.0000 0.96200  0.34900  0.48000  Biso   1.000  H
  H107     1.0000 0.96200  0.15100  0.98000  Biso   1.000  H
  H108     1.0000 0.03800  0.65100  0.52000  Biso   1.000  H
  H109     1.0000 0.47400  0.84400  0.47500  Biso   1.000  H
  H110     1.0000 0.52600  0.34400  0.02500  Biso   1.000  H
  H111     1.0000 0.52600  0.15600  0.52500  Biso   1.000  H
  H112     1.0000 0.47400  0.65600  0.97500  Biso   1.000  H
  H113     1.0000 0.44000  0.00200  0.40700  Biso   1.000  H
  H114     1.0000 0.56000  0.50200  0.09300  Biso   1.000  H
  H115     1.0000 0.56000  0.99800  0.59300  Biso   1.000  H
  H116     1.0000 0.44000  0.49800  0.90700  Biso   1.000  H
  H117     1.0000 0.33100  0.07300  0.37600  Biso   1.000  H
  H118     1.0000 0.66900  0.57300  0.12400  Biso   1.000  H
  H119     1.0000 0.66900  0.92700  0.62400  Biso   1.000  H
  H120     1.0000 0.33100  0.42700  0.87600  Biso   1.000  H
  H121     1.0000 0.25900  0.97100  0.41600  Biso   1.000  H
  H122     1.0000 0.74100  0.47100  0.08400  Biso   1.000  H
  H123     1.0000 0.74100  0.02900  0.58400  Biso   1.000  H
  H124     1.0000 0.25900  0.52900  0.91600  Biso   1.000  H
  H125     1.0000 0.29000  0.80400  0.47600  Biso   1.000  H
  H126     1.0000 0.71000  0.30400  0.02400  Biso   1.000  H
  H127     1.0000 0.71000  0.19600  0.52400  Biso   1.000  H
  H128     1.0000 0.29000  0.69600  0.97600  Biso   1.000  H
