data_image0
_cell_length_a       7.865
_cell_length_b       19.327
_cell_length_c       7.9283
_cell_angle_alpha    90
_cell_angle_beta     99.74
_cell_angle_gamma    90

_symmetry_space_group_name_H-M    "P 1"
_symmetry_int_tables_number       1

loop_
  _symmetry_equiv_pos_as_xyz
  'x, y, z'

loop_
  _atom_site_label
  _atom_site_occupancy
  _atom_site_fract_x
  _atom_site_fract_y
  _atom_site_fract_z
  _atom_site_thermal_displace_type
  _atom_site_B_iso_or_equiv
  _atom_site_type_symbol
  Cu1      1.0000 0.36287  0.15148  0.33841  Biso   1.000  Cu
  Cu2      1.0000 0.13713  0.65148  0.16159  Biso   1.000  Cu
  Cu3      1.0000 0.63713  0.84852  0.66159  Biso   1.000  Cu
  Cu4      1.0000 0.86287  0.34852  0.83841  Biso   1.000  Cu
  S1       1.0000 0.60009  0.28317  0.43618  Biso   1.000  S
  S2       1.0000 0.89991  0.78317  0.06382  Biso   1.000  S
  S3       1.0000 0.39991  0.71683  0.56382  Biso   1.000  S
  S4       1.0000 0.10009  0.21683  0.93618  Biso   1.000  S
  O1       1.0000 0.55550  0.21834  0.33780  Biso   1.000  O
  O2       1.0000 0.94450  0.71834  0.16220  Biso   1.000  O
  O3       1.0000 0.44450  0.78166  0.66220  Biso   1.000  O
  O4       1.0000 0.05550  0.28166  0.83780  Biso   1.000  O
  O5       1.0000 0.69390  0.26832  0.60630  Biso   1.000  O
  O6       1.0000 0.80610  0.76832  0.89370  Biso   1.000  O
  O7       1.0000 0.30610  0.73168  0.39370  Biso   1.000  O
  O8       1.0000 0.19390  0.23168  0.10630  Biso   1.000  O
  O9       1.0000 0.68270  0.33199  0.33840  Biso   1.000  O
  O10      1.0000 0.81730  0.83199  0.16160  Biso   1.000  O
  O11      1.0000 0.31730  0.66801  0.66160  Biso   1.000  O
  O12      1.0000 0.18270  0.16801  0.83840  Biso   1.000  O
  C1       1.0000 0.10770  0.03390  0.24800  Biso   1.000  C
  C2       1.0000 0.39230  0.53390  0.25200  Biso   1.000  C
  C3       1.0000 0.89230  0.96610  0.75200  Biso   1.000  C
  C4       1.0000 0.60770  0.46610  0.74800  Biso   1.000  C
  H1       1.0000 0.18930  0.01240  0.19360  Biso   1.000  H
  H2       1.0000 0.31070  0.51240  0.30640  Biso   1.000  H
  H3       1.0000 0.81070  0.98760  0.80640  Biso   1.000  H
  H4       1.0000 0.68930  0.48760  0.69360  Biso   1.000  H
  N1       1.0000 0.14530  0.09496  0.32290  Biso   1.000  N
  N2       1.0000 0.35470  0.59496  0.17710  Biso   1.000  N
  N3       1.0000 0.85470  0.90504  0.67710  Biso   1.000  N
  N4       1.0000 0.64530  0.40504  0.82290  Biso   1.000  N
  N5       1.0000 0.23250  0.21250  0.47360  Biso   1.000  N
  N6       1.0000 0.26750  0.71250  0.02640  Biso   1.000  N
  N7       1.0000 0.76750  0.78750  0.52640  Biso   1.000  N
  N8       1.0000 0.73250  0.28750  0.97360  Biso   1.000  N
  N9       1.0000 0.48930  0.09987  0.59450  Biso   1.000  N
  N10      1.0000 0.01070  0.59987  0.90550  Biso   1.000  N
  N11      1.0000 0.51070  0.90013  0.40550  Biso   1.000  N
  N12      1.0000 0.98930  0.40013  0.09450  Biso   1.000  N
  N13      1.0000 0.56720  0.07257  0.90130  Biso   1.000  N
  N14      1.0000 0.93280  0.57257  0.59870  Biso   1.000  N
  N15      1.0000 0.43280  0.92743  0.09870  Biso   1.000  N
  N16      1.0000 0.06720  0.42743  0.40130  Biso   1.000  N
  N17      1.0000 0.44840  0.09971  0.15810  Biso   1.000  N
  N18      1.0000 0.05160  0.59971  0.34190  Biso   1.000  N
  N19      1.0000 0.55160  0.90029  0.84190  Biso   1.000  N
  N20      1.0000 0.94840  0.40029  0.65810  Biso   1.000  N
  C5       1.0000 0.95070  0.00140  0.24850  Biso   1.000  C
  C6       1.0000 0.54930  0.50140  0.25150  Biso   1.000  C
  C7       1.0000 0.04930  0.99860  0.75150  Biso   1.000  C
  C8       1.0000 0.45070  0.49860  0.74850  Biso   1.000  C
  H5       1.0000 0.92850  0.95850  0.19610  Biso   1.000  H
  H6       1.0000 0.57150  0.45850  0.30390  Biso   1.000  H
  H7       1.0000 0.07150  0.04150  0.80390  Biso   1.000  H
  H8       1.0000 0.42850  0.54150  0.69610  Biso   1.000  H
  C9       1.0000 0.82770  0.03300  0.32700  Biso   1.000  C
  C10      1.0000 0.67230  0.53300  0.17300  Biso   1.000  C
  C11      1.0000 0.17230  0.96700  0.67300  Biso   1.000  C
  C12      1.0000 0.32770  0.46700  0.82700  Biso   1.000  C
  H9       1.0000 0.72160  0.01200  0.32840  Biso   1.000  H
  H10      1.0000 0.77840  0.51200  0.17160  Biso   1.000  H
  H11      1.0000 0.27840  0.98800  0.67160  Biso   1.000  H
  H12      1.0000 0.22160  0.48800  0.82840  Biso   1.000  H
  C13      1.0000 0.86560  0.09720  0.40410  Biso   1.000  C
  C14      1.0000 0.63440  0.59720  0.09590  Biso   1.000  C
  C15      1.0000 0.13440  0.90280  0.59590  Biso   1.000  C
  C16      1.0000 0.36560  0.40280  0.90410  Biso   1.000  C
  H13      1.0000 0.78510  0.11990  0.45760  Biso   1.000  H
  H14      1.0000 0.71490  0.61990  0.04240  Biso   1.000  H
  H15      1.0000 0.21490  0.88010  0.54240  Biso   1.000  H
  H16      1.0000 0.28510  0.38010  0.95760  Biso   1.000  H
  C17      1.0000 0.02460  0.12630  0.39990  Biso   1.000  C
  C18      1.0000 0.47540  0.62630  0.10010  Biso   1.000  C
  C19      1.0000 0.97540  0.87370  0.60010  Biso   1.000  C
  C20      1.0000 0.52460  0.37370  0.89990  Biso   1.000  C
  C21      1.0000 0.08110  0.19234  0.48120  Biso   1.000  C
  C22      1.0000 0.41890  0.69234  0.01880  Biso   1.000  C
  C23      1.0000 0.91890  0.80766  0.51880  Biso   1.000  C
  C24      1.0000 0.58110  0.30766  0.98120  Biso   1.000  C
  H17      1.0000 0.00810  0.21860  0.53650  Biso   1.000  H
  H18      1.0000 0.49190  0.71860  0.96350  Biso   1.000  H
  H19      1.0000 0.99190  0.78140  0.46350  Biso   1.000  H
  H20      1.0000 0.50810  0.28140  0.03650  Biso   1.000  H
  C25      1.0000 0.29920  0.27490  0.56480  Biso   1.000  C
  C26      1.0000 0.20080  0.77490  0.93520  Biso   1.000  C
  C27      1.0000 0.70080  0.72510  0.43520  Biso   1.000  C
  C28      1.0000 0.79920  0.22510  0.06480  Biso   1.000  C
  H21      1.0000 0.37430  0.26180  0.67000  Biso   1.000  H
  H22      1.0000 0.12570  0.76180  0.83000  Biso   1.000  H
  H23      1.0000 0.62570  0.73820  0.33000  Biso   1.000  H
  H24      1.0000 0.87430  0.23820  0.17000  Biso   1.000  H
  H25      1.0000 0.20370  0.30110  0.59520  Biso   1.000  H
  H26      1.0000 0.29630  0.80110  0.90480  Biso   1.000  H
  H27      1.0000 0.79630  0.69890  0.40480  Biso   1.000  H
  H28      1.0000 0.70370  0.19890  0.09520  Biso   1.000  H
  C29      1.0000 0.39840  0.32010  0.45940  Biso   1.000  C
  C30      1.0000 0.10160  0.82010  0.04060  Biso   1.000  C
  C31      1.0000 0.60160  0.67990  0.54060  Biso   1.000  C
  C32      1.0000 0.89840  0.17990  0.95940  Biso   1.000  C
  H29      1.0000 0.41800  0.36500  0.51400  Biso   1.000  H
  H30      1.0000 0.08200  0.86500  0.98600  Biso   1.000  H
  H31      1.0000 0.58200  0.63500  0.48600  Biso   1.000  H
  H32      1.0000 0.91800  0.13500  0.01400  Biso   1.000  H
  H33      1.0000 0.32980  0.32700  0.34700  Biso   1.000  H
  H34      1.0000 0.17020  0.82700  0.15300  Biso   1.000  H
  H35      1.0000 0.67020  0.67300  0.65300  Biso   1.000  H
  H36      1.0000 0.82980  0.17300  0.84700  Biso   1.000  H
  C33      1.0000 0.51620  0.09020  0.74090  Biso   1.000  C
  C34      1.0000 0.98380  0.59020  0.75910  Biso   1.000  C
  C35      1.0000 0.48380  0.90980  0.25910  Biso   1.000  C
  C36      1.0000 0.01620  0.40980  0.24090  Biso   1.000  C
  C37      1.0000 0.49400  0.08980  0.03000  Biso   1.000  C
  C38      1.0000 0.00600  0.58980  0.47000  Biso   1.000  C
  C39      1.0000 0.50600  0.91020  0.97000  Biso   1.000  C
  C40      1.0000 0.99400  0.41020  0.53000  Biso   1.000  C
