data_image0
_cell_length_a       9.858
_cell_length_b       6.582
_cell_length_c       10.464
_cell_angle_alpha    90
_cell_angle_beta     112.43
_cell_angle_gamma    90

_symmetry_space_group_name_H-M    "P 1"
_symmetry_int_tables_number       1

loop_
  _symmetry_equiv_pos_as_xyz
  'x, y, z'

loop_
  _atom_site_label
  _atom_site_occupancy
  _atom_site_fract_x
  _atom_site_fract_y
  _atom_site_fract_z
  _atom_site_thermal_displace_type
  _atom_site_B_iso_or_equiv
  _atom_site_type_symbol
  Cu1      1.0000 0.00000  0.00000  0.50000  Biso   1.000  Cu
  Cu2      1.0000 0.00000  0.50000  0.50000  Biso   1.000  Cu
  Cl1      1.0000 0.79402  0.25000  0.99371  Biso   1.000  Cl
  Cl2      1.0000 0.20598  0.75000  0.00629  Biso   1.000  Cl
  N1       1.0000 0.99240  0.25000  0.71720  Biso   1.000  N
  N2       1.0000 0.00760  0.75000  0.28280  Biso   1.000  N
  O1       1.0000 0.83910  0.07840  0.32780  Biso   1.000  O
  O2       1.0000 0.16090  0.57840  0.67220  Biso   1.000  O
  O3       1.0000 0.16090  0.92160  0.67220  Biso   1.000  O
  O4       1.0000 0.83910  0.42160  0.32780  Biso   1.000  O
  N3       1.0000 0.96400  0.25000  0.59200  Biso   1.000  N
  N4       1.0000 0.03600  0.75000  0.40800  Biso   1.000  N
  N5       1.0000 0.51080  0.25000  0.91620  Biso   1.000  N
  N6       1.0000 0.48920  0.75000  0.08380  Biso   1.000  N
  C1       1.0000 0.64410  0.25000  0.16210  Biso   1.000  C
  C2       1.0000 0.35590  0.75000  0.83790  Biso   1.000  C
  C3       1.0000 0.38540  0.25000  0.93740  Biso   1.000  C
  C4       1.0000 0.61460  0.75000  0.06260  Biso   1.000  C
  H1       1.0000 0.29710  0.25000  0.86110  Biso   1.000  H
  H2       1.0000 0.70290  0.75000  0.13890  Biso   1.000  H
  N7       1.0000 0.01550  0.25000  0.83230  Biso   1.000  N
  N8       1.0000 0.98450  0.75000  0.16770  Biso   1.000  N
  C5       1.0000 0.63420  0.25000  0.02590  Biso   1.000  C
  C6       1.0000 0.36580  0.75000  0.97410  Biso   1.000  C
  C7       1.0000 0.78770  0.25000  0.28410  Biso   1.000  C
  C8       1.0000 0.21230  0.75000  0.71590  Biso   1.000  C
  C9       1.0000 0.38130  0.25000  0.06690  Biso   1.000  C
  C10      1.0000 0.61870  0.75000  0.93310  Biso   1.000  C
  H3       1.0000 0.29210  0.25000  0.07810  Biso   1.000  H
  H4       1.0000 0.70790  0.75000  0.92190  Biso   1.000  H
  C11      1.0000 0.51160  0.25000  0.17980  Biso   1.000  C
  C12      1.0000 0.48840  0.75000  0.82020  Biso   1.000  C
  H5       1.0000 0.51090  0.25000  0.26850  Biso   1.000  H
  H6       1.0000 0.48910  0.75000  0.73150  Biso   1.000  H
  O5       1.0000 0.16660  0.25000  0.44480  Biso   1.000  O
  O6       1.0000 0.83340  0.75000  0.55520  Biso   1.000  O
  C13      1.0000 0.17470  0.25000  0.31240  Biso   1.000  C
  C14      1.0000 0.82530  0.75000  0.68760  Biso   1.000  C
  O7       1.0000 0.45420  0.25000  0.62820  Biso   1.000  O
  O8       1.0000 0.54580  0.75000  0.37180  Biso   1.000  O
  C15      1.0000 0.57860  0.25000  0.60460  Biso   1.000  C
  C16      1.0000 0.42140  0.75000  0.39540  Biso   1.000  C
  H7       1.0000 0.08400  0.25000  0.24300  Biso   1.000  H
  H8       1.0000 0.91600  0.75000  0.75700  Biso   1.000  H
  H9       1.0000 0.24800  0.25000  0.50600  Biso   1.000  H
  H10      1.0000 0.75200  0.75000  0.49400  Biso   1.000  H
  H11      1.0000 0.46800  0.25000  0.70700  Biso   1.000  H
  H12      1.0000 0.53200  0.75000  0.29300  Biso   1.000  H
  H13      1.0000 0.22800  0.14200  0.30300  Biso   1.000  H
  H14      1.0000 0.77200  0.64200  0.69700  Biso   1.000  H
  H15      1.0000 0.77200  0.85800  0.69700  Biso   1.000  H
  H16      1.0000 0.22800  0.35800  0.30300  Biso   1.000  H
  H17      1.0000 0.55900  0.25000  0.53700  Biso   1.000  H
  H18      1.0000 0.44100  0.75000  0.46300  Biso   1.000  H
  H19      1.0000 0.63100  0.16000  0.63800  Biso   1.000  H
  H20      1.0000 0.36900  0.66000  0.36200  Biso   1.000  H
  H21      1.0000 0.36900  0.84000  0.36200  Biso   1.000  H
  H22      1.0000 0.63100  0.34000  0.63800  Biso   1.000  H
