data_image0
_cell_length_a       9.7306
_cell_length_b       17.0857
_cell_length_c       17.6917
_cell_angle_alpha    90
_cell_angle_beta     91.889
_cell_angle_gamma    90

_symmetry_space_group_name_H-M    "P 1"
_symmetry_int_tables_number       1

loop_
  _symmetry_equiv_pos_as_xyz
  'x, y, z'

loop_
  _atom_site_label
  _atom_site_occupancy
  _atom_site_fract_x
  _atom_site_fract_y
  _atom_site_fract_z
  _atom_site_thermal_displace_type
  _atom_site_B_iso_or_equiv
  _atom_site_type_symbol
  Cu1      1.0000 0.71596  0.27673  0.06750  Biso   1.000  Cu
  Cu2      1.0000 0.78404  0.77673  0.43250  Biso   1.000  Cu
  Cu3      1.0000 0.28404  0.72327  0.93250  Biso   1.000  Cu
  Cu4      1.0000 0.21596  0.22327  0.56750  Biso   1.000  Cu
  K1       1.0000 0.03184  0.11324  0.24210  Biso   1.000  K
  K2       1.0000 0.46816  0.61324  0.25790  Biso   1.000  K
  K3       1.0000 0.96816  0.88676  0.75790  Biso   1.000  K
  K4       1.0000 0.53184  0.38676  0.74210  Biso   1.000  K
  N1       1.0000 0.74910  0.16670  0.03490  Biso   1.000  N
  N2       1.0000 0.75090  0.66670  0.46510  Biso   1.000  N
  N3       1.0000 0.25090  0.83330  0.96510  Biso   1.000  N
  N4       1.0000 0.24910  0.33330  0.53490  Biso   1.000  N
  C1       1.0000 0.66310  0.10630  0.04080  Biso   1.000  C
  C2       1.0000 0.83690  0.60630  0.45920  Biso   1.000  C
  C3       1.0000 0.33690  0.89370  0.95920  Biso   1.000  C
  C4       1.0000 0.16310  0.39370  0.54080  Biso   1.000  C
  H1       1.0000 0.58090  0.11300  0.06760  Biso   1.000  H
  H2       1.0000 0.91910  0.61300  0.43240  Biso   1.000  H
  H3       1.0000 0.41910  0.88700  0.93240  Biso   1.000  H
  H4       1.0000 0.08090  0.38700  0.56760  Biso   1.000  H
  C5       1.0000 0.69010  0.03420  0.00920  Biso   1.000  C
  C6       1.0000 0.80990  0.53420  0.49080  Biso   1.000  C
  C7       1.0000 0.30990  0.96580  0.99080  Biso   1.000  C
  C8       1.0000 0.19010  0.46580  0.50920  Biso   1.000  C
  H5       1.0000 0.62870  0.99160  0.01530  Biso   1.000  H
  H6       1.0000 0.87130  0.49160  0.48470  Biso   1.000  H
  H7       1.0000 0.37130  0.00840  0.98470  Biso   1.000  H
  H8       1.0000 0.12870  0.50840  0.51530  Biso   1.000  H
  C9       1.0000 0.80770  0.02520  0.96880  Biso   1.000  C
  C10      1.0000 0.69230  0.52520  0.53120  Biso   1.000  C
  C11      1.0000 0.19230  0.97480  0.03120  Biso   1.000  C
  C12      1.0000 0.30770  0.47480  0.46880  Biso   1.000  C
  H9       1.0000 0.82830  0.97610  0.94670  Biso   1.000  H
  H10      1.0000 0.67170  0.47610  0.55330  Biso   1.000  H
  H11      1.0000 0.17170  0.02390  0.05330  Biso   1.000  H
  H12      1.0000 0.32830  0.52390  0.44670  Biso   1.000  H
  C13      1.0000 0.89450  0.08740  0.96070  Biso   1.000  C
  C14      1.0000 0.60550  0.58740  0.53930  Biso   1.000  C
  C15      1.0000 0.10550  0.91260  0.03930  Biso   1.000  C
  C16      1.0000 0.39450  0.41260  0.46070  Biso   1.000  C
  H13      1.0000 0.97500  0.08240  0.93210  Biso   1.000  H
  H14      1.0000 0.52500  0.58240  0.56790  Biso   1.000  H
  H15      1.0000 0.02500  0.91760  0.06790  Biso   1.000  H
  H16      1.0000 0.47500  0.41760  0.43210  Biso   1.000  H
  C17      1.0000 0.86290  0.15790  0.99500  Biso   1.000  C
  C18      1.0000 0.63710  0.65790  0.50500  Biso   1.000  C
  C19      1.0000 0.13710  0.84210  0.00500  Biso   1.000  C
  C20      1.0000 0.36290  0.34210  0.49500  Biso   1.000  C
  C21      1.0000 0.95810  0.22810  0.99200  Biso   1.000  C
  C22      1.0000 0.54190  0.72810  0.50800  Biso   1.000  C
  C23      1.0000 0.04190  0.77190  0.00800  Biso   1.000  C
  C24      1.0000 0.45810  0.27190  0.49200  Biso   1.000  C
  H17      1.0000 0.04060  0.21810  0.02490  Biso   1.000  H
  H18      1.0000 0.45940  0.71810  0.47510  Biso   1.000  H
  H19      1.0000 0.95940  0.78190  0.97510  Biso   1.000  H
  H20      1.0000 0.54060  0.28190  0.52490  Biso   1.000  H
  H21      1.0000 0.98870  0.23480  0.93960  Biso   1.000  H
  H22      1.0000 0.51130  0.73480  0.56040  Biso   1.000  H
  H23      1.0000 0.01130  0.76520  0.06040  Biso   1.000  H
  H24      1.0000 0.48870  0.26520  0.43960  Biso   1.000  H
  N5       1.0000 0.89110  0.30090  0.01670  Biso   1.000  N
  N6       1.0000 0.60890  0.80090  0.48330  Biso   1.000  N
  N7       1.0000 0.10890  0.69910  0.98330  Biso   1.000  N
  N8       1.0000 0.39110  0.19910  0.51670  Biso   1.000  N
  H25      1.0000 0.94950  0.32220  0.05390  Biso   1.000  H
  H26      1.0000 0.55050  0.82220  0.44610  Biso   1.000  H
  H27      1.0000 0.05050  0.67780  0.94610  Biso   1.000  H
  H28      1.0000 0.44950  0.17780  0.55390  Biso   1.000  H
  C25      1.0000 0.87580  0.36220  0.95670  Biso   1.000  C
  C26      1.0000 0.62420  0.86220  0.54330  Biso   1.000  C
  C27      1.0000 0.12420  0.63780  0.04330  Biso   1.000  C
  C28      1.0000 0.37580  0.13780  0.45670  Biso   1.000  C
  H29      1.0000 0.80490  0.34540  0.91860  Biso   1.000  H
  H30      1.0000 0.69510  0.84540  0.58140  Biso   1.000  H
  H31      1.0000 0.19510  0.65460  0.08140  Biso   1.000  H
  H32      1.0000 0.30490  0.15460  0.41860  Biso   1.000  H
  H33      1.0000 0.96390  0.36800  0.93080  Biso   1.000  H
  H34      1.0000 0.53610  0.86800  0.56920  Biso   1.000  H
  H35      1.0000 0.03610  0.63200  0.06920  Biso   1.000  H
  H36      1.0000 0.46390  0.13200  0.43080  Biso   1.000  H
  C29      1.0000 0.83510  0.44010  0.98950  Biso   1.000  C
  C30      1.0000 0.66490  0.94010  0.51050  Biso   1.000  C
  C31      1.0000 0.16490  0.55990  0.01050  Biso   1.000  C
  C32      1.0000 0.33510  0.05990  0.48950  Biso   1.000  C
  H37      1.0000 0.84570  0.48100  0.95040  Biso   1.000  H
  H38      1.0000 0.65430  0.98100  0.54960  Biso   1.000  H
  H39      1.0000 0.15430  0.51900  0.04960  Biso   1.000  H
  H40      1.0000 0.34570  0.01900  0.45040  Biso   1.000  H
  H41      1.0000 0.89950  0.45280  0.03230  Biso   1.000  H
  H42      1.0000 0.60050  0.95280  0.46770  Biso   1.000  H
  H43      1.0000 0.10050  0.54720  0.96770  Biso   1.000  H
  H44      1.0000 0.39950  0.04720  0.53230  Biso   1.000  H
  N9       1.0000 0.59660  0.26570  0.15700  Biso   1.000  N
  N10      1.0000 0.90340  0.76570  0.34300  Biso   1.000  N
  N11      1.0000 0.40340  0.73430  0.84300  Biso   1.000  N
  N12      1.0000 0.09660  0.23430  0.65700  Biso   1.000  N
  C33      1.0000 0.59200  0.20450  0.20550  Biso   1.000  C
  C34      1.0000 0.90800  0.70450  0.29450  Biso   1.000  C
  C35      1.0000 0.40800  0.79550  0.79450  Biso   1.000  C
  C36      1.0000 0.09200  0.29550  0.70550  Biso   1.000  C
  H45      1.0000 0.64970  0.16060  0.19770  Biso   1.000  H
  H46      1.0000 0.85030  0.66060  0.30230  Biso   1.000  H
  H47      1.0000 0.35030  0.83940  0.80230  Biso   1.000  H
  H48      1.0000 0.14970  0.33940  0.69770  Biso   1.000  H
  C37      1.0000 0.50630  0.20400  0.26560  Biso   1.000  C
  C38      1.0000 0.99370  0.70400  0.23440  Biso   1.000  C
  C39      1.0000 0.49370  0.79600  0.73440  Biso   1.000  C
  C40      1.0000 0.00630  0.29600  0.76560  Biso   1.000  C
  H49      1.0000 0.50380  0.16030  0.29860  Biso   1.000  H
  H50      1.0000 0.99620  0.66030  0.20140  Biso   1.000  H
  H51      1.0000 0.49620  0.83970  0.70140  Biso   1.000  H
  H52      1.0000 0.00380  0.33970  0.79860  Biso   1.000  H
  C41      1.0000 0.42340  0.26880  0.27710  Biso   1.000  C
  C42      1.0000 0.07660  0.76880  0.22290  Biso   1.000  C
  C43      1.0000 0.57660  0.73120  0.72290  Biso   1.000  C
  C44      1.0000 0.92340  0.23120  0.77710  Biso   1.000  C
  H53      1.0000 0.36180  0.26950  0.31770  Biso   1.000  H
  H54      1.0000 0.13820  0.76950  0.18230  Biso   1.000  H
  H55      1.0000 0.63820  0.73050  0.68230  Biso   1.000  H
  H56      1.0000 0.86180  0.23050  0.81770  Biso   1.000  H
  C45      1.0000 0.43120  0.33190  0.22930  Biso   1.000  C
  C46      1.0000 0.06880  0.83190  0.27070  Biso   1.000  C
  C47      1.0000 0.56880  0.66810  0.77070  Biso   1.000  C
  C48      1.0000 0.93120  0.16810  0.72930  Biso   1.000  C
  H57      1.0000 0.37680  0.37710  0.23740  Biso   1.000  H
  H58      1.0000 0.12320  0.87710  0.26260  Biso   1.000  H
  H59      1.0000 0.62320  0.62290  0.76260  Biso   1.000  H
  H60      1.0000 0.87680  0.12290  0.73740  Biso   1.000  H
  C49      1.0000 0.51880  0.32920  0.16940  Biso   1.000  C
  C50      1.0000 0.98120  0.82920  0.33060  Biso   1.000  C
  C51      1.0000 0.48120  0.67080  0.83060  Biso   1.000  C
  C52      1.0000 0.01880  0.17080  0.66940  Biso   1.000  C
  C53      1.0000 0.53440  0.39460  0.11410  Biso   1.000  C
  C54      1.0000 0.96560  0.89460  0.38590  Biso   1.000  C
  C55      1.0000 0.46560  0.60540  0.88590  Biso   1.000  C
  C56      1.0000 0.03440  0.10540  0.61410  Biso   1.000  C
  H61      1.0000 0.46400  0.39000  0.07270  Biso   1.000  H
  H62      1.0000 0.03600  0.89000  0.42730  Biso   1.000  H
  H63      1.0000 0.53600  0.61000  0.92730  Biso   1.000  H
  H64      1.0000 0.96400  0.11000  0.57270  Biso   1.000  H
  H65      1.0000 0.52150  0.44550  0.13970  Biso   1.000  H
  H66      1.0000 0.97850  0.94550  0.36030  Biso   1.000  H
  H67      1.0000 0.47850  0.55450  0.86030  Biso   1.000  H
  H68      1.0000 0.02150  0.05450  0.63970  Biso   1.000  H
  N13      1.0000 0.67310  0.39090  0.08300  Biso   1.000  N
  N14      1.0000 0.82690  0.89090  0.41700  Biso   1.000  N
  N15      1.0000 0.32690  0.60910  0.91700  Biso   1.000  N
  N16      1.0000 0.17310  0.10910  0.58300  Biso   1.000  N
  H69      1.0000 0.73390  0.40880  0.12080  Biso   1.000  H
  H70      1.0000 0.76610  0.90880  0.37920  Biso   1.000  H
  H71      1.0000 0.26610  0.59120  0.87920  Biso   1.000  H
  H72      1.0000 0.23390  0.09120  0.62080  Biso   1.000  H
  C57      1.0000 0.68870  0.44330  0.01730  Biso   1.000  C
  C58      1.0000 0.81130  0.94330  0.48270  Biso   1.000  C
  C59      1.0000 0.31130  0.55670  0.98270  Biso   1.000  C
  C60      1.0000 0.18870  0.05670  0.51730  Biso   1.000  C
  H73      1.0000 0.66640  0.49770  0.03190  Biso   1.000  H
  H74      1.0000 0.83360  0.99770  0.46810  Biso   1.000  H
  H75      1.0000 0.33360  0.50230  0.96810  Biso   1.000  H
  H76      1.0000 0.16640  0.00230  0.53190  Biso   1.000  H
  H77      1.0000 0.62360  0.42740  0.97600  Biso   1.000  H
  H78      1.0000 0.87640  0.92740  0.52400  Biso   1.000  H
  H79      1.0000 0.37640  0.57260  0.02400  Biso   1.000  H
  H80      1.0000 0.12360  0.07260  0.47600  Biso   1.000  H
  O1       1.0000 0.54280  0.28020  0.97510  Biso   1.000  O
  O2       1.0000 0.95720  0.78020  0.52490  Biso   1.000  O
  O3       1.0000 0.45720  0.71980  0.02490  Biso   1.000  O
  O4       1.0000 0.04280  0.21980  0.47510  Biso   1.000  O
  H81      1.0000 0.55320  0.28080  0.92830  Biso   1.000  H
  H82      1.0000 0.94680  0.78080  0.57170  Biso   1.000  H
  H83      1.0000 0.44680  0.71920  0.07170  Biso   1.000  H
  H84      1.0000 0.05320  0.21920  0.42830  Biso   1.000  H
  H85      1.0000 0.48410  0.24670  0.97780  Biso   1.000  H
  H86      1.0000 0.01590  0.74670  0.52220  Biso   1.000  H
  H87      1.0000 0.51590  0.75330  0.02220  Biso   1.000  H
  H88      1.0000 0.98410  0.25330  0.47780  Biso   1.000  H
  Cr1      1.0000 0.52948  0.94265  0.24253  Biso   1.000  Cr
  Cr2      1.0000 0.97052  0.44265  0.25747  Biso   1.000  Cr
  Cr3      1.0000 0.47052  0.05735  0.75747  Biso   1.000  Cr
  Cr4      1.0000 0.02948  0.55735  0.74253  Biso   1.000  Cr
  O5       1.0000 0.69720  0.94530  0.18265  Biso   1.000  O
  O6       1.0000 0.80280  0.44530  0.31735  Biso   1.000  O
  O7       1.0000 0.30280  0.05470  0.81735  Biso   1.000  O
  O8       1.0000 0.19720  0.55470  0.68265  Biso   1.000  O
  O9       1.0000 0.63640  0.01740  0.30651  Biso   1.000  O
  O10      1.0000 0.86360  0.51740  0.19349  Biso   1.000  O
  O11      1.0000 0.36360  0.98260  0.69349  Biso   1.000  O
  O12      1.0000 0.13640  0.48260  0.80651  Biso   1.000  O
  C61      1.0000 0.79190  0.99320  0.20700  Biso   1.000  C
  C62      1.0000 0.70810  0.49320  0.29300  Biso   1.000  C
  C63      1.0000 0.20810  0.00680  0.79300  Biso   1.000  C
  C64      1.0000 0.29190  0.50680  0.70700  Biso   1.000  C
  C65      1.0000 0.75400  0.03530  0.28160  Biso   1.000  C
  C66      1.0000 0.74600  0.53530  0.21840  Biso   1.000  C
  C67      1.0000 0.24600  0.96470  0.71840  Biso   1.000  C
  C68      1.0000 0.25400  0.46470  0.78160  Biso   1.000  C
  O13      1.0000 0.90140  0.00680  0.17800  Biso   1.000  O
  O14      1.0000 0.59860  0.50680  0.32200  Biso   1.000  O
  O15      1.0000 0.09860  0.99320  0.82200  Biso   1.000  O
  O16      1.0000 0.40140  0.49320  0.67800  Biso   1.000  O
  O17      1.0000 0.83650  0.08040  0.31150  Biso   1.000  O
  O18      1.0000 0.66350  0.58040  0.18850  Biso   1.000  O
  O19      1.0000 0.16350  0.91960  0.68850  Biso   1.000  O
  O20      1.0000 0.33650  0.41960  0.81150  Biso   1.000  O
  O21      1.0000 0.05650  0.35810  0.31730  Biso   1.000  O
  O22      1.0000 0.44350  0.85810  0.18270  Biso   1.000  O
  O23      1.0000 0.94350  0.64190  0.68270  Biso   1.000  O
  O24      1.0000 0.55650  0.14190  0.81730  Biso   1.000  O
  O25      1.0000 0.90480  0.35469  0.19467  Biso   1.000  O
  O26      1.0000 0.59520  0.85469  0.30533  Biso   1.000  O
  O27      1.0000 0.09520  0.64531  0.80533  Biso   1.000  O
  O28      1.0000 0.40480  0.14531  0.69467  Biso   1.000  O
  C69      1.0000 0.03780  0.29010  0.29040  Biso   1.000  C
  C70      1.0000 0.46220  0.79010  0.20960  Biso   1.000  C
  C71      1.0000 0.96220  0.70990  0.70960  Biso   1.000  C
  C72      1.0000 0.53780  0.20990  0.79040  Biso   1.000  C
  C73      1.0000 0.95180  0.28770  0.21510  Biso   1.000  C
  C74      1.0000 0.54820  0.78770  0.28490  Biso   1.000  C
  C75      1.0000 0.04820  0.71230  0.78490  Biso   1.000  C
  C76      1.0000 0.45180  0.21230  0.71510  Biso   1.000  C
  O29      1.0000 0.08200  0.22810  0.31800  Biso   1.000  O
  O30      1.0000 0.41800  0.72810  0.18200  Biso   1.000  O
  O31      1.0000 0.91800  0.77190  0.68200  Biso   1.000  O
  O32      1.0000 0.58200  0.27190  0.81800  Biso   1.000  O
  O33      1.0000 0.93230  0.22540  0.18130  Biso   1.000  O
  O34      1.0000 0.56770  0.72540  0.31870  Biso   1.000  O
  O35      1.0000 0.06770  0.77460  0.81870  Biso   1.000  O
  O36      1.0000 0.43230  0.27460  0.68130  Biso   1.000  O
  C77      1.0000 0.28260  0.00880  0.28300  Biso   1.000  C
  C78      1.0000 0.21740  0.50880  0.21700  Biso   1.000  C
  C79      1.0000 0.71740  0.99120  0.71700  Biso   1.000  C
  C80      1.0000 0.78260  0.49120  0.78300  Biso   1.000  C
  C81      1.0000 0.32340  0.04950  0.20840  Biso   1.000  C
  C82      1.0000 0.17660  0.54950  0.29160  Biso   1.000  C
  C83      1.0000 0.67660  0.95050  0.79160  Biso   1.000  C
  C84      1.0000 0.82340  0.45050  0.70840  Biso   1.000  C
  O37      1.0000 0.43820  0.02710  0.18297  Biso   1.000  O
  O38      1.0000 0.06180  0.52710  0.31703  Biso   1.000  O
  O39      1.0000 0.56180  0.97290  0.81703  Biso   1.000  O
  O40      1.0000 0.93820  0.47290  0.68297  Biso   1.000  O
  O41      1.0000 0.36690  0.95475  0.30548  Biso   1.000  O
  O42      1.0000 0.13310  0.45475  0.19452  Biso   1.000  O
  O43      1.0000 0.63310  0.04525  0.69452  Biso   1.000  O
  O44      1.0000 0.86690  0.54525  0.80548  Biso   1.000  O
  O45      1.0000 0.17820  0.02770  0.31430  Biso   1.000  O
  O46      1.0000 0.32180  0.52770  0.18570  Biso   1.000  O
  O47      1.0000 0.82180  0.97230  0.68570  Biso   1.000  O
  O48      1.0000 0.67820  0.47230  0.81430  Biso   1.000  O
  O49      1.0000 0.24550  0.09850  0.18018  Biso   1.000  O
  O50      1.0000 0.25450  0.59850  0.31982  Biso   1.000  O
  O51      1.0000 0.75450  0.90150  0.81982  Biso   1.000  O
  O52      1.0000 0.74550  0.40150  0.68018  Biso   1.000  O
  O53      1.0000 0.75840  0.82850  0.07850  Biso   1.000  O
  O54      1.0000 0.74160  0.32850  0.42150  Biso   1.000  O
  O55      1.0000 0.24160  0.17150  0.92150  Biso   1.000  O
  O56      1.0000 0.25840  0.67150  0.57850  Biso   1.000  O
  H89      1.0000 0.77580  0.86700  0.04870  Biso   1.000  H
  H90      1.0000 0.72420  0.36700  0.45130  Biso   1.000  H
  H91      1.0000 0.22420  0.13300  0.95130  Biso   1.000  H
  H92      1.0000 0.27580  0.63300  0.54870  Biso   1.000  H
  H93      1.0000 0.68520  0.81410  0.05990  Biso   1.000  H
  H94      1.0000 0.81480  0.31410  0.44010  Biso   1.000  H
  H95      1.0000 0.31480  0.18590  0.94010  Biso   1.000  H
  H96      1.0000 0.18520  0.68590  0.55990  Biso   1.000  H
  O57      1.0000 0.77210  0.66760  0.07170  Biso   1.000  O
  O58      1.0000 0.72790  0.16760  0.42830  Biso   1.000  O
  O59      1.0000 0.22790  0.33240  0.92830  Biso   1.000  O
  O60      1.0000 0.27210  0.83240  0.57170  Biso   1.000  O
  H97      1.0000 0.69010  0.68290  0.06510  Biso   1.000  H
  H98      1.0000 0.80990  0.18290  0.43490  Biso   1.000  H
  H99      1.0000 0.30990  0.31710  0.93490  Biso   1.000  H
  H100     1.0000 0.19010  0.81710  0.56510  Biso   1.000  H
  H101     1.0000 0.75540  0.62920  0.10020  Biso   1.000  H
  H102     1.0000 0.74460  0.12920  0.39980  Biso   1.000  H
  H103     1.0000 0.24460  0.37080  0.89980  Biso   1.000  H
  H104     1.0000 0.25540  0.87080  0.60020  Biso   1.000  H
  O61      1.0000 0.17260  0.34490  0.07700  Biso   1.000  O
  O62      1.0000 0.32740  0.84490  0.42300  Biso   1.000  O
  O63      1.0000 0.82740  0.65510  0.92300  Biso   1.000  O
  O64      1.0000 0.67260  0.15510  0.57700  Biso   1.000  O
  H105     1.0000 0.17320  0.38000  0.11070  Biso   1.000  H
  H106     1.0000 0.32680  0.88000  0.38930  Biso   1.000  H
  H107     1.0000 0.82680  0.62000  0.88930  Biso   1.000  H
  H108     1.0000 0.67320  0.12000  0.61070  Biso   1.000  H
  H109     1.0000 0.21230  0.36700  0.04070  Biso   1.000  H
  H110     1.0000 0.28770  0.86700  0.45930  Biso   1.000  H
  H111     1.0000 0.78770  0.63300  0.95930  Biso   1.000  H
  H112     1.0000 0.71230  0.13300  0.54070  Biso   1.000  H
  O65      1.0000 0.31600  0.20420  0.06940  Biso   1.000  O
  O66      1.0000 0.18400  0.70420  0.43060  Biso   1.000  O
  O67      1.0000 0.68400  0.79580  0.93060  Biso   1.000  O
  O68      1.0000 0.81600  0.29580  0.56940  Biso   1.000  O
  H113     1.0000 0.27020  0.24330  0.08420  Biso   1.000  H
  H114     1.0000 0.22980  0.74330  0.41580  Biso   1.000  H
  H115     1.0000 0.72980  0.75670  0.91580  Biso   1.000  H
  H116     1.0000 0.77020  0.25670  0.58420  Biso   1.000  H
  H117     1.0000 0.31500  0.17120  0.10500  Biso   1.000  H
  H118     1.0000 0.18500  0.67120  0.39500  Biso   1.000  H
  H119     1.0000 0.68500  0.82880  0.89500  Biso   1.000  H
  H120     1.0000 0.81500  0.32880  0.60500  Biso   1.000  H
