data_image0
_cell_length_a       11.497
_cell_length_b       16.4423
_cell_length_c       8.6511
_cell_angle_alpha    90
_cell_angle_beta     104.081
_cell_angle_gamma    90

_symmetry_space_group_name_H-M    "P 1"
_symmetry_int_tables_number       1

loop_
  _symmetry_equiv_pos_as_xyz
  'x, y, z'

loop_
  _atom_site_label
  _atom_site_occupancy
  _atom_site_fract_x
  _atom_site_fract_y
  _atom_site_fract_z
  _atom_site_thermal_displace_type
  _atom_site_B_iso_or_equiv
  _atom_site_type_symbol
  Cu1      1.0000 0.27340  0.14617  0.61055  Biso   1.000  Cu
  Cu2      1.0000 0.72660  0.64617  0.88945  Biso   1.000  Cu
  Cu3      1.0000 0.72660  0.85383  0.38945  Biso   1.000  Cu
  Cu4      1.0000 0.27340  0.35383  0.11055  Biso   1.000  Cu
  N1       1.0000 0.10920  0.12380  0.48130  Biso   1.000  N
  N2       1.0000 0.89080  0.62380  0.01870  Biso   1.000  N
  N3       1.0000 0.89080  0.87620  0.51870  Biso   1.000  N
  N4       1.0000 0.10920  0.37620  0.98130  Biso   1.000  N
  H1       1.0000 0.10510  0.07370  0.43820  Biso   1.000  H
  H2       1.0000 0.89490  0.57370  0.06180  Biso   1.000  H
  H3       1.0000 0.89490  0.92630  0.56180  Biso   1.000  H
  H4       1.0000 0.10510  0.42630  0.93820  Biso   1.000  H
  H5       1.0000 0.05580  0.12700  0.54180  Biso   1.000  H
  H6       1.0000 0.94420  0.62700  0.95820  Biso   1.000  H
  H7       1.0000 0.94420  0.87300  0.45820  Biso   1.000  H
  H8       1.0000 0.05580  0.37300  0.04180  Biso   1.000  H
  N5       1.0000 0.44780  0.15360  0.71960  Biso   1.000  N
  N6       1.0000 0.55220  0.65360  0.78040  Biso   1.000  N
  N7       1.0000 0.55220  0.84640  0.28040  Biso   1.000  N
  N8       1.0000 0.44780  0.34640  0.21960  Biso   1.000  N
  N9       1.0000 0.26620  0.09450  0.82100  Biso   1.000  N
  N10      1.0000 0.73380  0.59450  0.67900  Biso   1.000  N
  N11      1.0000 0.73380  0.90550  0.17900  Biso   1.000  N
  N12      1.0000 0.26620  0.40550  0.32100  Biso   1.000  N
  O1       1.0000 0.30010  0.18750  0.41220  Biso   1.000  O
  O2       1.0000 0.69990  0.68750  0.08780  Biso   1.000  O
  O3       1.0000 0.69990  0.81250  0.58780  Biso   1.000  O
  O4       1.0000 0.30010  0.31250  0.91220  Biso   1.000  O
  O5       1.0000 0.20280  0.23380  0.17640  Biso   1.000  O
  O6       1.0000 0.79720  0.73380  0.32360  Biso   1.000  O
  O7       1.0000 0.79720  0.76620  0.82360  Biso   1.000  O
  O8       1.0000 0.20280  0.26620  0.67640  Biso   1.000  O
  C1       1.0000 0.20680  0.20030  0.30540  Biso   1.000  C
  C2       1.0000 0.79320  0.70030  0.19460  Biso   1.000  C
  C3       1.0000 0.79320  0.79970  0.69460  Biso   1.000  C
  C4       1.0000 0.20680  0.29970  0.80540  Biso   1.000  C
  C5       1.0000 0.08400  0.18700  0.35400  Biso   1.000  C
  C6       1.0000 0.91600  0.68700  0.14600  Biso   1.000  C
  C7       1.0000 0.91600  0.81300  0.64600  Biso   1.000  C
  C8       1.0000 0.08400  0.31300  0.85400  Biso   1.000  C
  H9       1.0000 0.06430  0.23770  0.40130  Biso   1.000  H
  H10      1.0000 0.93570  0.73770  0.09870  Biso   1.000  H
  H11      1.0000 0.93570  0.76230  0.59870  Biso   1.000  H
  H12      1.0000 0.06430  0.26230  0.90130  Biso   1.000  H
  C9       1.0000 0.98050  0.16550  0.21640  Biso   1.000  C
  C10      1.0000 0.01950  0.66550  0.28360  Biso   1.000  C
  C11      1.0000 0.01950  0.83450  0.78360  Biso   1.000  C
  C12      1.0000 0.98050  0.33450  0.71640  Biso   1.000  C
  H13      1.0000 0.00500  0.12420  0.15260  Biso   1.000  H
  H14      1.0000 0.99500  0.62420  0.34740  Biso   1.000  H
  H15      1.0000 0.99500  0.87580  0.84740  Biso   1.000  H
  H16      1.0000 0.00500  0.37580  0.65260  Biso   1.000  H
  H17      1.0000 0.95540  0.21300  0.15240  Biso   1.000  H
  H18      1.0000 0.04460  0.71300  0.34760  Biso   1.000  H
  H19      1.0000 0.04460  0.78700  0.84760  Biso   1.000  H
  H20      1.0000 0.95540  0.28700  0.65240  Biso   1.000  H
  H21      1.0000 0.91500  0.14560  0.25660  Biso   1.000  H
  H22      1.0000 0.08500  0.64560  0.24340  Biso   1.000  H
  H23      1.0000 0.08500  0.85440  0.74340  Biso   1.000  H
  H24      1.0000 0.91500  0.35440  0.75660  Biso   1.000  H
  C13      1.0000 0.53770  0.18090  0.66320  Biso   1.000  C
  C14      1.0000 0.46230  0.68090  0.83680  Biso   1.000  C
  C15      1.0000 0.46230  0.81910  0.33680  Biso   1.000  C
  C16      1.0000 0.53770  0.31910  0.16320  Biso   1.000  C
  H25      1.0000 0.52300  0.19540  0.55630  Biso   1.000  H
  H26      1.0000 0.47700  0.69540  0.94370  Biso   1.000  H
  H27      1.0000 0.47700  0.80460  0.44370  Biso   1.000  H
  H28      1.0000 0.52300  0.30460  0.05630  Biso   1.000  H
  C17      1.0000 0.65250  0.18870  0.75790  Biso   1.000  C
  C18      1.0000 0.34750  0.68870  0.74210  Biso   1.000  C
  C19      1.0000 0.34750  0.81130  0.24210  Biso   1.000  C
  C20      1.0000 0.65250  0.31130  0.25790  Biso   1.000  C
  H29      1.0000 0.71400  0.20760  0.71470  Biso   1.000  H
  H30      1.0000 0.28600  0.70760  0.78530  Biso   1.000  H
  H31      1.0000 0.28600  0.79240  0.28530  Biso   1.000  H
  H32      1.0000 0.71400  0.29240  0.21470  Biso   1.000  H
  C21      1.0000 0.67490  0.16860  0.91340  Biso   1.000  C
  C22      1.0000 0.32510  0.66860  0.58660  Biso   1.000  C
  C23      1.0000 0.32510  0.83140  0.08660  Biso   1.000  C
  C24      1.0000 0.67490  0.33140  0.41340  Biso   1.000  C
  H33      1.0000 0.75200  0.17480  0.97780  Biso   1.000  H
  H34      1.0000 0.24800  0.67480  0.52220  Biso   1.000  H
  H35      1.0000 0.24800  0.82520  0.02220  Biso   1.000  H
  H36      1.0000 0.75200  0.32520  0.47780  Biso   1.000  H
  C25      1.0000 0.58390  0.13880  0.97900  Biso   1.000  C
  C26      1.0000 0.41610  0.63880  0.52100  Biso   1.000  C
  C27      1.0000 0.41610  0.86120  0.02100  Biso   1.000  C
  C28      1.0000 0.58390  0.36120  0.47900  Biso   1.000  C
  C29      1.0000 0.46990  0.13190  0.87540  Biso   1.000  C
  C30      1.0000 0.53010  0.63190  0.62460  Biso   1.000  C
  C31      1.0000 0.53010  0.86810  0.12460  Biso   1.000  C
  C32      1.0000 0.46990  0.36810  0.37540  Biso   1.000  C
  C33      1.0000 0.37160  0.09990  0.92930  Biso   1.000  C
  C34      1.0000 0.62840  0.59990  0.57070  Biso   1.000  C
  C35      1.0000 0.62840  0.90010  0.07070  Biso   1.000  C
  C36      1.0000 0.37160  0.40010  0.42930  Biso   1.000  C
  C37      1.0000 0.38890  0.07350  0.08700  Biso   1.000  C
  C38      1.0000 0.61110  0.57350  0.41300  Biso   1.000  C
  C39      1.0000 0.61110  0.92650  0.91300  Biso   1.000  C
  C40      1.0000 0.38890  0.42650  0.58700  Biso   1.000  C
  C41      1.0000 0.29120  0.03950  0.13050  Biso   1.000  C
  C42      1.0000 0.70880  0.53950  0.36950  Biso   1.000  C
  C43      1.0000 0.70880  0.96050  0.86950  Biso   1.000  C
  C44      1.0000 0.29120  0.46050  0.63050  Biso   1.000  C
  H37      1.0000 0.29830  0.02200  0.23460  Biso   1.000  H
  H38      1.0000 0.70170  0.52200  0.26540  Biso   1.000  H
  H39      1.0000 0.70170  0.97800  0.76540  Biso   1.000  H
  H40      1.0000 0.29830  0.47800  0.73460  Biso   1.000  H
  C45      1.0000 0.18460  0.03170  0.02020  Biso   1.000  C
  C46      1.0000 0.81540  0.53170  0.47980  Biso   1.000  C
  C47      1.0000 0.81540  0.96830  0.97980  Biso   1.000  C
  C48      1.0000 0.18460  0.46830  0.52020  Biso   1.000  C
  H41      1.0000 0.11940  0.00730  0.04740  Biso   1.000  H
  H42      1.0000 0.88060  0.50730  0.45260  Biso   1.000  H
  H43      1.0000 0.88060  0.99270  0.95260  Biso   1.000  H
  H44      1.0000 0.11940  0.49270  0.54740  Biso   1.000  H
  C49      1.0000 0.17440  0.06090  0.86570  Biso   1.000  C
  C50      1.0000 0.82560  0.56090  0.63430  Biso   1.000  C
  C51      1.0000 0.82560  0.93910  0.13430  Biso   1.000  C
  C52      1.0000 0.17440  0.43910  0.36570  Biso   1.000  C
  H45      1.0000 0.10090  0.05670  0.79170  Biso   1.000  H
  H46      1.0000 0.89910  0.55670  0.70830  Biso   1.000  H
  H47      1.0000 0.89910  0.94330  0.20830  Biso   1.000  H
  H48      1.0000 0.10090  0.44330  0.29170  Biso   1.000  H
  C53      1.0000 0.59850  0.11250  0.14090  Biso   1.000  C
  C54      1.0000 0.40150  0.61250  0.35910  Biso   1.000  C
  C55      1.0000 0.40150  0.88750  0.85910  Biso   1.000  C
  C56      1.0000 0.59850  0.38750  0.64090  Biso   1.000  C
  H49      1.0000 0.67330  0.11690  0.21190  Biso   1.000  H
  H50      1.0000 0.32670  0.61690  0.28810  Biso   1.000  H
  H51      1.0000 0.32670  0.88310  0.78810  Biso   1.000  H
  H52      1.0000 0.67330  0.38310  0.71190  Biso   1.000  H
  C57      1.0000 0.50630  0.08180  0.19170  Biso   1.000  C
  C58      1.0000 0.49370  0.58180  0.30830  Biso   1.000  C
  C59      1.0000 0.49370  0.91820  0.80830  Biso   1.000  C
  C60      1.0000 0.50630  0.41820  0.69170  Biso   1.000  C
  H53      1.0000 0.51860  0.06540  0.29740  Biso   1.000  H
  H54      1.0000 0.48140  0.56540  0.20260  Biso   1.000  H
  H55      1.0000 0.48140  0.93460  0.70260  Biso   1.000  H
  H56      1.0000 0.51860  0.43460  0.79740  Biso   1.000  H
  H57      1.0000 0.09730  0.06970  0.47290  Biso   1.000  H
  H58      1.0000 0.90270  0.56970  0.02710  Biso   1.000  H
  H59      1.0000 0.90270  0.93030  0.52710  Biso   1.000  H
  H60      1.0000 0.09730  0.43030  0.97290  Biso   1.000  H
  H61      1.0000 0.05550  0.14470  0.53050  Biso   1.000  H
  H62      1.0000 0.94450  0.64470  0.96950  Biso   1.000  H
  H63      1.0000 0.94450  0.85530  0.46950  Biso   1.000  H
  H64      1.0000 0.05550  0.35530  0.03050  Biso   1.000  H
  C61      1.0000 0.09100  0.16000  0.32200  Biso   1.000  C
  C62      1.0000 0.90900  0.66000  0.17800  Biso   1.000  C
  C63      1.0000 0.90900  0.84000  0.67800  Biso   1.000  C
  C64      1.0000 0.09100  0.34000  0.82200  Biso   1.000  C
  H65      1.0000 0.06500  0.11870  0.23880  Biso   1.000  H
  H66      1.0000 0.93500  0.61870  0.26120  Biso   1.000  H
  H67      1.0000 0.93500  0.88130  0.76120  Biso   1.000  H
  H68      1.0000 0.06500  0.38130  0.73880  Biso   1.000  H
  C65      1.0000 0.99920  0.22930  0.30100  Biso   1.000  C
  C66      1.0000 0.00080  0.72930  0.19900  Biso   1.000  C
  C67      1.0000 0.00080  0.77070  0.69900  Biso   1.000  C
  C68      1.0000 0.99920  0.27070  0.80100  Biso   1.000  C
  H69      1.0000 0.92470  0.20870  0.31590  Biso   1.000  H
  H70      1.0000 0.07530  0.70870  0.18410  Biso   1.000  H
  H71      1.0000 0.07530  0.79130  0.68410  Biso   1.000  H
  H72      1.0000 0.92470  0.29130  0.81590  Biso   1.000  H
  H73      1.0000 0.98690  0.25160  0.19540  Biso   1.000  H
  H74      1.0000 0.01310  0.75160  0.30460  Biso   1.000  H
  H75      1.0000 0.01310  0.74840  0.80460  Biso   1.000  H
  H76      1.0000 0.98690  0.24840  0.69540  Biso   1.000  H
  H77      1.0000 0.02870  0.27110  0.37800  Biso   1.000  H
  H78      1.0000 0.97130  0.77110  0.12200  Biso   1.000  H
  H79      1.0000 0.97130  0.72890  0.62200  Biso   1.000  H
  H80      1.0000 0.02870  0.22890  0.87800  Biso   1.000  H
  N13      1.0000 0.81740  0.07970  0.54870  Biso   1.000  N
  N14      1.0000 0.18260  0.57970  0.95130  Biso   1.000  N
  N15      1.0000 0.18260  0.92030  0.45130  Biso   1.000  N
  N16      1.0000 0.81740  0.42030  0.04870  Biso   1.000  N
  O9       1.0000 0.90350  0.04770  0.64340  Biso   1.000  O
  O10      1.0000 0.09650  0.54770  0.85660  Biso   1.000  O
  O11      1.0000 0.09650  0.95230  0.35660  Biso   1.000  O
  O12      1.0000 0.90350  0.45230  0.14340  Biso   1.000  O
  O13      1.0000 0.82370  0.14940  0.50220  Biso   1.000  O
  O14      1.0000 0.17630  0.64940  0.99780  Biso   1.000  O
  O15      1.0000 0.17630  0.85060  0.49780  Biso   1.000  O
  O16      1.0000 0.82370  0.35060  0.00220  Biso   1.000  O
  O17      1.0000 0.72450  0.03790  0.50460  Biso   1.000  O
  O18      1.0000 0.27550  0.53790  0.99540  Biso   1.000  O
  O19      1.0000 0.27550  0.96210  0.49540  Biso   1.000  O
  O20      1.0000 0.72450  0.46210  0.00460  Biso   1.000  O
