data_image0
_cell_length_a       11.6734
_cell_length_b       7.1472
_cell_length_c       20.131
_cell_angle_alpha    90
_cell_angle_beta     98.496
_cell_angle_gamma    90

_symmetry_space_group_name_H-M    "P 1"
_symmetry_int_tables_number       1

loop_
  _symmetry_equiv_pos_as_xyz
  'x, y, z'

loop_
  _atom_site_label
  _atom_site_occupancy
  _atom_site_fract_x
  _atom_site_fract_y
  _atom_site_fract_z
  _atom_site_thermal_displace_type
  _atom_site_B_iso_or_equiv
  _atom_site_type_symbol
  Cu1      1.0000 0.32631  0.65638  0.35700  Biso   1.000  Cu
  Cu2      1.0000 0.17369  0.15638  0.14300  Biso   1.000  Cu
  Cu3      1.0000 0.67369  0.34362  0.64300  Biso   1.000  Cu
  Cu4      1.0000 0.82631  0.84362  0.85700  Biso   1.000  Cu
  N1       1.0000 0.15510  0.67300  0.34990  Biso   1.000  N
  N2       1.0000 0.34490  0.17300  0.15010  Biso   1.000  N
  N3       1.0000 0.84490  0.32700  0.65010  Biso   1.000  N
  N4       1.0000 0.65510  0.82700  0.84990  Biso   1.000  N
  H1       1.0000 0.13270  0.65050  0.39010  Biso   1.000  H
  H2       1.0000 0.36730  0.15050  0.10990  Biso   1.000  H
  H3       1.0000 0.86730  0.34950  0.60990  Biso   1.000  H
  H4       1.0000 0.63270  0.84950  0.89010  Biso   1.000  H
  H5       1.0000 0.13060  0.78800  0.33630  Biso   1.000  H
  H6       1.0000 0.36940  0.28800  0.16370  Biso   1.000  H
  H7       1.0000 0.86940  0.21200  0.66370  Biso   1.000  H
  H8       1.0000 0.63060  0.71200  0.83630  Biso   1.000  H
  N5       1.0000 0.49800  0.61770  0.36260  Biso   1.000  N
  N6       1.0000 0.00200  0.11770  0.13740  Biso   1.000  N
  N7       1.0000 0.50200  0.38230  0.63740  Biso   1.000  N
  N8       1.0000 0.99800  0.88230  0.86260  Biso   1.000  N
  N9       1.0000 0.37160  0.73760  0.45350  Biso   1.000  N
  N10      1.0000 0.12840  0.23760  0.04650  Biso   1.000  N
  N11      1.0000 0.62840  0.26240  0.54650  Biso   1.000  N
  N12      1.0000 0.87160  0.76240  0.95350  Biso   1.000  N
  O1       1.0000 0.29310  0.50710  0.27575  Biso   1.000  O
  O2       1.0000 0.20690  0.00710  0.22425  Biso   1.000  O
  O3       1.0000 0.70690  0.49290  0.72425  Biso   1.000  O
  O4       1.0000 0.79310  0.99290  0.77575  Biso   1.000  O
  O5       1.0000 0.15040  0.43320  0.19432  Biso   1.000  O
  O6       1.0000 0.34960  0.93320  0.30568  Biso   1.000  O
  O7       1.0000 0.84960  0.56680  0.80568  Biso   1.000  O
  O8       1.0000 0.65040  0.06680  0.69432  Biso   1.000  O
  C1       1.0000 0.18630  0.49870  0.24980  Biso   1.000  C
  C2       1.0000 0.31370  0.99870  0.25020  Biso   1.000  C
  C3       1.0000 0.81370  0.50130  0.75020  Biso   1.000  C
  C4       1.0000 0.68630  0.00130  0.74980  Biso   1.000  C
  C5       1.0000 0.10550  0.53100  0.30010  Biso   1.000  C
  C6       1.0000 0.39450  0.03100  0.19990  Biso   1.000  C
  C7       1.0000 0.89450  0.46900  0.69990  Biso   1.000  C
  C8       1.0000 0.60550  0.96900  0.80010  Biso   1.000  C
  H9       1.0000 0.10670  0.41430  0.32540  Biso   1.000  H
  H10      1.0000 0.39330  0.91430  0.17460  Biso   1.000  H
  H11      1.0000 0.89330  0.58570  0.67460  Biso   1.000  H
  H12      1.0000 0.60670  0.08570  0.82540  Biso   1.000  H
  C9       1.0000 0.98140  0.56250  0.27300  Biso   1.000  C
  C10      1.0000 0.51860  0.06250  0.22700  Biso   1.000  C
  C11      1.0000 0.01860  0.43750  0.72700  Biso   1.000  C
  C12      1.0000 0.48140  0.93750  0.77300  Biso   1.000  C
  H13      1.0000 0.97680  0.68040  0.24990  Biso   1.000  H
  H14      1.0000 0.52320  0.18040  0.25010  Biso   1.000  H
  H15      1.0000 0.02320  0.31960  0.75010  Biso   1.000  H
  H16      1.0000 0.47680  0.81960  0.74990  Biso   1.000  H
  H17      1.0000 0.93550  0.56740  0.30880  Biso   1.000  H
  H18      1.0000 0.56450  0.06740  0.19120  Biso   1.000  H
  H19      1.0000 0.06450  0.43260  0.69120  Biso   1.000  H
  H20      1.0000 0.43550  0.93260  0.80880  Biso   1.000  H
  H21      1.0000 0.95270  0.46520  0.24210  Biso   1.000  H
  H22      1.0000 0.54730  0.96520  0.25790  Biso   1.000  H
  H23      1.0000 0.04730  0.53480  0.75790  Biso   1.000  H
  H24      1.0000 0.45270  0.03480  0.74210  Biso   1.000  H
  C13      1.0000 0.55710  0.56760  0.31400  Biso   1.000  C
  C14      1.0000 0.94290  0.06760  0.18600  Biso   1.000  C
  C15      1.0000 0.44290  0.43240  0.68600  Biso   1.000  C
  C16      1.0000 0.05710  0.93240  0.81400  Biso   1.000  C
  H25      1.0000 0.51720  0.53810  0.27180  Biso   1.000  H
  H26      1.0000 0.98280  0.03810  0.22820  Biso   1.000  H
  H27      1.0000 0.48280  0.46190  0.72820  Biso   1.000  H
  H28      1.0000 0.01720  0.96190  0.77180  Biso   1.000  H
  C17      1.0000 0.67880  0.55820  0.32500  Biso   1.000  C
  C18      1.0000 0.82120  0.05820  0.17500  Biso   1.000  C
  C19      1.0000 0.32120  0.44180  0.67500  Biso   1.000  C
  C20      1.0000 0.17880  0.94180  0.82500  Biso   1.000  C
  H29      1.0000 0.71850  0.52570  0.28990  Biso   1.000  H
  H30      1.0000 0.78150  0.02570  0.21010  Biso   1.000  H
  H31      1.0000 0.28150  0.47430  0.71010  Biso   1.000  H
  H32      1.0000 0.21850  0.97430  0.78990  Biso   1.000  H
  C21      1.0000 0.73850  0.59600  0.38630  Biso   1.000  C
  C22      1.0000 0.76150  0.09600  0.11370  Biso   1.000  C
  C23      1.0000 0.26150  0.40400  0.61370  Biso   1.000  C
  C24      1.0000 0.23850  0.90400  0.88630  Biso   1.000  C
  H33      1.0000 0.81870  0.58320  0.39390  Biso   1.000  H
  H34      1.0000 0.68130  0.08320  0.10610  Biso   1.000  H
  H35      1.0000 0.18130  0.41680  0.60610  Biso   1.000  H
  H36      1.0000 0.31870  0.91680  0.89390  Biso   1.000  H
  C25      1.0000 0.67880  0.65500  0.43880  Biso   1.000  C
  C26      1.0000 0.82120  0.15500  0.06120  Biso   1.000  C
  C27      1.0000 0.32120  0.34500  0.56120  Biso   1.000  C
  C28      1.0000 0.17880  0.84500  0.93880  Biso   1.000  C
  C29      1.0000 0.55650  0.66330  0.42350  Biso   1.000  C
  C30      1.0000 0.94350  0.16330  0.07650  Biso   1.000  C
  C31      1.0000 0.44350  0.33670  0.57650  Biso   1.000  C
  C32      1.0000 0.05650  0.83670  0.92350  Biso   1.000  C
  C33      1.0000 0.48950  0.72710  0.47320  Biso   1.000  C
  C34      1.0000 0.01050  0.22710  0.02680  Biso   1.000  C
  C35      1.0000 0.51050  0.27290  0.52680  Biso   1.000  C
  C36      1.0000 0.98950  0.77290  0.97320  Biso   1.000  C
  C37      1.0000 0.54350  0.77680  0.53750  Biso   1.000  C
  C38      1.0000 0.95650  0.27680  0.96250  Biso   1.000  C
  C39      1.0000 0.45650  0.22320  0.46250  Biso   1.000  C
  C40      1.0000 0.04350  0.72320  0.03750  Biso   1.000  C
  C41      1.0000 0.47180  0.83820  0.58350  Biso   1.000  C
  C42      1.0000 0.02820  0.33820  0.91650  Biso   1.000  C
  C43      1.0000 0.52820  0.16180  0.41650  Biso   1.000  C
  C44      1.0000 0.97180  0.66180  0.08350  Biso   1.000  C
  H37      1.0000 0.50390  0.87190  0.62690  Biso   1.000  H
  H38      1.0000 0.99610  0.37190  0.87310  Biso   1.000  H
  H39      1.0000 0.49610  0.12810  0.37310  Biso   1.000  H
  H40      1.0000 0.00390  0.62810  0.12690  Biso   1.000  H
  C45      1.0000 0.35510  0.84810  0.56420  Biso   1.000  C
  C46      1.0000 0.14490  0.34810  0.93580  Biso   1.000  C
  C47      1.0000 0.64490  0.15190  0.43580  Biso   1.000  C
  C48      1.0000 0.85510  0.65190  0.06420  Biso   1.000  C
  H41      1.0000 0.30710  0.88950  0.59420  Biso   1.000  H
  H42      1.0000 0.19290  0.38950  0.90580  Biso   1.000  H
  H43      1.0000 0.69290  0.11050  0.40580  Biso   1.000  H
  H44      1.0000 0.80710  0.61050  0.09420  Biso   1.000  H
  C49      1.0000 0.30850  0.79560  0.49920  Biso   1.000  C
  C50      1.0000 0.19150  0.29560  0.00080  Biso   1.000  C
  C51      1.0000 0.69150  0.20440  0.50080  Biso   1.000  C
  C52      1.0000 0.80850  0.70440  0.99920  Biso   1.000  C
  H45      1.0000 0.22850  0.80140  0.48710  Biso   1.000  H
  H46      1.0000 0.27150  0.30140  0.01290  Biso   1.000  H
  H47      1.0000 0.77150  0.19860  0.51290  Biso   1.000  H
  H48      1.0000 0.72850  0.69860  0.98710  Biso   1.000  H
  C53      1.0000 0.73080  0.70680  0.50500  Biso   1.000  C
  C54      1.0000 0.76920  0.20680  0.99500  Biso   1.000  C
  C55      1.0000 0.26920  0.29320  0.49500  Biso   1.000  C
  C56      1.0000 0.23080  0.79320  0.00500  Biso   1.000  C
  H49      1.0000 0.81080  0.69930  0.51610  Biso   1.000  H
  H50      1.0000 0.68920  0.19930  0.98390  Biso   1.000  H
  H51      1.0000 0.18920  0.30070  0.48390  Biso   1.000  H
  H52      1.0000 0.31080  0.80070  0.01610  Biso   1.000  H
  C57      1.0000 0.66920  0.76480  0.55110  Biso   1.000  C
  C58      1.0000 0.83080  0.26480  0.94890  Biso   1.000  C
  C59      1.0000 0.33080  0.23520  0.44890  Biso   1.000  C
  C60      1.0000 0.16920  0.73520  0.05110  Biso   1.000  C
  H53      1.0000 0.70720  0.79880  0.59320  Biso   1.000  H
  H54      1.0000 0.79280  0.29880  0.90680  Biso   1.000  H
  H55      1.0000 0.29280  0.20120  0.40680  Biso   1.000  H
  H56      1.0000 0.20720  0.70120  0.09320  Biso   1.000  H
  H57      1.0000 0.13070  0.59540  0.38020  Biso   1.000  H
  H58      1.0000 0.36930  0.09540  0.11980  Biso   1.000  H
  H59      1.0000 0.86930  0.40460  0.61980  Biso   1.000  H
  H60      1.0000 0.63070  0.90460  0.88020  Biso   1.000  H
  H61      1.0000 0.13510  0.79030  0.35970  Biso   1.000  H
  H62      1.0000 0.36490  0.29030  0.14030  Biso   1.000  H
  H63      1.0000 0.86490  0.20970  0.64030  Biso   1.000  H
  H64      1.0000 0.63510  0.70970  0.85970  Biso   1.000  H
  C61      1.0000 0.09760  0.62300  0.28200  Biso   1.000  C
  C62      1.0000 0.40240  0.12300  0.21800  Biso   1.000  C
  C63      1.0000 0.90240  0.37700  0.71800  Biso   1.000  C
  C64      1.0000 0.59760  0.87700  0.78200  Biso   1.000  C
  H65      1.0000 0.09520  0.74080  0.25700  Biso   1.000  H
  H66      1.0000 0.40480  0.24080  0.24300  Biso   1.000  H
  H67      1.0000 0.90480  0.25920  0.74300  Biso   1.000  H
  H68      1.0000 0.59520  0.75920  0.75700  Biso   1.000  H
  H69      1.0000 0.93610  0.64700  0.29550  Biso   1.000  H
  H70      1.0000 0.56390  0.14700  0.20450  Biso   1.000  H
  H71      1.0000 0.06390  0.35300  0.70450  Biso   1.000  H
  H72      1.0000 0.43610  0.85300  0.79550  Biso   1.000  H
  H73      1.0000 0.97730  0.43910  0.29140  Biso   1.000  H
  H74      1.0000 0.52270  0.93910  0.20860  Biso   1.000  H
  H75      1.0000 0.02270  0.56090  0.70860  Biso   1.000  H
  H76      1.0000 0.47730  0.06090  0.79140  Biso   1.000  H
  H77      1.0000 0.95170  0.56010  0.22590  Biso   1.000  H
  H78      1.0000 0.54830  0.06010  0.27410  Biso   1.000  H
  H79      1.0000 0.04830  0.43990  0.77410  Biso   1.000  H
  H80      1.0000 0.45170  0.93990  0.72590  Biso   1.000  H
  N13      1.0000 0.50000  0.60000  0.10000  Biso   1.000  N
  N14      1.0000 0.00000  0.10000  0.40000  Biso   1.000  N
  N15      1.0000 0.50000  0.40000  0.90000  Biso   1.000  N
  N16      1.0000 0.00000  0.90000  0.60000  Biso   1.000  N
  O9       1.0000 0.60900  0.70600  0.14600  Biso   1.000  O
  O10      1.0000 0.89100  0.20600  0.35400  Biso   1.000  O
  O11      1.0000 0.39100  0.29400  0.85400  Biso   1.000  O
  O12      1.0000 0.10900  0.79400  0.64600  Biso   1.000  O
  O13      1.0000 0.45900  0.55800  0.14300  Biso   1.000  O
  O14      1.0000 0.04100  0.05800  0.35700  Biso   1.000  O
  O15      1.0000 0.54100  0.44200  0.85700  Biso   1.000  O
  O16      1.0000 0.95900  0.94200  0.64300  Biso   1.000  O
  O17      1.0000 0.57200  0.50200  0.07300  Biso   1.000  O
  O18      1.0000 0.92800  0.00200  0.42700  Biso   1.000  O
  O19      1.0000 0.42800  0.49800  0.92700  Biso   1.000  O
  O20      1.0000 0.07200  0.99800  0.57300  Biso   1.000  O
  N17      1.0000 0.55000  0.60000  0.12000  Biso   1.000  N
  N18      1.0000 0.95000  0.10000  0.38000  Biso   1.000  N
  N19      1.0000 0.45000  0.40000  0.88000  Biso   1.000  N
  N20      1.0000 0.05000  0.90000  0.62000  Biso   1.000  N
  O21      1.0000 0.43200  0.57400  0.11600  Biso   1.000  O
  O22      1.0000 0.06800  0.07400  0.38400  Biso   1.000  O
  O23      1.0000 0.56800  0.42600  0.88400  Biso   1.000  O
  O24      1.0000 0.93200  0.92600  0.61600  Biso   1.000  O
  O25      1.0000 0.59220  0.46600  0.15300  Biso   1.000  O
  O26      1.0000 0.90780  0.96600  0.34700  Biso   1.000  O
  O27      1.0000 0.40780  0.53400  0.84700  Biso   1.000  O
  O28      1.0000 0.09220  0.03400  0.65300  Biso   1.000  O
  O29      1.0000 0.57400  0.71100  0.09280  Biso   1.000  O
  O30      1.0000 0.92600  0.21100  0.40720  Biso   1.000  O
  O31      1.0000 0.42600  0.28900  0.90720  Biso   1.000  O
  O32      1.0000 0.07400  0.78900  0.59280  Biso   1.000  O
  O33      1.0000 0.47280  0.16360  0.03470  Biso   1.000  O
  O34      1.0000 0.02720  0.66360  0.46530  Biso   1.000  O
  O35      1.0000 0.52720  0.83640  0.96530  Biso   1.000  O
  O36      1.0000 0.97280  0.33640  0.53470  Biso   1.000  O
  H81      1.0000 0.45370  0.22660  0.99900  Biso   1.000  H
  H82      1.0000 0.04630  0.72660  0.50100  Biso   1.000  H
  H83      1.0000 0.54630  0.77340  0.00100  Biso   1.000  H
  H84      1.0000 0.95370  0.27340  0.49900  Biso   1.000  H
  H85      1.0000 0.49250  0.05490  0.02360  Biso   1.000  H
  H86      1.0000 0.00750  0.55490  0.47640  Biso   1.000  H
  H87      1.0000 0.50750  0.94510  0.97640  Biso   1.000  H
  H88      1.0000 0.99250  0.44510  0.52360  Biso   1.000  H
  H89      1.0000 0.53010  0.21600  0.05850  Biso   1.000  H
  H90      1.0000 0.96990  0.71600  0.44150  Biso   1.000  H
  H91      1.0000 0.46990  0.78400  0.94150  Biso   1.000  H
  H92      1.0000 0.03010  0.28400  0.55850  Biso   1.000  H
