data_image0
_cell_length_a       6.9924
_cell_length_b       11.8791
_cell_length_c       22.8172
_cell_angle_alpha    90
_cell_angle_beta     90
_cell_angle_gamma    90

_symmetry_space_group_name_H-M    "P 1"
_symmetry_int_tables_number       1

loop_
  _symmetry_equiv_pos_as_xyz
  'x, y, z'

loop_
  _atom_site_label
  _atom_site_occupancy
  _atom_site_fract_x
  _atom_site_fract_y
  _atom_site_fract_z
  _atom_site_thermal_displace_type
  _atom_site_B_iso_or_equiv
  _atom_site_type_symbol
  Cu1      1.0000 0.48362  0.19021  0.92424  Biso   1.000  Cu
  Cu2      1.0000 0.01638  0.80979  0.42424  Biso   1.000  Cu
  Cu3      1.0000 0.51638  0.69021  0.57576  Biso   1.000  Cu
  Cu4      1.0000 0.98362  0.30979  0.07576  Biso   1.000  Cu
  Cl1      1.0000 0.21796  0.23110  0.97591  Biso   1.000  Cl
  Cl2      1.0000 0.28204  0.76890  0.47591  Biso   1.000  Cl
  Cl3      1.0000 0.78204  0.73110  0.52409  Biso   1.000  Cl
  Cl4      1.0000 0.71796  0.26890  0.02409  Biso   1.000  Cl
  Cl5      1.0000 0.22847  0.82745  0.84017  Biso   1.000  Cl
  Cl6      1.0000 0.27153  0.17255  0.34017  Biso   1.000  Cl
  Cl7      1.0000 0.77153  0.32745  0.65983  Biso   1.000  Cl
  Cl8      1.0000 0.72847  0.67255  0.15983  Biso   1.000  Cl
  O1       1.0000 0.30360  0.13835  0.84037  Biso   1.000  O
  O2       1.0000 0.19640  0.86165  0.34037  Biso   1.000  O
  O3       1.0000 0.69640  0.63835  0.65963  Biso   1.000  O
  O4       1.0000 0.80360  0.36165  0.15963  Biso   1.000  O
  H1       1.0000 0.26900  0.06750  0.84860  Biso   1.000  H
  H2       1.0000 0.23100  0.93250  0.34860  Biso   1.000  H
  H3       1.0000 0.73100  0.56750  0.65140  Biso   1.000  H
  H4       1.0000 0.76900  0.43250  0.15140  Biso   1.000  H
  O5       1.0000 0.19950  0.91420  0.88253  Biso   1.000  O
  O6       1.0000 0.30050  0.08580  0.38253  Biso   1.000  O
  O7       1.0000 0.80050  0.41420  0.61747  Biso   1.000  O
  O8       1.0000 0.69950  0.58580  0.11747  Biso   1.000  O
  O9       1.0000 0.09380  0.73970  0.84997  Biso   1.000  O
  O10      1.0000 0.40620  0.26030  0.34997  Biso   1.000  O
  O11      1.0000 0.90620  0.23970  0.65003  Biso   1.000  O
  O12      1.0000 0.59380  0.76030  0.15003  Biso   1.000  O
  O13      1.0000 0.20760  0.87410  0.78339  Biso   1.000  O
  O14      1.0000 0.29240  0.12590  0.28339  Biso   1.000  O
  O15      1.0000 0.79240  0.37410  0.71661  Biso   1.000  O
  O16      1.0000 0.70760  0.62590  0.21661  Biso   1.000  O
  O17      1.0000 0.42020  0.78790  0.84702  Biso   1.000  O
  O18      1.0000 0.07980  0.21210  0.34702  Biso   1.000  O
  O19      1.0000 0.57980  0.28790  0.65298  Biso   1.000  O
  O20      1.0000 0.92020  0.71210  0.15298  Biso   1.000  O
  N1       1.0000 0.53730  0.34300  0.89305  Biso   1.000  N
  N2       1.0000 0.96270  0.65700  0.39305  Biso   1.000  N
  N3       1.0000 0.46270  0.84300  0.60695  Biso   1.000  N
  N4       1.0000 0.03730  0.15700  0.10695  Biso   1.000  N
  N5       1.0000 0.70830  0.14362  0.87069  Biso   1.000  N
  N6       1.0000 0.79170  0.85638  0.37069  Biso   1.000  N
  N7       1.0000 0.29170  0.64362  0.62931  Biso   1.000  N
  N8       1.0000 0.20830  0.35638  0.12931  Biso   1.000  N
  N9       1.0000 0.53560  0.04131  0.96135  Biso   1.000  N
  N10      1.0000 0.96440  0.95869  0.46135  Biso   1.000  N
  N11      1.0000 0.46440  0.54131  0.53865  Biso   1.000  N
  N12      1.0000 0.03560  0.45869  0.03865  Biso   1.000  N
  C1       1.0000 0.43570  0.43690  0.90501  Biso   1.000  C
  C2       1.0000 0.06430  0.56310  0.40501  Biso   1.000  C
  C3       1.0000 0.56430  0.93690  0.59499  Biso   1.000  C
  C4       1.0000 0.93570  0.06310  0.09499  Biso   1.000  C
  H5       1.0000 0.32240  0.43020  0.92610  Biso   1.000  H
  H6       1.0000 0.17760  0.56980  0.42610  Biso   1.000  H
  H7       1.0000 0.67760  0.93020  0.57390  Biso   1.000  H
  H8       1.0000 0.82240  0.06980  0.07390  Biso   1.000  H
  C5       1.0000 0.49390  0.54220  0.88706  Biso   1.000  C
  C6       1.0000 0.00610  0.45780  0.38706  Biso   1.000  C
  C7       1.0000 0.50610  0.04220  0.61294  Biso   1.000  C
  C8       1.0000 0.99390  0.95780  0.11294  Biso   1.000  C
  H9       1.0000 0.41880  0.60510  0.89480  Biso   1.000  H
  H10      1.0000 0.08120  0.39490  0.39480  Biso   1.000  H
  H11      1.0000 0.58120  0.10510  0.60520  Biso   1.000  H
  H12      1.0000 0.91880  0.89490  0.10520  Biso   1.000  H
  C9       1.0000 0.66510  0.55330  0.85736  Biso   1.000  C
  C10      1.0000 0.83490  0.44670  0.35736  Biso   1.000  C
  C11      1.0000 0.33490  0.05330  0.64264  Biso   1.000  C
  C12      1.0000 0.16510  0.94670  0.14264  Biso   1.000  C
  H13      1.0000 0.70880  0.62390  0.84590  Biso   1.000  H
  H14      1.0000 0.79120  0.37610  0.34590  Biso   1.000  H
  H15      1.0000 0.29120  0.12390  0.65410  Biso   1.000  H
  H16      1.0000 0.20880  0.87610  0.15410  Biso   1.000  H
  C13      1.0000 0.77090  0.45740  0.84485  Biso   1.000  C
  C14      1.0000 0.72910  0.54260  0.34485  Biso   1.000  C
  C15      1.0000 0.22910  0.95740  0.65515  Biso   1.000  C
  C16      1.0000 0.27090  0.04260  0.15515  Biso   1.000  C
  H17      1.0000 0.88600  0.46280  0.82460  Biso   1.000  H
  H18      1.0000 0.61400  0.53720  0.32460  Biso   1.000  H
  H19      1.0000 0.11400  0.96280  0.67540  Biso   1.000  H
  H20      1.0000 0.38600  0.03720  0.17540  Biso   1.000  H
  C17      1.0000 0.70240  0.35280  0.86311  Biso   1.000  C
  C18      1.0000 0.79760  0.64720  0.36311  Biso   1.000  C
  C19      1.0000 0.29760  0.85280  0.63689  Biso   1.000  C
  C20      1.0000 0.20240  0.14720  0.13689  Biso   1.000  C
  C21      1.0000 0.80990  0.24630  0.85001  Biso   1.000  C
  C22      1.0000 0.69010  0.75370  0.35001  Biso   1.000  C
  C23      1.0000 0.19010  0.74630  0.64999  Biso   1.000  C
  C24      1.0000 0.30990  0.25370  0.14999  Biso   1.000  C
  H21      1.0000 0.82990  0.24070  0.80800  Biso   1.000  H
  H22      1.0000 0.67010  0.75930  0.30800  Biso   1.000  H
  H23      1.0000 0.17010  0.74070  0.69200  Biso   1.000  H
  H24      1.0000 0.32990  0.25930  0.19200  Biso   1.000  H
  H25      1.0000 0.93450  0.24980  0.86860  Biso   1.000  H
  H26      1.0000 0.56550  0.75020  0.36860  Biso   1.000  H
  H27      1.0000 0.06550  0.74980  0.63140  Biso   1.000  H
  H28      1.0000 0.43450  0.25020  0.13140  Biso   1.000  H
  C25      1.0000 0.83230  0.07300  0.90911  Biso   1.000  C
  C26      1.0000 0.66770  0.92700  0.40911  Biso   1.000  C
  C27      1.0000 0.16770  0.57300  0.59089  Biso   1.000  C
  C28      1.0000 0.33230  0.42700  0.09089  Biso   1.000  C
  H29      1.0000 0.91160  0.12100  0.93340  Biso   1.000  H
  H30      1.0000 0.58840  0.87900  0.43340  Biso   1.000  H
  H31      1.0000 0.08840  0.62100  0.56660  Biso   1.000  H
  H32      1.0000 0.41160  0.37900  0.06660  Biso   1.000  H
  H33      1.0000 0.91560  0.02660  0.88520  Biso   1.000  H
  H34      1.0000 0.58440  0.97340  0.38520  Biso   1.000  H
  H35      1.0000 0.08440  0.52660  0.61480  Biso   1.000  H
  H36      1.0000 0.41560  0.47340  0.11480  Biso   1.000  H
  C29      1.0000 0.70930  0.99910  0.94731  Biso   1.000  C
  C30      1.0000 0.79070  0.00090  0.44731  Biso   1.000  C
  C31      1.0000 0.29070  0.49910  0.55269  Biso   1.000  C
  C32      1.0000 0.20930  0.50090  0.05269  Biso   1.000  C
  C33      1.0000 0.77450  0.89820  0.96950  Biso   1.000  C
  C34      1.0000 0.72550  0.10180  0.46950  Biso   1.000  C
  C35      1.0000 0.22550  0.39820  0.53050  Biso   1.000  C
  C36      1.0000 0.27450  0.60180  0.03050  Biso   1.000  C
  H37      1.0000 0.89210  0.86930  0.95790  Biso   1.000  H
  H38      1.0000 0.60790  0.13070  0.45790  Biso   1.000  H
  H39      1.0000 0.10790  0.36930  0.54210  Biso   1.000  H
  H40      1.0000 0.39210  0.63070  0.04210  Biso   1.000  H
  C37      1.0000 0.66130  0.84050  0.00951  Biso   1.000  C
  C38      1.0000 0.83870  0.15950  0.50951  Biso   1.000  C
  C39      1.0000 0.33870  0.34050  0.49049  Biso   1.000  C
  C40      1.0000 0.16130  0.65950  0.99049  Biso   1.000  C
  H41      1.0000 0.70330  0.77290  0.02560  Biso   1.000  H
  H42      1.0000 0.79670  0.22710  0.52560  Biso   1.000  H
  H43      1.0000 0.29670  0.27290  0.47440  Biso   1.000  H
  H44      1.0000 0.20330  0.72710  0.97440  Biso   1.000  H
  C41      1.0000 0.48540  0.88460  0.02524  Biso   1.000  C
  C42      1.0000 0.01460  0.11540  0.52524  Biso   1.000  C
  C43      1.0000 0.51460  0.38460  0.47476  Biso   1.000  C
  C44      1.0000 0.98540  0.61540  0.97476  Biso   1.000  C
  H45      1.0000 0.40880  0.84780  0.05250  Biso   1.000  H
  H46      1.0000 0.09120  0.15220  0.55250  Biso   1.000  H
  H47      1.0000 0.59120  0.34780  0.44750  Biso   1.000  H
  H48      1.0000 0.90880  0.65220  0.94750  Biso   1.000  H
  C45      1.0000 0.42560  0.98430  0.99970  Biso   1.000  C
  C46      1.0000 0.07440  0.01570  0.49970  Biso   1.000  C
  C47      1.0000 0.57440  0.48430  0.50030  Biso   1.000  C
  C48      1.0000 0.92560  0.51570  0.00030  Biso   1.000  C
  H49      1.0000 0.30580  0.01280  0.00930  Biso   1.000  H
  H50      1.0000 0.19420  0.98720  0.50930  Biso   1.000  H
  H51      1.0000 0.69420  0.51280  0.49070  Biso   1.000  H
  H52      1.0000 0.80580  0.48720  0.99070  Biso   1.000  H
  C49      1.0000 0.62830  0.07200  0.82160  Biso   1.000  C
  C50      1.0000 0.87170  0.92800  0.32160  Biso   1.000  C
  C51      1.0000 0.37170  0.57200  0.67840  Biso   1.000  C
  C52      1.0000 0.12830  0.42800  0.17840  Biso   1.000  C
  H53      1.0000 0.58810  0.00070  0.83940  Biso   1.000  H
  H54      1.0000 0.91190  0.99930  0.33940  Biso   1.000  H
  H55      1.0000 0.41190  0.50070  0.66060  Biso   1.000  H
  H56      1.0000 0.08810  0.49930  0.16060  Biso   1.000  H
  C53      1.0000 0.44910  0.12620  0.79700  Biso   1.000  C
  C54      1.0000 0.05090  0.87380  0.29700  Biso   1.000  C
  C55      1.0000 0.55090  0.62620  0.70300  Biso   1.000  C
  C56      1.0000 0.94910  0.37380  0.20300  Biso   1.000  C
  H57      1.0000 0.48110  0.19980  0.78140  Biso   1.000  H
  H58      1.0000 0.01890  0.80020  0.28140  Biso   1.000  H
  H59      1.0000 0.51890  0.69980  0.71860  Biso   1.000  H
  H60      1.0000 0.98110  0.30020  0.21860  Biso   1.000  H
  H61      1.0000 0.40070  0.08060  0.76500  Biso   1.000  H
  H62      1.0000 0.09930  0.91940  0.26500  Biso   1.000  H
  H63      1.0000 0.59930  0.58060  0.73500  Biso   1.000  H
  H64      1.0000 0.90070  0.41940  0.23500  Biso   1.000  H
  C57      1.0000 0.77220  0.04160  0.77305  Biso   1.000  C
  C58      1.0000 0.72780  0.95840  0.27305  Biso   1.000  C
  C59      1.0000 0.22780  0.54160  0.72695  Biso   1.000  C
  C60      1.0000 0.27220  0.45840  0.22695  Biso   1.000  C
  H65      1.0000 0.76540  0.09710  0.74190  Biso   1.000  H
  H66      1.0000 0.73460  0.90290  0.24190  Biso   1.000  H
  H67      1.0000 0.23460  0.59710  0.75810  Biso   1.000  H
  H68      1.0000 0.26540  0.40290  0.25810  Biso   1.000  H
  H69      1.0000 0.90090  0.04240  0.78890  Biso   1.000  H
  H70      1.0000 0.59910  0.95760  0.28890  Biso   1.000  H
  H71      1.0000 0.09910  0.54240  0.71110  Biso   1.000  H
  H72      1.0000 0.40090  0.45760  0.21110  Biso   1.000  H
  C61      1.0000 0.72670  0.92440  0.74835  Biso   1.000  C
  C62      1.0000 0.77330  0.07560  0.24835  Biso   1.000  C
  C63      1.0000 0.27330  0.42440  0.75165  Biso   1.000  C
  C64      1.0000 0.22670  0.57560  0.25165  Biso   1.000  C
  H73      1.0000 0.59510  0.92160  0.73640  Biso   1.000  H
  H74      1.0000 0.90490  0.07840  0.23640  Biso   1.000  H
  H75      1.0000 0.40490  0.42160  0.76360  Biso   1.000  H
  H76      1.0000 0.09510  0.57840  0.26360  Biso   1.000  H
  H77      1.0000 0.74910  0.86860  0.77800  Biso   1.000  H
  H78      1.0000 0.75090  0.13140  0.27800  Biso   1.000  H
  H79      1.0000 0.25090  0.36860  0.72200  Biso   1.000  H
  H80      1.0000 0.24910  0.63140  0.22200  Biso   1.000  H
  H81      1.0000 0.80730  0.90960  0.71520  Biso   1.000  H
  H82      1.0000 0.69270  0.09040  0.21520  Biso   1.000  H
  H83      1.0000 0.19270  0.40960  0.78480  Biso   1.000  H
  H84      1.0000 0.30730  0.59040  0.28480  Biso   1.000  H
