data_image0
_cell_length_a       14.368
_cell_length_b       25.739
_cell_length_c       14.813
_cell_angle_alpha    90
_cell_angle_beta     90
_cell_angle_gamma    90

_symmetry_space_group_name_H-M    "P 1"
_symmetry_int_tables_number       1

loop_
  _symmetry_equiv_pos_as_xyz
  'x, y, z'

loop_
  _atom_site_label
  _atom_site_occupancy
  _atom_site_fract_x
  _atom_site_fract_y
  _atom_site_fract_z
  _atom_site_thermal_displace_type
  _atom_site_B_iso_or_equiv
  _atom_site_type_symbol
  Cu1      1.0000 0.20597  0.70069  0.32699  Biso   1.000  Cu
  Cu2      1.0000 0.29403  0.79931  0.82699  Biso   1.000  Cu
  Cu3      1.0000 0.79403  0.70069  0.17301  Biso   1.000  Cu
  Cu4      1.0000 0.70597  0.79931  0.67301  Biso   1.000  Cu
  Cu5      1.0000 0.79403  0.29931  0.67301  Biso   1.000  Cu
  Cu6      1.0000 0.70597  0.20069  0.17301  Biso   1.000  Cu
  Cu7      1.0000 0.20597  0.29931  0.82699  Biso   1.000  Cu
  Cu8      1.0000 0.29403  0.20069  0.32699  Biso   1.000  Cu
  Cu9      1.0000 0.50000  0.00000  0.50000  Biso   1.000  Cu
  Cu10     1.0000 0.00000  0.50000  0.00000  Biso   1.000  Cu
  Cu11     1.0000 0.50000  0.00000  0.00000  Biso   1.000  Cu
  Cu12     1.0000 0.00000  0.50000  0.50000  Biso   1.000  Cu
  V1       1.0000 0.09900  0.70402  0.53504  Biso   1.000  V
  V2       1.0000 0.40100  0.79598  0.03504  Biso   1.000  V
  V3       1.0000 0.90100  0.70402  0.96496  Biso   1.000  V
  V4       1.0000 0.59900  0.79598  0.46496  Biso   1.000  V
  V5       1.0000 0.90100  0.29598  0.46496  Biso   1.000  V
  V6       1.0000 0.59900  0.20402  0.96496  Biso   1.000  V
  V7       1.0000 0.09900  0.29598  0.03504  Biso   1.000  V
  V8       1.0000 0.40100  0.20402  0.53504  Biso   1.000  V
  V9       1.0000 0.29573  0.68850  0.11185  Biso   1.000  V
  V10      1.0000 0.20427  0.81150  0.61185  Biso   1.000  V
  V11      1.0000 0.70427  0.68850  0.38815  Biso   1.000  V
  V12      1.0000 0.79573  0.81150  0.88815  Biso   1.000  V
  V13      1.0000 0.70427  0.31150  0.88815  Biso   1.000  V
  V14      1.0000 0.79573  0.18850  0.38815  Biso   1.000  V
  V15      1.0000 0.29573  0.31150  0.61185  Biso   1.000  V
  V16      1.0000 0.20427  0.18850  0.11185  Biso   1.000  V
  V17      1.0000 0.36393  0.81034  0.44779  Biso   1.000  V
  V18      1.0000 0.13607  0.68966  0.94779  Biso   1.000  V
  V19      1.0000 0.63607  0.81034  0.05221  Biso   1.000  V
  V20      1.0000 0.86393  0.68966  0.55221  Biso   1.000  V
  V21      1.0000 0.63607  0.18966  0.55221  Biso   1.000  V
  V22      1.0000 0.86393  0.31034  0.05221  Biso   1.000  V
  V23      1.0000 0.36393  0.18966  0.94779  Biso   1.000  V
  V24      1.0000 0.13607  0.31034  0.44779  Biso   1.000  V
  V25      1.0000 0.58242  0.08352  0.66602  Biso   1.000  V
  V26      1.0000 0.91758  0.41648  0.16602  Biso   1.000  V
  V27      1.0000 0.41758  0.08352  0.83398  Biso   1.000  V
  V28      1.0000 0.08242  0.41648  0.33398  Biso   1.000  V
  V29      1.0000 0.41758  0.91648  0.33398  Biso   1.000  V
  V30      1.0000 0.08242  0.58352  0.83398  Biso   1.000  V
  V31      1.0000 0.58242  0.91648  0.16602  Biso   1.000  V
  V32      1.0000 0.91758  0.58352  0.66602  Biso   1.000  V
  O1       1.0000 0.13310  0.77002  0.54440  Biso   1.000  O
  O2       1.0000 0.36690  0.72998  0.04440  Biso   1.000  O
  O3       1.0000 0.86690  0.77002  0.95560  Biso   1.000  O
  O4       1.0000 0.63310  0.72998  0.45560  Biso   1.000  O
  O5       1.0000 0.86690  0.22998  0.45560  Biso   1.000  O
  O6       1.0000 0.63310  0.27002  0.95560  Biso   1.000  O
  O7       1.0000 0.13310  0.22998  0.04440  Biso   1.000  O
  O8       1.0000 0.36690  0.27002  0.54440  Biso   1.000  O
  O9       1.0000 0.13320  0.67140  0.62370  Biso   1.000  O
  O10      1.0000 0.36680  0.82860  0.12370  Biso   1.000  O
  O11      1.0000 0.86680  0.67140  0.87630  Biso   1.000  O
  O12      1.0000 0.63320  0.82860  0.37630  Biso   1.000  O
  O13      1.0000 0.86680  0.32860  0.37630  Biso   1.000  O
  O14      1.0000 0.63320  0.17140  0.87630  Biso   1.000  O
  O15      1.0000 0.13320  0.32860  0.12370  Biso   1.000  O
  O16      1.0000 0.36680  0.17140  0.62370  Biso   1.000  O
  O17      1.0000 0.14140  0.67816  0.43700  Biso   1.000  O
  O18      1.0000 0.35860  0.82184  0.93700  Biso   1.000  O
  O19      1.0000 0.85860  0.67816  0.06300  Biso   1.000  O
  O20      1.0000 0.64140  0.82184  0.56300  Biso   1.000  O
  O21      1.0000 0.85860  0.32184  0.56300  Biso   1.000  O
  O22      1.0000 0.64140  0.17816  0.06300  Biso   1.000  O
  O23      1.0000 0.14140  0.32184  0.93700  Biso   1.000  O
  O24      1.0000 0.35860  0.17816  0.43700  Biso   1.000  O
  O25      1.0000 0.26190  0.71718  0.20940  Biso   1.000  O
  O26      1.0000 0.23810  0.78282  0.70940  Biso   1.000  O
  O27      1.0000 0.73810  0.71718  0.29060  Biso   1.000  O
  O28      1.0000 0.76190  0.78282  0.79060  Biso   1.000  O
  O29      1.0000 0.73810  0.28282  0.79060  Biso   1.000  O
  O30      1.0000 0.76190  0.21718  0.29060  Biso   1.000  O
  O31      1.0000 0.26190  0.28282  0.70940  Biso   1.000  O
  O32      1.0000 0.23810  0.21718  0.20940  Biso   1.000  O
  O33      1.0000 0.34990  0.63628  0.13740  Biso   1.000  O
  O34      1.0000 0.15010  0.86372  0.63740  Biso   1.000  O
  O35      1.0000 0.65010  0.63628  0.36260  Biso   1.000  O
  O36      1.0000 0.84990  0.86372  0.86260  Biso   1.000  O
  O37      1.0000 0.65010  0.36372  0.86260  Biso   1.000  O
  O38      1.0000 0.84990  0.13628  0.36260  Biso   1.000  O
  O39      1.0000 0.34990  0.36372  0.63740  Biso   1.000  O
  O40      1.0000 0.15010  0.13628  0.13740  Biso   1.000  O
  O41      1.0000 0.30800  0.83091  0.54860  Biso   1.000  O
  O42      1.0000 0.19200  0.66909  0.04860  Biso   1.000  O
  O43      1.0000 0.69200  0.83091  0.95140  Biso   1.000  O
  O44      1.0000 0.80800  0.66909  0.45140  Biso   1.000  O
  O45      1.0000 0.69200  0.16909  0.45140  Biso   1.000  O
  O46      1.0000 0.80800  0.33091  0.95140  Biso   1.000  O
  O47      1.0000 0.30800  0.16909  0.04860  Biso   1.000  O
  O48      1.0000 0.19200  0.33091  0.54860  Biso   1.000  O
  O49      1.0000 0.47610  0.79934  0.47340  Biso   1.000  O
  O50      1.0000 0.02390  0.70066  0.97340  Biso   1.000  O
  O51      1.0000 0.52390  0.79934  0.02660  Biso   1.000  O
  O52      1.0000 0.97610  0.70066  0.52660  Biso   1.000  O
  O53      1.0000 0.52390  0.20066  0.52660  Biso   1.000  O
  O54      1.0000 0.97610  0.29934  0.02660  Biso   1.000  O
  O55      1.0000 0.47610  0.20066  0.97340  Biso   1.000  O
  O56      1.0000 0.02390  0.29934  0.47340  Biso   1.000  O
  O57      1.0000 0.31760  0.75757  0.41000  Biso   1.000  O
  O58      1.0000 0.18240  0.74243  0.91000  Biso   1.000  O
  O59      1.0000 0.68240  0.75757  0.09000  Biso   1.000  O
  O60      1.0000 0.81760  0.74243  0.59000  Biso   1.000  O
  O61      1.0000 0.68240  0.24243  0.59000  Biso   1.000  O
  O62      1.0000 0.81760  0.25757  0.09000  Biso   1.000  O
  O63      1.0000 0.31760  0.24243  0.91000  Biso   1.000  O
  O64      1.0000 0.18240  0.25757  0.41000  Biso   1.000  O
  O65      1.0000 0.64690  0.14109  0.63710  Biso   1.000  O
  O66      1.0000 0.85310  0.35891  0.13710  Biso   1.000  O
  O67      1.0000 0.35310  0.14109  0.86290  Biso   1.000  O
  O68      1.0000 0.14690  0.35891  0.36290  Biso   1.000  O
  O69      1.0000 0.35310  0.85891  0.36290  Biso   1.000  O
  O70      1.0000 0.14690  0.64109  0.86290  Biso   1.000  O
  O71      1.0000 0.64690  0.85891  0.13710  Biso   1.000  O
  O72      1.0000 0.85310  0.64109  0.63710  Biso   1.000  O
  O73      1.0000 0.50000  0.90060  0.25000  Biso   1.000  O
  O74      1.0000 0.00000  0.59940  0.75000  Biso   1.000  O
  O75      1.0000 0.50000  0.09940  0.75000  Biso   1.000  O
  O76      1.0000 0.00000  0.40060  0.25000  Biso   1.000  O
  O77      1.0000 0.64720  0.03845  0.70680  Biso   1.000  O
  O78      1.0000 0.85280  0.46155  0.20680  Biso   1.000  O
  O79      1.0000 0.35280  0.03845  0.79320  Biso   1.000  O
  O80      1.0000 0.14720  0.46155  0.29320  Biso   1.000  O
  O81      1.0000 0.35280  0.96155  0.29320  Biso   1.000  O
  O82      1.0000 0.14720  0.53845  0.79320  Biso   1.000  O
  O83      1.0000 0.64720  0.96155  0.20680  Biso   1.000  O
  O84      1.0000 0.85280  0.53845  0.70680  Biso   1.000  O
  O85      1.0000 0.53190  0.06117  0.57000  Biso   1.000  O
  O86      1.0000 0.96810  0.43883  0.07000  Biso   1.000  O
  O87      1.0000 0.46810  0.06117  0.93000  Biso   1.000  O
  O88      1.0000 0.03190  0.43883  0.43000  Biso   1.000  O
  O89      1.0000 0.46810  0.93883  0.43000  Biso   1.000  O
  O90      1.0000 0.03190  0.56117  0.93000  Biso   1.000  O
  O91      1.0000 0.53190  0.93883  0.07000  Biso   1.000  O
  O92      1.0000 0.96810  0.56117  0.57000  Biso   1.000  O
  O93      1.0000 0.08860  0.65030  0.22110  Biso   1.000  O
  O94      1.0000 0.41140  0.84970  0.72110  Biso   1.000  O
  O95      1.0000 0.91140  0.65030  0.27890  Biso   1.000  O
  O96      1.0000 0.58860  0.84970  0.77890  Biso   1.000  O
  O97      1.0000 0.91140  0.34970  0.77890  Biso   1.000  O
  O98      1.0000 0.58860  0.15030  0.27890  Biso   1.000  O
  O99      1.0000 0.08860  0.34970  0.72110  Biso   1.000  O
  O100     1.0000 0.41140  0.15030  0.22110  Biso   1.000  O
  O101     1.0000 0.47690  0.06810  0.38250  Biso   1.000  O
  O102     1.0000 0.02310  0.43190  0.88250  Biso   1.000  O
  O103     1.0000 0.52310  0.06810  0.11750  Biso   1.000  O
  O104     1.0000 0.97690  0.43190  0.61750  Biso   1.000  O
  O105     1.0000 0.52310  0.93190  0.61750  Biso   1.000  O
  O106     1.0000 0.97690  0.56810  0.11750  Biso   1.000  O
  O107     1.0000 0.47690  0.93190  0.88250  Biso   1.000  O
  O108     1.0000 0.02310  0.56810  0.38250  Biso   1.000  O
  C1       1.0000 0.05150  0.77370  0.35190  Biso   1.000  C
  C2       1.0000 0.44850  0.72630  0.85190  Biso   1.000  C
  C3       1.0000 0.94850  0.77370  0.14810  Biso   1.000  C
  C4       1.0000 0.55150  0.72630  0.64810  Biso   1.000  C
  C5       1.0000 0.94850  0.22630  0.64810  Biso   1.000  C
  C6       1.0000 0.55150  0.27370  0.14810  Biso   1.000  C
  C7       1.0000 0.05150  0.22630  0.85190  Biso   1.000  C
  C8       1.0000 0.44850  0.27370  0.35190  Biso   1.000  C
  H1       1.0000 0.01710  0.74430  0.36680  Biso   1.000  H
  H2       1.0000 0.48290  0.75570  0.86680  Biso   1.000  H
  H3       1.0000 0.98290  0.74430  0.13320  Biso   1.000  H
  H4       1.0000 0.51710  0.75570  0.63320  Biso   1.000  H
  H5       1.0000 0.98290  0.25570  0.63320  Biso   1.000  H
  H6       1.0000 0.51710  0.24430  0.13320  Biso   1.000  H
  H7       1.0000 0.01710  0.25570  0.86680  Biso   1.000  H
  H8       1.0000 0.48290  0.24430  0.36680  Biso   1.000  H
  C9       1.0000 0.01350  0.82185  0.36780  Biso   1.000  C
  C10      1.0000 0.48650  0.67815  0.86780  Biso   1.000  C
  C11      1.0000 0.98650  0.82185  0.13220  Biso   1.000  C
  C12      1.0000 0.51350  0.67815  0.63220  Biso   1.000  C
  C13      1.0000 0.98650  0.17815  0.63220  Biso   1.000  C
  C14      1.0000 0.51350  0.32185  0.13220  Biso   1.000  C
  C15      1.0000 0.01350  0.17815  0.86780  Biso   1.000  C
  C16      1.0000 0.48650  0.32185  0.36780  Biso   1.000  C
  H9       1.0000 0.95470  0.82460  0.39370  Biso   1.000  H
  H10      1.0000 0.54530  0.67540  0.89370  Biso   1.000  H
  H11      1.0000 0.04530  0.82460  0.10630  Biso   1.000  H
  H12      1.0000 0.45470  0.67540  0.60630  Biso   1.000  H
  H13      1.0000 0.04530  0.17540  0.60630  Biso   1.000  H
  H14      1.0000 0.45470  0.32460  0.10630  Biso   1.000  H
  H15      1.0000 0.95470  0.17540  0.89370  Biso   1.000  H
  H16      1.0000 0.54530  0.32460  0.39370  Biso   1.000  H
  C17      1.0000 0.06270  0.86628  0.34520  Biso   1.000  C
  C18      1.0000 0.43730  0.63372  0.84520  Biso   1.000  C
  C19      1.0000 0.93730  0.86628  0.15480  Biso   1.000  C
  C20      1.0000 0.56270  0.63372  0.65480  Biso   1.000  C
  C21      1.0000 0.93730  0.13372  0.65480  Biso   1.000  C
  C22      1.0000 0.56270  0.36628  0.15480  Biso   1.000  C
  C23      1.0000 0.06270  0.13372  0.84520  Biso   1.000  C
  C24      1.0000 0.43730  0.36628  0.34520  Biso   1.000  C
  C25      1.0000 0.14740  0.86006  0.30500  Biso   1.000  C
  C26      1.0000 0.35260  0.63994  0.80500  Biso   1.000  C
  C27      1.0000 0.85260  0.86006  0.19500  Biso   1.000  C
  C28      1.0000 0.64740  0.63994  0.69500  Biso   1.000  C
  C29      1.0000 0.85260  0.13994  0.69500  Biso   1.000  C
  C30      1.0000 0.64740  0.36006  0.19500  Biso   1.000  C
  C31      1.0000 0.14740  0.13994  0.80500  Biso   1.000  C
  C32      1.0000 0.35260  0.36006  0.30500  Biso   1.000  C
  H17      1.0000 0.18210  0.88880  0.28740  Biso   1.000  H
  H18      1.0000 0.31790  0.61120  0.78740  Biso   1.000  H
  H19      1.0000 0.81790  0.88880  0.21260  Biso   1.000  H
  H20      1.0000 0.68210  0.61120  0.71260  Biso   1.000  H
  H21      1.0000 0.81790  0.11120  0.71260  Biso   1.000  H
  H22      1.0000 0.68210  0.38880  0.21260  Biso   1.000  H
  H23      1.0000 0.18210  0.11120  0.78740  Biso   1.000  H
  H24      1.0000 0.31790  0.38880  0.28740  Biso   1.000  H
  C33      1.0000 0.18070  0.81060  0.29090  Biso   1.000  C
  C34      1.0000 0.31930  0.68940  0.79090  Biso   1.000  C
  C35      1.0000 0.81930  0.81060  0.20910  Biso   1.000  C
  C36      1.0000 0.68070  0.68940  0.70910  Biso   1.000  C
  C37      1.0000 0.81930  0.18940  0.70910  Biso   1.000  C
  C38      1.0000 0.68070  0.31060  0.20910  Biso   1.000  C
  C39      1.0000 0.18070  0.18940  0.79090  Biso   1.000  C
  C40      1.0000 0.31930  0.31060  0.29090  Biso   1.000  C
  H25      1.0000 0.23780  0.80670  0.26220  Biso   1.000  H
  H26      1.0000 0.26220  0.69330  0.76220  Biso   1.000  H
  H27      1.0000 0.76220  0.80670  0.23780  Biso   1.000  H
  H28      1.0000 0.73780  0.69330  0.73780  Biso   1.000  H
  H29      1.0000 0.76220  0.19330  0.73780  Biso   1.000  H
  H30      1.0000 0.73780  0.30670  0.23780  Biso   1.000  H
  H31      1.0000 0.23780  0.19330  0.76220  Biso   1.000  H
  H32      1.0000 0.26220  0.30670  0.26220  Biso   1.000  H
  C41      1.0000 0.02520  0.91879  0.36110  Biso   1.000  C
  C42      1.0000 0.47480  0.58121  0.86110  Biso   1.000  C
  C43      1.0000 0.97480  0.91879  0.13890  Biso   1.000  C
  C44      1.0000 0.52520  0.58121  0.63890  Biso   1.000  C
  C45      1.0000 0.97480  0.08121  0.63890  Biso   1.000  C
  C46      1.0000 0.52520  0.41879  0.13890  Biso   1.000  C
  C47      1.0000 0.02520  0.08121  0.86110  Biso   1.000  C
  C48      1.0000 0.47480  0.41879  0.36110  Biso   1.000  C
  C49      1.0000 0.24680  0.09108  0.33290  Biso   1.000  C
  C50      1.0000 0.25320  0.40892  0.83290  Biso   1.000  C
  C51      1.0000 0.75320  0.09108  0.16710  Biso   1.000  C
  C52      1.0000 0.74680  0.40892  0.66710  Biso   1.000  C
  C53      1.0000 0.75320  0.90892  0.66710  Biso   1.000  C
  C54      1.0000 0.74680  0.59108  0.16710  Biso   1.000  C
  C55      1.0000 0.24680  0.90892  0.83290  Biso   1.000  C
  C56      1.0000 0.25320  0.59108  0.33290  Biso   1.000  C
  H33      1.0000 0.31060  0.08730  0.32420  Biso   1.000  H
  H34      1.0000 0.18940  0.41270  0.82420  Biso   1.000  H
  H35      1.0000 0.68940  0.08730  0.17580  Biso   1.000  H
  H36      1.0000 0.81060  0.41270  0.67580  Biso   1.000  H
  H37      1.0000 0.68940  0.91270  0.67580  Biso   1.000  H
  H38      1.0000 0.81060  0.58730  0.17580  Biso   1.000  H
  H39      1.0000 0.31060  0.91270  0.82420  Biso   1.000  H
  H40      1.0000 0.18940  0.58730  0.32420  Biso   1.000  H
  C57      1.0000 0.19370  0.04713  0.33740  Biso   1.000  C
  C58      1.0000 0.30630  0.45287  0.83740  Biso   1.000  C
  C59      1.0000 0.80630  0.04713  0.16260  Biso   1.000  C
  C60      1.0000 0.69370  0.45287  0.66260  Biso   1.000  C
  C61      1.0000 0.80630  0.95287  0.66260  Biso   1.000  C
  C62      1.0000 0.69370  0.54713  0.16260  Biso   1.000  C
  C63      1.0000 0.19370  0.95287  0.83740  Biso   1.000  C
  C64      1.0000 0.30630  0.54713  0.33740  Biso   1.000  C
  H41      1.0000 0.22010  0.01440  0.32980  Biso   1.000  H
  H42      1.0000 0.27990  0.48560  0.82980  Biso   1.000  H
  H43      1.0000 0.77990  0.01440  0.17020  Biso   1.000  H
  H44      1.0000 0.72010  0.48560  0.67020  Biso   1.000  H
  H45      1.0000 0.77990  0.98560  0.67020  Biso   1.000  H
  H46      1.0000 0.72010  0.51440  0.17020  Biso   1.000  H
  H47      1.0000 0.22010  0.98560  0.82980  Biso   1.000  H
  H48      1.0000 0.27990  0.51440  0.32980  Biso   1.000  H
  C65      1.0000 0.10160  0.05255  0.35340  Biso   1.000  C
  C66      1.0000 0.39840  0.44745  0.85340  Biso   1.000  C
  C67      1.0000 0.89840  0.05255  0.14660  Biso   1.000  C
  C68      1.0000 0.60160  0.44745  0.64660  Biso   1.000  C
  C69      1.0000 0.89840  0.94745  0.64660  Biso   1.000  C
  C70      1.0000 0.60160  0.55255  0.14660  Biso   1.000  C
  C71      1.0000 0.10160  0.94745  0.85340  Biso   1.000  C
  C72      1.0000 0.39840  0.55255  0.35340  Biso   1.000  C
  C73      1.0000 0.06580  0.10231  0.36000  Biso   1.000  C
  C74      1.0000 0.43420  0.39769  0.86000  Biso   1.000  C
  C75      1.0000 0.93420  0.10231  0.14000  Biso   1.000  C
  C76      1.0000 0.56580  0.39769  0.64000  Biso   1.000  C
  C77      1.0000 0.93420  0.89769  0.64000  Biso   1.000  C
  C78      1.0000 0.56580  0.60231  0.14000  Biso   1.000  C
  C79      1.0000 0.06580  0.89769  0.86000  Biso   1.000  C
  C80      1.0000 0.43420  0.60231  0.36000  Biso   1.000  C
  H49      1.0000 0.00240  0.10720  0.36950  Biso   1.000  H
  H50      1.0000 0.49760  0.39280  0.86950  Biso   1.000  H
  H51      1.0000 0.99760  0.10720  0.13050  Biso   1.000  H
  H52      1.0000 0.50240  0.39280  0.63050  Biso   1.000  H
  H53      1.0000 0.99760  0.89280  0.63050  Biso   1.000  H
  H54      1.0000 0.50240  0.60720  0.13050  Biso   1.000  H
  H55      1.0000 0.00240  0.89280  0.86950  Biso   1.000  H
  H56      1.0000 0.49760  0.60720  0.36950  Biso   1.000  H
  C81      1.0000 0.12370  0.14436  0.35260  Biso   1.000  C
  C82      1.0000 0.37630  0.35564  0.85260  Biso   1.000  C
  C83      1.0000 0.87630  0.14436  0.14740  Biso   1.000  C
  C84      1.0000 0.62370  0.35564  0.64740  Biso   1.000  C
  C85      1.0000 0.87630  0.85564  0.64740  Biso   1.000  C
  C86      1.0000 0.62370  0.64436  0.14740  Biso   1.000  C
  C87      1.0000 0.12370  0.85564  0.85260  Biso   1.000  C
  C88      1.0000 0.37630  0.64436  0.35260  Biso   1.000  C
  H57      1.0000 0.09870  0.17760  0.35650  Biso   1.000  H
  H58      1.0000 0.40130  0.32240  0.85650  Biso   1.000  H
  H59      1.0000 0.90130  0.17760  0.14350  Biso   1.000  H
  H60      1.0000 0.59870  0.32240  0.64350  Biso   1.000  H
  H61      1.0000 0.90130  0.82240  0.64350  Biso   1.000  H
  H62      1.0000 0.59870  0.67760  0.14350  Biso   1.000  H
  H63      1.0000 0.09870  0.82240  0.85650  Biso   1.000  H
  H64      1.0000 0.40130  0.67760  0.35650  Biso   1.000  H
  C89      1.0000 0.04300  0.00578  0.36220  Biso   1.000  C
  C90      1.0000 0.45700  0.49422  0.86220  Biso   1.000  C
  C91      1.0000 0.95700  0.00578  0.13780  Biso   1.000  C
  C92      1.0000 0.54300  0.49422  0.63780  Biso   1.000  C
  C93      1.0000 0.95700  0.99422  0.63780  Biso   1.000  C
  C94      1.0000 0.54300  0.50578  0.13780  Biso   1.000  C
  C95      1.0000 0.04300  0.99422  0.86220  Biso   1.000  C
  C96      1.0000 0.45700  0.50578  0.36220  Biso   1.000  C
  C97      1.0000 0.90660  0.97073  0.39430  Biso   1.000  C
  C98      1.0000 0.59340  0.52927  0.89430  Biso   1.000  C
  C99      1.0000 0.09340  0.97073  0.10570  Biso   1.000  C
  C100     1.0000 0.40660  0.52927  0.60570  Biso   1.000  C
  C101     1.0000 0.09340  0.02927  0.60570  Biso   1.000  C
  C102     1.0000 0.40660  0.47073  0.10570  Biso   1.000  C
  C103     1.0000 0.90660  0.02927  0.89430  Biso   1.000  C
  C104     1.0000 0.59340  0.47073  0.39430  Biso   1.000  C
  C105     1.0000 0.66300  0.94362  0.44770  Biso   1.000  C
  C106     1.0000 0.83700  0.55638  0.94770  Biso   1.000  C
  C107     1.0000 0.33700  0.94362  0.05230  Biso   1.000  C
  C108     1.0000 0.16300  0.55638  0.55230  Biso   1.000  C
  C109     1.0000 0.33700  0.05638  0.55230  Biso   1.000  C
  C110     1.0000 0.16300  0.44362  0.05230  Biso   1.000  C
  C111     1.0000 0.66300  0.05638  0.94770  Biso   1.000  C
  C112     1.0000 0.83700  0.44362  0.44770  Biso   1.000  C
  H65      1.0000 0.62340  0.91530  0.45410  Biso   1.000  H
  H66      1.0000 0.87660  0.58470  0.95410  Biso   1.000  H
  H67      1.0000 0.37660  0.91530  0.04590  Biso   1.000  H
  H68      1.0000 0.12340  0.58470  0.54590  Biso   1.000  H
  H69      1.0000 0.37660  0.08470  0.54590  Biso   1.000  H
  H70      1.0000 0.12340  0.41530  0.04590  Biso   1.000  H
  H71      1.0000 0.62340  0.08470  0.95410  Biso   1.000  H
  H72      1.0000 0.87660  0.41530  0.45410  Biso   1.000  H
  C113     1.0000 0.75240  0.93509  0.42510  Biso   1.000  C
  C114     1.0000 0.74760  0.56491  0.92510  Biso   1.000  C
  C115     1.0000 0.24760  0.93509  0.07490  Biso   1.000  C
  C116     1.0000 0.25240  0.56491  0.57490  Biso   1.000  C
  C117     1.0000 0.24760  0.06491  0.57490  Biso   1.000  C
  C118     1.0000 0.25240  0.43509  0.07490  Biso   1.000  C
  C119     1.0000 0.75240  0.06491  0.92510  Biso   1.000  C
  C120     1.0000 0.74760  0.43509  0.42510  Biso   1.000  C
  H73      1.0000 0.77460  0.90160  0.41600  Biso   1.000  H
  H74      1.0000 0.72540  0.59840  0.91600  Biso   1.000  H
  H75      1.0000 0.22540  0.90160  0.08400  Biso   1.000  H
  H76      1.0000 0.27460  0.59840  0.58400  Biso   1.000  H
  H77      1.0000 0.22540  0.09840  0.58400  Biso   1.000  H
  H78      1.0000 0.27460  0.40160  0.08400  Biso   1.000  H
  H79      1.0000 0.77460  0.09840  0.91600  Biso   1.000  H
  H80      1.0000 0.72540  0.40160  0.41600  Biso   1.000  H
  C121     1.0000 0.81000  0.97754  0.41580  Biso   1.000  C
  C122     1.0000 0.69000  0.52246  0.91580  Biso   1.000  C
  C123     1.0000 0.19000  0.97754  0.08420  Biso   1.000  C
  C124     1.0000 0.31000  0.52246  0.58420  Biso   1.000  C
  C125     1.0000 0.19000  0.02246  0.58420  Biso   1.000  C
  C126     1.0000 0.31000  0.47754  0.08420  Biso   1.000  C
  C127     1.0000 0.81000  0.02246  0.91580  Biso   1.000  C
  C128     1.0000 0.69000  0.47754  0.41580  Biso   1.000  C
  C129     1.0000 0.77350  0.02679  0.42740  Biso   1.000  C
  C130     1.0000 0.72650  0.47321  0.92740  Biso   1.000  C
  C131     1.0000 0.22650  0.02679  0.07260  Biso   1.000  C
  C132     1.0000 0.27350  0.47321  0.57260  Biso   1.000  C
  C133     1.0000 0.22650  0.97321  0.57260  Biso   1.000  C
  C134     1.0000 0.27350  0.52679  0.07260  Biso   1.000  C
  C135     1.0000 0.77350  0.97321  0.92740  Biso   1.000  C
  C136     1.0000 0.72650  0.52679  0.42740  Biso   1.000  C
  H81      1.0000 0.81090  0.05590  0.41950  Biso   1.000  H
  H82      1.0000 0.68910  0.44410  0.91950  Biso   1.000  H
  H83      1.0000 0.18910  0.05590  0.08050  Biso   1.000  H
  H84      1.0000 0.31090  0.44410  0.58050  Biso   1.000  H
  H85      1.0000 0.18910  0.94410  0.58050  Biso   1.000  H
  H86      1.0000 0.31090  0.55590  0.08050  Biso   1.000  H
  H87      1.0000 0.81090  0.94410  0.91950  Biso   1.000  H
  H88      1.0000 0.68910  0.55590  0.41950  Biso   1.000  H
  C137     1.0000 0.68440  0.03213  0.44990  Biso   1.000  C
  C138     1.0000 0.81560  0.46787  0.94990  Biso   1.000  C
  C139     1.0000 0.31560  0.03213  0.05010  Biso   1.000  C
  C140     1.0000 0.18440  0.46787  0.55010  Biso   1.000  C
  C141     1.0000 0.31560  0.96787  0.55010  Biso   1.000  C
  C142     1.0000 0.18440  0.53213  0.05010  Biso   1.000  C
  C143     1.0000 0.68440  0.96787  0.94990  Biso   1.000  C
  C144     1.0000 0.81560  0.53213  0.44990  Biso   1.000  C
  H89      1.0000 0.66010  0.06530  0.45790  Biso   1.000  H
  H90      1.0000 0.83990  0.43470  0.95790  Biso   1.000  H
  H91      1.0000 0.33990  0.06530  0.04210  Biso   1.000  H
  H92      1.0000 0.16010  0.43470  0.54210  Biso   1.000  H
  H93      1.0000 0.33990  0.93470  0.54210  Biso   1.000  H
  H94      1.0000 0.16010  0.56530  0.04210  Biso   1.000  H
  H95      1.0000 0.66010  0.93470  0.95790  Biso   1.000  H
  H96      1.0000 0.83990  0.56530  0.45790  Biso   1.000  H
  N1       1.0000 0.13470  0.76760  0.31650  Biso   1.000  N
  N2       1.0000 0.36530  0.73240  0.81650  Biso   1.000  N
  N3       1.0000 0.86530  0.76760  0.18350  Biso   1.000  N
  N4       1.0000 0.63470  0.73240  0.68350  Biso   1.000  N
  N5       1.0000 0.86530  0.23240  0.68350  Biso   1.000  N
  N6       1.0000 0.63470  0.26760  0.18350  Biso   1.000  N
  N7       1.0000 0.13470  0.23240  0.81650  Biso   1.000  N
  N8       1.0000 0.36530  0.26760  0.31650  Biso   1.000  N
  N9       1.0000 0.93770  0.92191  0.38500  Biso   1.000  N
  N10      1.0000 0.56230  0.57809  0.88500  Biso   1.000  N
  N11      1.0000 0.06230  0.92191  0.11500  Biso   1.000  N
  N12      1.0000 0.43770  0.57809  0.61500  Biso   1.000  N
  N13      1.0000 0.06230  0.07809  0.61500  Biso   1.000  N
  N14      1.0000 0.43770  0.42191  0.11500  Biso   1.000  N
  N15      1.0000 0.93770  0.07809  0.88500  Biso   1.000  N
  N16      1.0000 0.56230  0.42191  0.38500  Biso   1.000  N
  N17      1.0000 0.21270  0.13890  0.34010  Biso   1.000  N
  N18      1.0000 0.28730  0.36110  0.84010  Biso   1.000  N
  N19      1.0000 0.78730  0.13890  0.15990  Biso   1.000  N
  N20      1.0000 0.71270  0.36110  0.65990  Biso   1.000  N
  N21      1.0000 0.78730  0.86110  0.65990  Biso   1.000  N
  N22      1.0000 0.71270  0.63890  0.15990  Biso   1.000  N
  N23      1.0000 0.21270  0.86110  0.84010  Biso   1.000  N
  N24      1.0000 0.28730  0.63890  0.34010  Biso   1.000  N
  N25      1.0000 0.08060  0.95956  0.34790  Biso   1.000  N
  N26      1.0000 0.41940  0.54044  0.84790  Biso   1.000  N
  N27      1.0000 0.91940  0.95956  0.15210  Biso   1.000  N
  N28      1.0000 0.58060  0.54044  0.65210  Biso   1.000  N
  N29      1.0000 0.91940  0.04044  0.65210  Biso   1.000  N
  N30      1.0000 0.58060  0.45956  0.15210  Biso   1.000  N
  N31      1.0000 0.08060  0.04044  0.84790  Biso   1.000  N
  N32      1.0000 0.41940  0.45956  0.34790  Biso   1.000  N
  N33      1.0000 0.95660  0.01411  0.38550  Biso   1.000  N
  N34      1.0000 0.54340  0.48589  0.88550  Biso   1.000  N
  N35      1.0000 0.04340  0.01411  0.11450  Biso   1.000  N
  N36      1.0000 0.45660  0.48589  0.61450  Biso   1.000  N
  N37      1.0000 0.04340  0.98589  0.61450  Biso   1.000  N
  N38      1.0000 0.45660  0.51411  0.11450  Biso   1.000  N
  N39      1.0000 0.95660  0.98589  0.88550  Biso   1.000  N
  N40      1.0000 0.54340  0.51411  0.38550  Biso   1.000  N
  N41      1.0000 0.62910  0.99103  0.46120  Biso   1.000  N
  N42      1.0000 0.87090  0.50897  0.96120  Biso   1.000  N
  N43      1.0000 0.37090  0.99103  0.03880  Biso   1.000  N
  N44      1.0000 0.12910  0.50897  0.53880  Biso   1.000  N
  N45      1.0000 0.37090  0.00897  0.53880  Biso   1.000  N
  N46      1.0000 0.12910  0.49103  0.03880  Biso   1.000  N
  N47      1.0000 0.62910  0.00897  0.96120  Biso   1.000  N
  N48      1.0000 0.87090  0.49103  0.46120  Biso   1.000  N
  O109     1.0000 0.50000  0.23590  0.75000  Biso   1.000  O
  O110     1.0000 0.00000  0.26410  0.25000  Biso   1.000  O
  O111     1.0000 0.50000  0.76410  0.25000  Biso   1.000  O
  O112     1.0000 0.00000  0.73590  0.75000  Biso   1.000  O
  O113     1.0000 0.52660  0.04060  0.28540  Biso   1.000  O
  O114     1.0000 0.97340  0.45940  0.78540  Biso   1.000  O
  O115     1.0000 0.47340  0.04060  0.21460  Biso   1.000  O
  O116     1.0000 0.02660  0.45940  0.71460  Biso   1.000  O
  O117     1.0000 0.47340  0.95940  0.71460  Biso   1.000  O
  O118     1.0000 0.02660  0.54060  0.21460  Biso   1.000  O
  O119     1.0000 0.52660  0.95940  0.78540  Biso   1.000  O
  O120     1.0000 0.97340  0.54060  0.28540  Biso   1.000  O
