data_image0
_cell_length_a       4.8645
_cell_length_b       21.101
_cell_length_c       8.0719
_cell_angle_alpha    90
_cell_angle_beta     96.05
_cell_angle_gamma    90

_symmetry_space_group_name_H-M    "P 1"
_symmetry_int_tables_number       1

loop_
  _symmetry_equiv_pos_as_xyz
  'x, y, z'

loop_
  _atom_site_label
  _atom_site_occupancy
  _atom_site_fract_x
  _atom_site_fract_y
  _atom_site_fract_z
  _atom_site_thermal_displace_type
  _atom_site_B_iso_or_equiv
  _atom_site_type_symbol
  Cu1      1.0000 0.08430  0.25000  0.87228  Biso   1.000  Cu
  Cu2      1.0000 0.91570  0.75000  0.12772  Biso   1.000  Cu
  S1       1.0000 0.47557  0.25000  0.61663  Biso   1.000  S
  S2       1.0000 0.52443  0.75000  0.38337  Biso   1.000  S
  O1       1.0000 0.17460  0.25000  0.63580  Biso   1.000  O
  O2       1.0000 0.82540  0.75000  0.36420  Biso   1.000  O
  O3       1.0000 0.62800  0.25000  0.78500  Biso   1.000  O
  O4       1.0000 0.37200  0.75000  0.21500  Biso   1.000  O
  O5       1.0000 0.54030  0.19242  0.52520  Biso   1.000  O
  O6       1.0000 0.45970  0.69242  0.47480  Biso   1.000  O
  O7       1.0000 0.45970  0.80758  0.47480  Biso   1.000  O
  O8       1.0000 0.54030  0.30758  0.52520  Biso   1.000  O
  O9       1.0000 0.04910  0.25000  0.11260  Biso   1.000  O
  O10      1.0000 0.95090  0.75000  0.88740  Biso   1.000  O
  N1       1.0000 0.91720  0.12434  0.76150  Biso   1.000  N
  N2       1.0000 0.08280  0.62434  0.23850  Biso   1.000  N
  N3       1.0000 0.08280  0.87566  0.23850  Biso   1.000  N
  N4       1.0000 0.91720  0.37566  0.76150  Biso   1.000  N
  H1       1.0000 0.79060  0.14200  0.69460  Biso   1.000  H
  H2       1.0000 0.20940  0.64200  0.30540  Biso   1.000  H
  H3       1.0000 0.20940  0.85800  0.30540  Biso   1.000  H
  H4       1.0000 0.79060  0.35800  0.69460  Biso   1.000  H
  N5       1.0000 0.09790  0.15654  0.87070  Biso   1.000  N
  N6       1.0000 0.90210  0.65654  0.12930  Biso   1.000  N
  N7       1.0000 0.90210  0.84346  0.12930  Biso   1.000  N
  N8       1.0000 0.09790  0.34346  0.87070  Biso   1.000  N
  C1       1.0000 0.96100  0.06166  0.77110  Biso   1.000  C
  C2       1.0000 0.03900  0.56166  0.22890  Biso   1.000  C
  C3       1.0000 0.03900  0.93834  0.22890  Biso   1.000  C
  C4       1.0000 0.96100  0.43834  0.77110  Biso   1.000  C
  C5       1.0000 0.18050  0.05273  0.89130  Biso   1.000  C
  C6       1.0000 0.81950  0.55273  0.10870  Biso   1.000  C
  C7       1.0000 0.81950  0.94727  0.10870  Biso   1.000  C
  C8       1.0000 0.18050  0.44727  0.89130  Biso   1.000  C
  H5       1.0000 0.25930  0.01420  0.92650  Biso   1.000  H
  H6       1.0000 0.74070  0.51420  0.07350  Biso   1.000  H
  H7       1.0000 0.74070  0.98580  0.07350  Biso   1.000  H
  H8       1.0000 0.25930  0.48580  0.92650  Biso   1.000  H
  C9       1.0000 0.49170  0.13093  0.07850  Biso   1.000  C
  C10      1.0000 0.50830  0.63093  0.92150  Biso   1.000  C
  C11      1.0000 0.50830  0.86907  0.92150  Biso   1.000  C
  C12      1.0000 0.49170  0.36907  0.07850  Biso   1.000  C
  H9       1.0000 0.49540  0.17610  0.09170  Biso   1.000  H
  H10      1.0000 0.50460  0.67610  0.90830  Biso   1.000  H
  H11      1.0000 0.50460  0.82390  0.90830  Biso   1.000  H
  H12      1.0000 0.49540  0.32390  0.09170  Biso   1.000  H
  H13      1.0000 0.66430  0.11680  0.04390  Biso   1.000  H
  H14      1.0000 0.33570  0.61680  0.95610  Biso   1.000  H
  H15      1.0000 0.33570  0.88320  0.95610  Biso   1.000  H
  H16      1.0000 0.66430  0.38320  0.04390  Biso   1.000  H
  H17      1.0000 0.46320  0.11130  0.18270  Biso   1.000  H
  H18      1.0000 0.53680  0.61130  0.81730  Biso   1.000  H
  H19      1.0000 0.53680  0.88870  0.81730  Biso   1.000  H
  H20      1.0000 0.46320  0.38870  0.18270  Biso   1.000  H
  C13      1.0000 0.26130  0.11298  0.94970  Biso   1.000  C
  C14      1.0000 0.73870  0.61298  0.05030  Biso   1.000  C
  C15      1.0000 0.73870  0.88702  0.05030  Biso   1.000  C
  C16      1.0000 0.26130  0.38702  0.94970  Biso   1.000  C
  C17      1.0000 0.78500  0.01611  0.66600  Biso   1.000  C
  C18      1.0000 0.21500  0.51611  0.33400  Biso   1.000  C
  C19      1.0000 0.21500  0.98389  0.33400  Biso   1.000  C
  C20      1.0000 0.78500  0.48389  0.66600  Biso   1.000  C
  H21      1.0000 0.64980  0.03910  0.59440  Biso   1.000  H
  H22      1.0000 0.35020  0.53910  0.40560  Biso   1.000  H
  H23      1.0000 0.35020  0.96090  0.40560  Biso   1.000  H
  H24      1.0000 0.64980  0.46090  0.59440  Biso   1.000  H
  H25      1.0000 0.69300  0.98830  0.73640  Biso   1.000  H
  H26      1.0000 0.30700  0.48830  0.26360  Biso   1.000  H
  H27      1.0000 0.30700  0.01170  0.26360  Biso   1.000  H
  H28      1.0000 0.69300  0.51170  0.73640  Biso   1.000  H
  H29      1.0000 0.89870  0.99170  0.59970  Biso   1.000  H
  H30      1.0000 0.10130  0.49170  0.40030  Biso   1.000  H
  H31      1.0000 0.10130  0.00830  0.40030  Biso   1.000  H
  H32      1.0000 0.89870  0.50830  0.59970  Biso   1.000  H
  H33      1.0000 0.03260  0.28320  0.18060  Biso   1.000  H
  H34      1.0000 0.96740  0.78320  0.81940  Biso   1.000  H
  H35      1.0000 0.96740  0.71680  0.81940  Biso   1.000  H
  H36      1.0000 0.03260  0.21680  0.18060  Biso   1.000  H
  O11      1.0000 0.99530  0.84187  0.65600  Biso   1.000  O
  O12      1.0000 0.00470  0.34187  0.34400  Biso   1.000  O
  O13      1.0000 0.00470  0.15813  0.34400  Biso   1.000  O
  O14      1.0000 0.99530  0.65813  0.65600  Biso   1.000  O
  H37      1.0000 0.13440  0.82920  0.60530  Biso   1.000  H
  H38      1.0000 0.86560  0.32920  0.39470  Biso   1.000  H
  H39      1.0000 0.86560  0.17080  0.39470  Biso   1.000  H
  H40      1.0000 0.13440  0.67080  0.60530  Biso   1.000  H
  H41      1.0000 0.86800  0.83370  0.59580  Biso   1.000  H
  H42      1.0000 0.13200  0.33370  0.40420  Biso   1.000  H
  H43      1.0000 0.13200  0.16630  0.40420  Biso   1.000  H
  H44      1.0000 0.86800  0.66630  0.59580  Biso   1.000  H
