data_image0
_cell_length_a       4.9206
_cell_length_b       21.2969
_cell_length_c       8.1021
_cell_angle_alpha    90
_cell_angle_beta     96.266
_cell_angle_gamma    90

_symmetry_space_group_name_H-M    "P 1"
_symmetry_int_tables_number       1

loop_
  _symmetry_equiv_pos_as_xyz
  'x, y, z'

loop_
  _atom_site_label
  _atom_site_occupancy
  _atom_site_fract_x
  _atom_site_fract_y
  _atom_site_fract_z
  _atom_site_thermal_displace_type
  _atom_site_B_iso_or_equiv
  _atom_site_type_symbol
  Cu1      1.0000 0.41873  0.75000  0.62705  Biso   1.000  Cu
  Cu2      1.0000 0.58127  0.25000  0.37295  Biso   1.000  Cu
  S1       1.0000 0.02790  0.75000  0.88159  Biso   1.000  S
  S2       1.0000 0.97210  0.25000  0.11841  Biso   1.000  S
  O1       1.0000 0.87420  0.75000  0.71480  Biso   1.000  O
  O2       1.0000 0.12580  0.25000  0.28520  Biso   1.000  O
  O3       1.0000 0.32590  0.75000  0.86164  Biso   1.000  O
  O4       1.0000 0.67410  0.25000  0.13836  Biso   1.000  O
  O5       1.0000 0.96610  0.80697  0.97279  Biso   1.000  O
  O6       1.0000 0.03390  0.30697  0.02721  Biso   1.000  O
  O7       1.0000 0.03390  0.19303  0.02721  Biso   1.000  O
  O8       1.0000 0.96610  0.69303  0.97279  Biso   1.000  O
  N1       1.0000 0.40660  0.65713  0.62843  Biso   1.000  N
  N2       1.0000 0.59340  0.15713  0.37157  Biso   1.000  N
  N3       1.0000 0.59340  0.34287  0.37157  Biso   1.000  N
  N4       1.0000 0.40660  0.84287  0.62843  Biso   1.000  N
  O9       1.0000 0.45650  0.75000  0.38800  Biso   1.000  O
  O10      1.0000 0.54350  0.25000  0.61200  Biso   1.000  O
  N5       1.0000 0.58650  0.62556  0.73730  Biso   1.000  N
  N6       1.0000 0.41350  0.12556  0.26270  Biso   1.000  N
  N7       1.0000 0.41350  0.37444  0.26270  Biso   1.000  N
  N8       1.0000 0.58650  0.87444  0.73730  Biso   1.000  N
  H1       1.0000 0.71240  0.64320  0.80340  Biso   1.000  H
  H2       1.0000 0.28760  0.14320  0.19660  Biso   1.000  H
  H3       1.0000 0.28760  0.35680  0.19660  Biso   1.000  H
  H4       1.0000 0.71240  0.85680  0.80340  Biso   1.000  H
  C1       1.0000 0.24480  0.61370  0.55050  Biso   1.000  C
  C2       1.0000 0.75520  0.11370  0.44950  Biso   1.000  C
  C3       1.0000 0.75520  0.38630  0.44950  Biso   1.000  C
  C4       1.0000 0.24480  0.88630  0.55050  Biso   1.000  C
  C5       1.0000 0.54370  0.56356  0.72910  Biso   1.000  C
  C6       1.0000 0.45630  0.06356  0.27090  Biso   1.000  C
  C7       1.0000 0.45630  0.43644  0.27090  Biso   1.000  C
  C8       1.0000 0.54370  0.93644  0.72910  Biso   1.000  C
  C9       1.0000 0.72050  0.51892  0.83490  Biso   1.000  C
  C10      1.0000 0.27950  0.01892  0.16510  Biso   1.000  C
  C11      1.0000 0.27950  0.48108  0.16510  Biso   1.000  C
  C12      1.0000 0.72050  0.98108  0.83490  Biso   1.000  C
  H5       1.0000 0.89600  0.51600  0.79400  Biso   1.000  H
  H6       1.0000 0.10400  0.01600  0.20600  Biso   1.000  H
  H7       1.0000 0.10400  0.48400  0.20600  Biso   1.000  H
  H8       1.0000 0.89600  0.98400  0.79400  Biso   1.000  H
  H9       1.0000 0.63590  0.47830  0.83130  Biso   1.000  H
  H10      1.0000 0.36410  0.97830  0.16870  Biso   1.000  H
  H11      1.0000 0.36410  0.52170  0.16870  Biso   1.000  H
  H12      1.0000 0.63590  0.02170  0.83130  Biso   1.000  H
  H13      1.0000 0.74320  0.53390  0.94730  Biso   1.000  H
  H14      1.0000 0.25680  0.03390  0.05270  Biso   1.000  H
  H15      1.0000 0.25680  0.46610  0.05270  Biso   1.000  H
  H16      1.0000 0.74320  0.96610  0.94730  Biso   1.000  H
  C13      1.0000 0.01690  0.63108  0.42210  Biso   1.000  C
  C14      1.0000 0.98310  0.13108  0.57790  Biso   1.000  C
  C15      1.0000 0.98310  0.36892  0.57790  Biso   1.000  C
  C16      1.0000 0.01690  0.86892  0.42210  Biso   1.000  C
  H17      1.0000 0.97800  0.67510  0.43040  Biso   1.000  H
  H18      1.0000 0.02200  0.17510  0.56960  Biso   1.000  H
  H19      1.0000 0.02200  0.32490  0.56960  Biso   1.000  H
  H20      1.0000 0.97800  0.82490  0.43040  Biso   1.000  H
  H21      1.0000 0.85690  0.60720  0.43930  Biso   1.000  H
  H22      1.0000 0.14310  0.10720  0.56070  Biso   1.000  H
  H23      1.0000 0.14310  0.39280  0.56070  Biso   1.000  H
  H24      1.0000 0.85690  0.89280  0.43930  Biso   1.000  H
  H25      1.0000 0.06910  0.62210  0.31370  Biso   1.000  H
  H26      1.0000 0.93090  0.12210  0.68630  Biso   1.000  H
  H27      1.0000 0.93090  0.37790  0.68630  Biso   1.000  H
  H28      1.0000 0.06910  0.87790  0.31370  Biso   1.000  H
  C17      1.0000 0.32570  0.55427  0.61040  Biso   1.000  C
  C18      1.0000 0.67430  0.05427  0.38960  Biso   1.000  C
  C19      1.0000 0.67430  0.44573  0.38960  Biso   1.000  C
  C20      1.0000 0.32570  0.94573  0.61040  Biso   1.000  C
  H29      1.0000 0.24750  0.51600  0.57660  Biso   1.000  H
  H30      1.0000 0.75250  0.01600  0.42340  Biso   1.000  H
  H31      1.0000 0.75250  0.48400  0.42340  Biso   1.000  H
  H32      1.0000 0.24750  0.98400  0.57660  Biso   1.000  H
  H33      1.0000 0.46750  0.71750  0.32360  Biso   1.000  H
  H34      1.0000 0.53250  0.21750  0.67640  Biso   1.000  H
  H35      1.0000 0.53250  0.28250  0.67640  Biso   1.000  H
  H36      1.0000 0.46750  0.78250  0.32360  Biso   1.000  H
  O11      1.0000 0.50280  0.65908  0.15504  Biso   1.000  O
  O12      1.0000 0.49720  0.15908  0.84496  Biso   1.000  O
  O13      1.0000 0.49720  0.34092  0.84496  Biso   1.000  O
  O14      1.0000 0.50280  0.84092  0.15504  Biso   1.000  O
  H37      1.0000 0.63610  0.67410  0.10470  Biso   1.000  H
  H38      1.0000 0.36390  0.17410  0.89530  Biso   1.000  H
  H39      1.0000 0.36390  0.32590  0.89530  Biso   1.000  H
  H40      1.0000 0.63610  0.82590  0.10470  Biso   1.000  H
  H41      1.0000 0.35150  0.66080  0.08870  Biso   1.000  H
  H42      1.0000 0.64850  0.16080  0.91130  Biso   1.000  H
  H43      1.0000 0.64850  0.33920  0.91130  Biso   1.000  H
  H44      1.0000 0.35150  0.83920  0.08870  Biso   1.000  H
