data_image0
_cell_length_a       15.1399
_cell_length_b       15.1399
_cell_length_c       8.9784
_cell_angle_alpha    90
_cell_angle_beta     90
_cell_angle_gamma    120

_symmetry_space_group_name_H-M    "P 1"
_symmetry_int_tables_number       1

loop_
  _symmetry_equiv_pos_as_xyz
  'x, y, z'

loop_
  _atom_site_label
  _atom_site_occupancy
  _atom_site_fract_x
  _atom_site_fract_y
  _atom_site_fract_z
  _atom_site_thermal_displace_type
  _atom_site_B_iso_or_equiv
  _atom_site_type_symbol
  Cu1      1.0000 0.24677  0.00000  0.25000  Biso   1.000  Cu
  Cu2      1.0000 0.00000  0.24677  0.25000  Biso   1.000  Cu
  Cu3      1.0000 0.75323  0.75323  0.25000  Biso   1.000  Cu
  Cu4      1.0000 0.75323  0.00000  0.75000  Biso   1.000  Cu
  Cu5      1.0000 0.00000  0.75323  0.75000  Biso   1.000  Cu
  Cu6      1.0000 0.24677  0.24677  0.75000  Biso   1.000  Cu
  C1       1.0000 0.39490  0.96220  0.98120  Biso   1.000  C
  C2       1.0000 0.03780  0.43270  0.98120  Biso   1.000  C
  C3       1.0000 0.56730  0.60510  0.98120  Biso   1.000  C
  C4       1.0000 0.96220  0.39490  0.51880  Biso   1.000  C
  C5       1.0000 0.43270  0.03780  0.51880  Biso   1.000  C
  C6       1.0000 0.60510  0.56730  0.51880  Biso   1.000  C
  C7       1.0000 0.60510  0.03780  0.01880  Biso   1.000  C
  C8       1.0000 0.96220  0.56730  0.01880  Biso   1.000  C
  C9       1.0000 0.43270  0.39490  0.01880  Biso   1.000  C
  C10      1.0000 0.03780  0.60510  0.48120  Biso   1.000  C
  C11      1.0000 0.56730  0.96220  0.48120  Biso   1.000  C
  C12      1.0000 0.39490  0.43270  0.48120  Biso   1.000  C
  C13      1.0000 0.44350  0.91550  0.91930  Biso   1.000  C
  C14      1.0000 0.08450  0.52800  0.91930  Biso   1.000  C
  C15      1.0000 0.47200  0.55650  0.91930  Biso   1.000  C
  C16      1.0000 0.91550  0.44350  0.58070  Biso   1.000  C
  C17      1.0000 0.52800  0.08450  0.58070  Biso   1.000  C
  C18      1.0000 0.55650  0.47200  0.58070  Biso   1.000  C
  C19      1.0000 0.55650  0.08450  0.08070  Biso   1.000  C
  C20      1.0000 0.91550  0.47200  0.08070  Biso   1.000  C
  C21      1.0000 0.52800  0.44350  0.08070  Biso   1.000  C
  C22      1.0000 0.08450  0.55650  0.41930  Biso   1.000  C
  C23      1.0000 0.47200  0.91550  0.41930  Biso   1.000  C
  C24      1.0000 0.44350  0.52800  0.41930  Biso   1.000  C
  H1       1.0000 0.40630  0.85720  0.86200  Biso   1.000  H
  H2       1.0000 0.14280  0.54910  0.86200  Biso   1.000  H
  H3       1.0000 0.45090  0.59370  0.86200  Biso   1.000  H
  H4       1.0000 0.85720  0.40630  0.63800  Biso   1.000  H
  H5       1.0000 0.54910  0.14280  0.63800  Biso   1.000  H
  H6       1.0000 0.59370  0.45090  0.63800  Biso   1.000  H
  H7       1.0000 0.59370  0.14280  0.13800  Biso   1.000  H
  H8       1.0000 0.85720  0.45090  0.13800  Biso   1.000  H
  H9       1.0000 0.54910  0.40630  0.13800  Biso   1.000  H
  H10      1.0000 0.14280  0.59370  0.36200  Biso   1.000  H
  H11      1.0000 0.45090  0.85720  0.36200  Biso   1.000  H
  H12      1.0000 0.40630  0.54910  0.36200  Biso   1.000  H
  C25      1.0000 0.45350  0.04680  0.05990  Biso   1.000  C
  C26      1.0000 0.95320  0.40670  0.05990  Biso   1.000  C
  C27      1.0000 0.59330  0.54650  0.05990  Biso   1.000  C
  C28      1.0000 0.04680  0.45350  0.44010  Biso   1.000  C
  C29      1.0000 0.40670  0.95320  0.44010  Biso   1.000  C
  C30      1.0000 0.54650  0.59330  0.44010  Biso   1.000  C
  C31      1.0000 0.54650  0.95320  0.94010  Biso   1.000  C
  C32      1.0000 0.04680  0.59330  0.94010  Biso   1.000  C
  C33      1.0000 0.40670  0.45350  0.94010  Biso   1.000  C
  C34      1.0000 0.95320  0.54650  0.55990  Biso   1.000  C
  C35      1.0000 0.59330  0.04680  0.55990  Biso   1.000  C
  C36      1.0000 0.45350  0.40670  0.55990  Biso   1.000  C
  H13      1.0000 0.42360  0.08160  0.10220  Biso   1.000  H
  H14      1.0000 0.91840  0.34200  0.10220  Biso   1.000  H
  H15      1.0000 0.65800  0.57640  0.10220  Biso   1.000  H
  H16      1.0000 0.08160  0.42360  0.39780  Biso   1.000  H
  H17      1.0000 0.34200  0.91840  0.39780  Biso   1.000  H
  H18      1.0000 0.57640  0.65800  0.39780  Biso   1.000  H
  H19      1.0000 0.57640  0.91840  0.89780  Biso   1.000  H
  H20      1.0000 0.08160  0.65800  0.89780  Biso   1.000  H
  H21      1.0000 0.34200  0.42360  0.89780  Biso   1.000  H
  H22      1.0000 0.91840  0.57640  0.60220  Biso   1.000  H
  H23      1.0000 0.65800  0.08160  0.60220  Biso   1.000  H
  H24      1.0000 0.42360  0.34200  0.60220  Biso   1.000  H
  C37      1.0000 0.28450  0.91950  0.95810  Biso   1.000  C
  C38      1.0000 0.08050  0.36500  0.95810  Biso   1.000  C
  C39      1.0000 0.63500  0.71550  0.95810  Biso   1.000  C
  C40      1.0000 0.91950  0.28450  0.54190  Biso   1.000  C
  C41      1.0000 0.36500  0.08050  0.54190  Biso   1.000  C
  C42      1.0000 0.71550  0.63500  0.54190  Biso   1.000  C
  C43      1.0000 0.71550  0.08050  0.04190  Biso   1.000  C
  C44      1.0000 0.91950  0.63500  0.04190  Biso   1.000  C
  C45      1.0000 0.36500  0.28450  0.04190  Biso   1.000  C
  C46      1.0000 0.08050  0.71550  0.45810  Biso   1.000  C
  C47      1.0000 0.63500  0.91950  0.45810  Biso   1.000  C
  C48      1.0000 0.28450  0.36500  0.45810  Biso   1.000  C
  C49      1.0000 0.22540  0.86950  0.83800  Biso   1.000  C
  C50      1.0000 0.13050  0.35590  0.83800  Biso   1.000  C
  C51      1.0000 0.64410  0.77460  0.83800  Biso   1.000  C
  C52      1.0000 0.86950  0.22540  0.66200  Biso   1.000  C
  C53      1.0000 0.35590  0.13050  0.66200  Biso   1.000  C
  C54      1.0000 0.77460  0.64410  0.66200  Biso   1.000  C
  C55      1.0000 0.77460  0.13050  0.16200  Biso   1.000  C
  C56      1.0000 0.86950  0.64410  0.16200  Biso   1.000  C
  C57      1.0000 0.35590  0.22540  0.16200  Biso   1.000  C
  C58      1.0000 0.13050  0.77460  0.33800  Biso   1.000  C
  C59      1.0000 0.64410  0.86950  0.33800  Biso   1.000  C
  C60      1.0000 0.22540  0.35590  0.33800  Biso   1.000  C
  H25      1.0000 0.24920  0.85730  0.74930  Biso   1.000  H
  H26      1.0000 0.14270  0.39190  0.74930  Biso   1.000  H
  H27      1.0000 0.60810  0.75080  0.74930  Biso   1.000  H
  H28      1.0000 0.85730  0.24920  0.75070  Biso   1.000  H
  H29      1.0000 0.39190  0.14270  0.75070  Biso   1.000  H
  H30      1.0000 0.75080  0.60810  0.75070  Biso   1.000  H
  H31      1.0000 0.75080  0.14270  0.25070  Biso   1.000  H
  H32      1.0000 0.85730  0.60810  0.25070  Biso   1.000  H
  H33      1.0000 0.39190  0.24920  0.25070  Biso   1.000  H
  H34      1.0000 0.14270  0.75080  0.24930  Biso   1.000  H
  H35      1.0000 0.60810  0.85730  0.24930  Biso   1.000  H
  H36      1.0000 0.24920  0.39190  0.24930  Biso   1.000  H
  C61      1.0000 0.12770  0.87240  0.00590  Biso   1.000  C
  C62      1.0000 0.12760  0.25530  0.00590  Biso   1.000  C
  C63      1.0000 0.74470  0.87230  0.00590  Biso   1.000  C
  C64      1.0000 0.87240  0.12770  0.49410  Biso   1.000  C
  C65      1.0000 0.25530  0.12760  0.49410  Biso   1.000  C
  C66      1.0000 0.87230  0.74470  0.49410  Biso   1.000  C
  C67      1.0000 0.87230  0.12760  0.99410  Biso   1.000  C
  C68      1.0000 0.87240  0.74470  0.99410  Biso   1.000  C
  C69      1.0000 0.25530  0.12770  0.99410  Biso   1.000  C
  C70      1.0000 0.12760  0.87230  0.50590  Biso   1.000  C
  C71      1.0000 0.74470  0.87240  0.50590  Biso   1.000  C
  C72      1.0000 0.12770  0.25530  0.50590  Biso   1.000  C
  H37      1.0000 0.06980  0.86250  0.05630  Biso   1.000  H
  H38      1.0000 0.13750  0.20730  0.05630  Biso   1.000  H
  H39      1.0000 0.79270  0.93020  0.05630  Biso   1.000  H
  H40      1.0000 0.86250  0.06980  0.44370  Biso   1.000  H
  H41      1.0000 0.20730  0.13750  0.44370  Biso   1.000  H
  H42      1.0000 0.93020  0.79270  0.44370  Biso   1.000  H
  H43      1.0000 0.93020  0.13750  0.94370  Biso   1.000  H
  H44      1.0000 0.86250  0.79270  0.94370  Biso   1.000  H
  H45      1.0000 0.20730  0.06980  0.94370  Biso   1.000  H
  H46      1.0000 0.13750  0.93020  0.55630  Biso   1.000  H
  H47      1.0000 0.79270  0.86250  0.55630  Biso   1.000  H
  H48      1.0000 0.06980  0.20730  0.55630  Biso   1.000  H
  N1       1.0000 0.22068  0.92073  0.06590  Biso   1.000  N
  N2       1.0000 0.07927  0.29995  0.06590  Biso   1.000  N
  N3       1.0000 0.70005  0.77932  0.06590  Biso   1.000  N
  N4       1.0000 0.92073  0.22068  0.43410  Biso   1.000  N
  N5       1.0000 0.29995  0.07927  0.43410  Biso   1.000  N
  N6       1.0000 0.77932  0.70005  0.43410  Biso   1.000  N
  N7       1.0000 0.77932  0.07927  0.93410  Biso   1.000  N
  N8       1.0000 0.92073  0.70005  0.93410  Biso   1.000  N
  N9       1.0000 0.29995  0.22068  0.93410  Biso   1.000  N
  N10      1.0000 0.07927  0.77932  0.56590  Biso   1.000  N
  N11      1.0000 0.70005  0.92073  0.56590  Biso   1.000  N
  N12      1.0000 0.22068  0.29995  0.56590  Biso   1.000  N
  N13      1.0000 0.12510  0.83960  0.86770  Biso   1.000  N
  N14      1.0000 0.16040  0.28550  0.86770  Biso   1.000  N
  N15      1.0000 0.71450  0.87490  0.86770  Biso   1.000  N
  N16      1.0000 0.83960  0.12510  0.63230  Biso   1.000  N
  N17      1.0000 0.28550  0.16040  0.63230  Biso   1.000  N
  N18      1.0000 0.87490  0.71450  0.63230  Biso   1.000  N
  N19      1.0000 0.87490  0.16040  0.13230  Biso   1.000  N
  N20      1.0000 0.83960  0.71450  0.13230  Biso   1.000  N
  N21      1.0000 0.28550  0.12510  0.13230  Biso   1.000  N
  N22      1.0000 0.16040  0.87490  0.36770  Biso   1.000  N
  N23      1.0000 0.71450  0.83960  0.36770  Biso   1.000  N
  N24      1.0000 0.12510  0.28550  0.36770  Biso   1.000  N
