data_image0
_cell_length_a       9.0681
_cell_length_b       7.9226
_cell_length_c       11.1348
_cell_angle_alpha    90
_cell_angle_beta     110.691
_cell_angle_gamma    90

_symmetry_space_group_name_H-M    "P 1"
_symmetry_int_tables_number       1

loop_
  _symmetry_equiv_pos_as_xyz
  'x, y, z'

loop_
  _atom_site_label
  _atom_site_occupancy
  _atom_site_fract_x
  _atom_site_fract_y
  _atom_site_fract_z
  _atom_site_thermal_displace_type
  _atom_site_B_iso_or_equiv
  _atom_site_type_symbol
  Cu1      1.0000 0.65780  0.17041  0.22455  Biso   1.000  Cu
  Cu2      1.0000 0.84220  0.67041  0.27545  Biso   1.000  Cu
  Cu3      1.0000 0.34220  0.82959  0.77545  Biso   1.000  Cu
  Cu4      1.0000 0.15780  0.32959  0.72455  Biso   1.000  Cu
  N1       1.0000 0.68550  0.10400  0.05610  Biso   1.000  N
  N2       1.0000 0.81450  0.60400  0.44390  Biso   1.000  N
  N3       1.0000 0.31450  0.89600  0.94390  Biso   1.000  N
  N4       1.0000 0.18550  0.39600  0.55610  Biso   1.000  N
  N5       1.0000 0.55450  0.95040  0.86470  Biso   1.000  N
  N6       1.0000 0.94550  0.45040  0.63530  Biso   1.000  N
  N7       1.0000 0.44550  0.04960  0.13530  Biso   1.000  N
  N8       1.0000 0.05450  0.54960  0.36470  Biso   1.000  N
  C1       1.0000 0.56650  0.01480  0.97890  Biso   1.000  C
  C2       1.0000 0.93350  0.51480  0.52110  Biso   1.000  C
  C3       1.0000 0.43350  0.98520  0.02110  Biso   1.000  C
  C4       1.0000 0.06650  0.48520  0.47890  Biso   1.000  C
  C5       1.0000 0.80510  0.13650  0.01430  Biso   1.000  C
  C6       1.0000 0.69490  0.63650  0.48570  Biso   1.000  C
  C7       1.0000 0.19490  0.86350  0.98570  Biso   1.000  C
  C8       1.0000 0.30510  0.36350  0.51430  Biso   1.000  C
  H1       1.0000 0.88300  0.20500  0.06200  Biso   1.000  H
  H2       1.0000 0.61700  0.70500  0.43800  Biso   1.000  H
  H3       1.0000 0.11700  0.79500  0.93800  Biso   1.000  H
  H4       1.0000 0.38300  0.29500  0.56200  Biso   1.000  H
  C9       1.0000 0.79970  0.07930  0.89570  Biso   1.000  C
  C10      1.0000 0.70030  0.57930  0.60430  Biso   1.000  C
  C11      1.0000 0.20030  0.92070  0.10430  Biso   1.000  C
  C12      1.0000 0.29970  0.42070  0.39570  Biso   1.000  C
  H5       1.0000 0.88000  0.10100  0.87400  Biso   1.000  H
  H6       1.0000 0.62000  0.60100  0.62600  Biso   1.000  H
  H7       1.0000 0.12000  0.89900  0.12600  Biso   1.000  H
  H8       1.0000 0.38000  0.39900  0.37400  Biso   1.000  H
  C13      1.0000 0.67310  0.98270  0.82330  Biso   1.000  C
  C14      1.0000 0.82690  0.48270  0.67670  Biso   1.000  C
  C15      1.0000 0.32690  0.01730  0.17670  Biso   1.000  C
  C16      1.0000 0.17310  0.51730  0.32330  Biso   1.000  C
  H9       1.0000 0.66300  0.92900  0.74100  Biso   1.000  H
  H10      1.0000 0.83700  0.42900  0.75900  Biso   1.000  H
  H11      1.0000 0.33700  0.07100  0.25900  Biso   1.000  H
  H12      1.0000 0.16300  0.57100  0.24100  Biso   1.000  H
  O1       1.0000 0.88870  0.20480  0.30610  Biso   1.000  O
  O2       1.0000 0.61130  0.70480  0.19390  Biso   1.000  O
  O3       1.0000 0.11130  0.79520  0.69390  Biso   1.000  O
  O4       1.0000 0.38870  0.29520  0.80610  Biso   1.000  O
  O5       1.0000 0.60690  0.21980  0.37370  Biso   1.000  O
  O6       1.0000 0.89310  0.71980  0.12630  Biso   1.000  O
  O7       1.0000 0.39310  0.78020  0.62630  Biso   1.000  O
  O8       1.0000 0.10690  0.28020  0.87370  Biso   1.000  O
  O9       1.0000 0.88800  0.93240  0.34290  Biso   1.000  O
  O10      1.0000 0.61200  0.43240  0.15710  Biso   1.000  O
  O11      1.0000 0.11200  0.06760  0.65710  Biso   1.000  O
  O12      1.0000 0.38800  0.56760  0.84290  Biso   1.000  O
  C17      1.0000 0.95600  0.06470  0.34170  Biso   1.000  C
  C18      1.0000 0.54400  0.56470  0.15830  Biso   1.000  C
  C19      1.0000 0.04400  0.93530  0.65830  Biso   1.000  C
  C20      1.0000 0.45600  0.43530  0.84170  Biso   1.000  C
  H13      1.0000 0.06100  0.07300  0.36400  Biso   1.000  H
  H14      1.0000 0.43900  0.57300  0.13600  Biso   1.000  H
  H15      1.0000 0.93900  0.92700  0.63600  Biso   1.000  H
  H16      1.0000 0.56100  0.42700  0.86400  Biso   1.000  H
  O13      1.0000 0.63770  0.16390  0.57590  Biso   1.000  O
  O14      1.0000 0.86230  0.66390  0.92410  Biso   1.000  O
  O15      1.0000 0.36230  0.83610  0.42410  Biso   1.000  O
  O16      1.0000 0.13770  0.33610  0.07590  Biso   1.000  O
  C21      1.0000 0.65740  0.13830  0.47570  Biso   1.000  C
  C22      1.0000 0.84260  0.63830  0.02430  Biso   1.000  C
  C23      1.0000 0.34260  0.86170  0.52430  Biso   1.000  C
  C24      1.0000 0.15740  0.36170  0.97570  Biso   1.000  C
  H17      1.0000 0.69800  0.05400  0.46200  Biso   1.000  H
  H18      1.0000 0.80200  0.55400  0.03800  Biso   1.000  H
  H19      1.0000 0.30200  0.94600  0.53800  Biso   1.000  H
  H20      1.0000 0.19800  0.44600  0.96200  Biso   1.000  H
