data_image0
_cell_length_a       16.9058
_cell_length_b       11.2645
_cell_length_c       27.2707
_cell_angle_alpha    90
_cell_angle_beta     92.754
_cell_angle_gamma    90

_symmetry_space_group_name_H-M    "P 1"
_symmetry_int_tables_number       1

loop_
  _symmetry_equiv_pos_as_xyz
  'x, y, z'

loop_
  _atom_site_label
  _atom_site_occupancy
  _atom_site_fract_x
  _atom_site_fract_y
  _atom_site_fract_z
  _atom_site_thermal_displace_type
  _atom_site_B_iso_or_equiv
  _atom_site_type_symbol
  Hg1      1.0000 0.28328  0.81335  0.26662  Biso   1.000  Hg
  Hg2      1.0000 0.71672  0.81335  0.23338  Biso   1.000  Hg
  Hg3      1.0000 0.78328  0.31335  0.26662  Biso   1.000  Hg
  Hg4      1.0000 0.21672  0.31335  0.23338  Biso   1.000  Hg
  Hg5      1.0000 0.71672  0.18665  0.73338  Biso   1.000  Hg
  Hg6      1.0000 0.28328  0.18665  0.76662  Biso   1.000  Hg
  Hg7      1.0000 0.21672  0.68665  0.73338  Biso   1.000  Hg
  Hg8      1.0000 0.78328  0.68665  0.76662  Biso   1.000  Hg
  I1       1.0000 0.41406  0.72506  0.31013  Biso   1.000  I
  I2       1.0000 0.58594  0.72506  0.18987  Biso   1.000  I
  I3       1.0000 0.91406  0.22506  0.31013  Biso   1.000  I
  I4       1.0000 0.08594  0.22506  0.18987  Biso   1.000  I
  I5       1.0000 0.58594  0.27494  0.68987  Biso   1.000  I
  I6       1.0000 0.41406  0.27494  0.81013  Biso   1.000  I
  I7       1.0000 0.08594  0.77494  0.68987  Biso   1.000  I
  I8       1.0000 0.91406  0.77494  0.81013  Biso   1.000  I
  I9       1.0000 0.14173  0.76514  0.22437  Biso   1.000  I
  I10      1.0000 0.85827  0.76514  0.27563  Biso   1.000  I
  I11      1.0000 0.64173  0.26514  0.22437  Biso   1.000  I
  I12      1.0000 0.35827  0.26514  0.27563  Biso   1.000  I
  I13      1.0000 0.85827  0.23486  0.77563  Biso   1.000  I
  I14      1.0000 0.14173  0.23486  0.72437  Biso   1.000  I
  I15      1.0000 0.35827  0.73486  0.77563  Biso   1.000  I
  I16      1.0000 0.64173  0.73486  0.72437  Biso   1.000  I
  Cu1      1.0000 0.29786  0.52953  0.50497  Biso   1.000  Cu
  Cu2      1.0000 0.70214  0.52953  0.99503  Biso   1.000  Cu
  Cu3      1.0000 0.79786  0.02953  0.50497  Biso   1.000  Cu
  Cu4      1.0000 0.20214  0.02953  0.99503  Biso   1.000  Cu
  Cu5      1.0000 0.70214  0.47047  0.49503  Biso   1.000  Cu
  Cu6      1.0000 0.29786  0.47047  0.00497  Biso   1.000  Cu
  Cu7      1.0000 0.20214  0.97047  0.49503  Biso   1.000  Cu
  Cu8      1.0000 0.79786  0.97047  0.00497  Biso   1.000  Cu
  C1       1.0000 0.15010  0.46810  0.46360  Biso   1.000  C
  C2       1.0000 0.84990  0.46810  0.03640  Biso   1.000  C
  C3       1.0000 0.65010  0.96810  0.46360  Biso   1.000  C
  C4       1.0000 0.34990  0.96810  0.03640  Biso   1.000  C
  C5       1.0000 0.84990  0.53190  0.53640  Biso   1.000  C
  C6       1.0000 0.15010  0.53190  0.96360  Biso   1.000  C
  C7       1.0000 0.34990  0.03190  0.53640  Biso   1.000  C
  C8       1.0000 0.65010  0.03190  0.96360  Biso   1.000  C
  C9       1.0000 0.08970  0.41230  0.43660  Biso   1.000  C
  C10      1.0000 0.91030  0.41230  0.06340  Biso   1.000  C
  C11      1.0000 0.58970  0.91230  0.43660  Biso   1.000  C
  C12      1.0000 0.41030  0.91230  0.06340  Biso   1.000  C
  C13      1.0000 0.91030  0.58770  0.56340  Biso   1.000  C
  C14      1.0000 0.08970  0.58770  0.93660  Biso   1.000  C
  C15      1.0000 0.41030  0.08770  0.56340  Biso   1.000  C
  C16      1.0000 0.58970  0.08770  0.93660  Biso   1.000  C
  H1       1.0000 0.03680  0.44050  0.43740  Biso   1.000  H
  H2       1.0000 0.96320  0.44050  0.06260  Biso   1.000  H
  H3       1.0000 0.53680  0.94050  0.43740  Biso   1.000  H
  H4       1.0000 0.46320  0.94050  0.06260  Biso   1.000  H
  H5       1.0000 0.96320  0.55950  0.56260  Biso   1.000  H
  H6       1.0000 0.03680  0.55950  0.93740  Biso   1.000  H
  H7       1.0000 0.46320  0.05950  0.56260  Biso   1.000  H
  H8       1.0000 0.53680  0.05950  0.93740  Biso   1.000  H
  C17      1.0000 0.10740  0.31490  0.40840  Biso   1.000  C
  C18      1.0000 0.89260  0.31490  0.09160  Biso   1.000  C
  C19      1.0000 0.60740  0.81490  0.40840  Biso   1.000  C
  C20      1.0000 0.39260  0.81490  0.09160  Biso   1.000  C
  C21      1.0000 0.89260  0.68510  0.59160  Biso   1.000  C
  C22      1.0000 0.10740  0.68510  0.90840  Biso   1.000  C
  C23      1.0000 0.39260  0.18510  0.59160  Biso   1.000  C
  C24      1.0000 0.60740  0.18510  0.90840  Biso   1.000  C
  H9       1.0000 0.06650  0.27530  0.38960  Biso   1.000  H
  H10      1.0000 0.93350  0.27530  0.11040  Biso   1.000  H
  H11      1.0000 0.56650  0.77530  0.38960  Biso   1.000  H
  H12      1.0000 0.43350  0.77530  0.11040  Biso   1.000  H
  H13      1.0000 0.93350  0.72470  0.61040  Biso   1.000  H
  H14      1.0000 0.06650  0.72470  0.88960  Biso   1.000  H
  H15      1.0000 0.43350  0.22470  0.61040  Biso   1.000  H
  H16      1.0000 0.56650  0.22470  0.88960  Biso   1.000  H
  C25      1.0000 0.18550  0.27460  0.40740  Biso   1.000  C
  C26      1.0000 0.81450  0.27460  0.09260  Biso   1.000  C
  C27      1.0000 0.68550  0.77460  0.40740  Biso   1.000  C
  C28      1.0000 0.31450  0.77460  0.09260  Biso   1.000  C
  C29      1.0000 0.81450  0.72540  0.59260  Biso   1.000  C
  C30      1.0000 0.18550  0.72540  0.90740  Biso   1.000  C
  C31      1.0000 0.31450  0.22540  0.59260  Biso   1.000  C
  C32      1.0000 0.68550  0.22540  0.90740  Biso   1.000  C
  C33      1.0000 0.24270  0.33530  0.43530  Biso   1.000  C
  C34      1.0000 0.75730  0.33530  0.06470  Biso   1.000  C
  C35      1.0000 0.74270  0.83530  0.43530  Biso   1.000  C
  C36      1.0000 0.25730  0.83530  0.06470  Biso   1.000  C
  C37      1.0000 0.75730  0.66470  0.56470  Biso   1.000  C
  C38      1.0000 0.24270  0.66470  0.93530  Biso   1.000  C
  C39      1.0000 0.25730  0.16470  0.56470  Biso   1.000  C
  C40      1.0000 0.74270  0.16470  0.93530  Biso   1.000  C
  H17      1.0000 0.29610  0.30900  0.43500  Biso   1.000  H
  H18      1.0000 0.70390  0.30900  0.06500  Biso   1.000  H
  H19      1.0000 0.79610  0.80900  0.43500  Biso   1.000  H
  H20      1.0000 0.20390  0.80900  0.06500  Biso   1.000  H
  H21      1.0000 0.70390  0.69100  0.56500  Biso   1.000  H
  H22      1.0000 0.29610  0.69100  0.93500  Biso   1.000  H
  H23      1.0000 0.20390  0.19100  0.56500  Biso   1.000  H
  H24      1.0000 0.79610  0.19100  0.93500  Biso   1.000  H
  C41      1.0000 0.13690  0.57430  0.49560  Biso   1.000  C
  C42      1.0000 0.86310  0.57430  0.00440  Biso   1.000  C
  C43      1.0000 0.63690  0.07430  0.49560  Biso   1.000  C
  C44      1.0000 0.36310  0.07430  0.00440  Biso   1.000  C
  C45      1.0000 0.86310  0.42570  0.50440  Biso   1.000  C
  C46      1.0000 0.13690  0.42570  0.99560  Biso   1.000  C
  C47      1.0000 0.36310  0.92570  0.50440  Biso   1.000  C
  C48      1.0000 0.63690  0.92570  0.99560  Biso   1.000  C
  C49      1.0000 0.29030  0.00470  0.36090  Biso   1.000  C
  C50      1.0000 0.70970  0.00470  0.13910  Biso   1.000  C
  C51      1.0000 0.79030  0.50470  0.36090  Biso   1.000  C
  C52      1.0000 0.20970  0.50470  0.13910  Biso   1.000  C
  C53      1.0000 0.70970  0.99530  0.63910  Biso   1.000  C
  C54      1.0000 0.29030  0.99530  0.86090  Biso   1.000  C
  C55      1.0000 0.20970  0.49530  0.63910  Biso   1.000  C
  C56      1.0000 0.79030  0.49530  0.86090  Biso   1.000  C
  H25      1.0000 0.33670  0.96020  0.36920  Biso   1.000  H
  H26      1.0000 0.66330  0.96020  0.13080  Biso   1.000  H
  H27      1.0000 0.83670  0.46020  0.36920  Biso   1.000  H
  H28      1.0000 0.16330  0.46020  0.13080  Biso   1.000  H
  H29      1.0000 0.66330  0.03980  0.63080  Biso   1.000  H
  H30      1.0000 0.33670  0.03980  0.86920  Biso   1.000  H
  H31      1.0000 0.16330  0.53980  0.63080  Biso   1.000  H
  H32      1.0000 0.83670  0.53980  0.86920  Biso   1.000  H
  C57      1.0000 0.27320  0.10100  0.38960  Biso   1.000  C
  C58      1.0000 0.72680  0.10100  0.11040  Biso   1.000  C
  C59      1.0000 0.77320  0.60100  0.38960  Biso   1.000  C
  C60      1.0000 0.22680  0.60100  0.11040  Biso   1.000  C
  C61      1.0000 0.72680  0.89900  0.61040  Biso   1.000  C
  C62      1.0000 0.27320  0.89900  0.88960  Biso   1.000  C
  C63      1.0000 0.22680  0.39900  0.61040  Biso   1.000  C
  C64      1.0000 0.77320  0.39900  0.88960  Biso   1.000  C
  H33      1.0000 0.30700  0.12120  0.41710  Biso   1.000  H
  H34      1.0000 0.69300  0.12120  0.08290  Biso   1.000  H
  H35      1.0000 0.80700  0.62120  0.41710  Biso   1.000  H
  H36      1.0000 0.19300  0.62120  0.08290  Biso   1.000  H
  H37      1.0000 0.69300  0.87880  0.58290  Biso   1.000  H
  H38      1.0000 0.30700  0.87880  0.91710  Biso   1.000  H
  H39      1.0000 0.19300  0.37880  0.58290  Biso   1.000  H
  H40      1.0000 0.80700  0.37880  0.91710  Biso   1.000  H
  C65      1.0000 0.20630  0.16810  0.37800  Biso   1.000  C
  C66      1.0000 0.79370  0.16810  0.12200  Biso   1.000  C
  C67      1.0000 0.70630  0.66810  0.37800  Biso   1.000  C
  C68      1.0000 0.29370  0.66810  0.12200  Biso   1.000  C
  C69      1.0000 0.79370  0.83190  0.62200  Biso   1.000  C
  C70      1.0000 0.20630  0.83190  0.87800  Biso   1.000  C
  C71      1.0000 0.29370  0.33190  0.62200  Biso   1.000  C
  C72      1.0000 0.70630  0.33190  0.87800  Biso   1.000  C
  C73      1.0000 0.15880  0.13250  0.33770  Biso   1.000  C
  C74      1.0000 0.84120  0.13250  0.16230  Biso   1.000  C
  C75      1.0000 0.65880  0.63250  0.33770  Biso   1.000  C
  C76      1.0000 0.34120  0.63250  0.16230  Biso   1.000  C
  C77      1.0000 0.84120  0.86750  0.66230  Biso   1.000  C
  C78      1.0000 0.15880  0.86750  0.83770  Biso   1.000  C
  C79      1.0000 0.34120  0.36750  0.66230  Biso   1.000  C
  C80      1.0000 0.65880  0.36750  0.83770  Biso   1.000  C
  H41      1.0000 0.11170  0.17480  0.32880  Biso   1.000  H
  H42      1.0000 0.88830  0.17480  0.17120  Biso   1.000  H
  H43      1.0000 0.61170  0.67480  0.32880  Biso   1.000  H
  H44      1.0000 0.38830  0.67480  0.17120  Biso   1.000  H
  H45      1.0000 0.88830  0.82520  0.67120  Biso   1.000  H
  H46      1.0000 0.11170  0.82520  0.82880  Biso   1.000  H
  H47      1.0000 0.38830  0.32520  0.67120  Biso   1.000  H
  H48      1.0000 0.61170  0.32520  0.82880  Biso   1.000  H
  C81      1.0000 0.18050  0.03540  0.31080  Biso   1.000  C
  C82      1.0000 0.81950  0.03540  0.18920  Biso   1.000  C
  C83      1.0000 0.68050  0.53540  0.31080  Biso   1.000  C
  C84      1.0000 0.31950  0.53540  0.18920  Biso   1.000  C
  C85      1.0000 0.81950  0.96460  0.68920  Biso   1.000  C
  C86      1.0000 0.18050  0.96460  0.81080  Biso   1.000  C
  C87      1.0000 0.31950  0.46460  0.68920  Biso   1.000  C
  C88      1.0000 0.68050  0.46460  0.81080  Biso   1.000  C
  H49      1.0000 0.14800  0.01310  0.28300  Biso   1.000  H
  H50      1.0000 0.85200  0.01310  0.21700  Biso   1.000  H
  H51      1.0000 0.64800  0.51310  0.28300  Biso   1.000  H
  H52      1.0000 0.35200  0.51310  0.21700  Biso   1.000  H
  H53      1.0000 0.85200  0.98690  0.71700  Biso   1.000  H
  H54      1.0000 0.14800  0.98690  0.78300  Biso   1.000  H
  H55      1.0000 0.35200  0.48690  0.71700  Biso   1.000  H
  H56      1.0000 0.64800  0.48690  0.78300  Biso   1.000  H
  C89      1.0000 0.43080  0.54860  0.56920  Biso   1.000  C
  C90      1.0000 0.56920  0.54860  0.93080  Biso   1.000  C
  C91      1.0000 0.93080  0.04860  0.56920  Biso   1.000  C
  C92      1.0000 0.06920  0.04860  0.93080  Biso   1.000  C
  C93      1.0000 0.56920  0.45140  0.43080  Biso   1.000  C
  C94      1.0000 0.43080  0.45140  0.06920  Biso   1.000  C
  C95      1.0000 0.06920  0.95140  0.43080  Biso   1.000  C
  C96      1.0000 0.93080  0.95140  0.06920  Biso   1.000  C
  C97      1.0000 0.48320  0.58670  0.60540  Biso   1.000  C
  C98      1.0000 0.51680  0.58670  0.89460  Biso   1.000  C
  C99      1.0000 0.98320  0.08670  0.60540  Biso   1.000  C
  C100     1.0000 0.01680  0.08670  0.89460  Biso   1.000  C
  C101     1.0000 0.51680  0.41330  0.39460  Biso   1.000  C
  C102     1.0000 0.48320  0.41330  0.10540  Biso   1.000  C
  C103     1.0000 0.01680  0.91330  0.39460  Biso   1.000  C
  C104     1.0000 0.98320  0.91330  0.10540  Biso   1.000  C
  H57      1.0000 0.53100  0.54460  0.61280  Biso   1.000  H
  H58      1.0000 0.46900  0.54460  0.88720  Biso   1.000  H
  H59      1.0000 0.03100  0.04460  0.61280  Biso   1.000  H
  H60      1.0000 0.96900  0.04460  0.88720  Biso   1.000  H
  H61      1.0000 0.46900  0.45540  0.38720  Biso   1.000  H
  H62      1.0000 0.53100  0.45540  0.11280  Biso   1.000  H
  H63      1.0000 0.96900  0.95540  0.38720  Biso   1.000  H
  H64      1.0000 0.03100  0.95540  0.11280  Biso   1.000  H
  C105     1.0000 0.46530  0.68780  0.63120  Biso   1.000  C
  C106     1.0000 0.53470  0.68780  0.86880  Biso   1.000  C
  C107     1.0000 0.96530  0.18780  0.63120  Biso   1.000  C
  C108     1.0000 0.03470  0.18780  0.86880  Biso   1.000  C
  C109     1.0000 0.53470  0.31220  0.36880  Biso   1.000  C
  C110     1.0000 0.46530  0.31220  0.13120  Biso   1.000  C
  C111     1.0000 0.03470  0.81220  0.36880  Biso   1.000  C
  C112     1.0000 0.96530  0.81220  0.13120  Biso   1.000  C
  H65      1.0000 0.50090  0.71460  0.65690  Biso   1.000  H
  H66      1.0000 0.49910  0.71460  0.84310  Biso   1.000  H
  H67      1.0000 0.00090  0.21460  0.65690  Biso   1.000  H
  H68      1.0000 0.99910  0.21460  0.84310  Biso   1.000  H
  H69      1.0000 0.49910  0.28540  0.34310  Biso   1.000  H
  H70      1.0000 0.50090  0.28540  0.15690  Biso   1.000  H
  H71      1.0000 0.99910  0.78540  0.34310  Biso   1.000  H
  H72      1.0000 0.00090  0.78540  0.15690  Biso   1.000  H
  C113     1.0000 0.39670  0.75060  0.62030  Biso   1.000  C
  C114     1.0000 0.60330  0.75060  0.87970  Biso   1.000  C
  C115     1.0000 0.89670  0.25060  0.62030  Biso   1.000  C
  C116     1.0000 0.10330  0.25060  0.87970  Biso   1.000  C
  C117     1.0000 0.60330  0.24940  0.37970  Biso   1.000  C
  C118     1.0000 0.39670  0.24940  0.12030  Biso   1.000  C
  C119     1.0000 0.10330  0.74940  0.37970  Biso   1.000  C
  C120     1.0000 0.89670  0.74940  0.12030  Biso   1.000  C
  C121     1.0000 0.34620  0.70580  0.58320  Biso   1.000  C
  C122     1.0000 0.65380  0.70580  0.91680  Biso   1.000  C
  C123     1.0000 0.84620  0.20580  0.58320  Biso   1.000  C
  C124     1.0000 0.15380  0.20580  0.91680  Biso   1.000  C
  C125     1.0000 0.65380  0.29420  0.41680  Biso   1.000  C
  C126     1.0000 0.34620  0.29420  0.08320  Biso   1.000  C
  C127     1.0000 0.15380  0.79420  0.41680  Biso   1.000  C
  C128     1.0000 0.84620  0.79420  0.08320  Biso   1.000  C
  H73      1.0000 0.29840  0.74720  0.57490  Biso   1.000  H
  H74      1.0000 0.70160  0.74720  0.92510  Biso   1.000  H
  H75      1.0000 0.79840  0.24720  0.57490  Biso   1.000  H
  H76      1.0000 0.20160  0.24720  0.92510  Biso   1.000  H
  H77      1.0000 0.70160  0.25280  0.42510  Biso   1.000  H
  H78      1.0000 0.29840  0.25280  0.07490  Biso   1.000  H
  H79      1.0000 0.20160  0.75280  0.42510  Biso   1.000  H
  H80      1.0000 0.79840  0.75280  0.07490  Biso   1.000  H
  C129     1.0000 0.44190  0.43920  0.53840  Biso   1.000  C
  C130     1.0000 0.55810  0.43920  0.96160  Biso   1.000  C
  C131     1.0000 0.94190  0.93920  0.53840  Biso   1.000  C
  C132     1.0000 0.05810  0.93920  0.96160  Biso   1.000  C
  C133     1.0000 0.55810  0.56080  0.46160  Biso   1.000  C
  C134     1.0000 0.44190  0.56080  0.03840  Biso   1.000  C
  C135     1.0000 0.05810  0.06080  0.46160  Biso   1.000  C
  C136     1.0000 0.94190  0.06080  0.03840  Biso   1.000  C
  C137     1.0000 0.27720  0.99010  0.67750  Biso   1.000  C
  C138     1.0000 0.72280  0.99010  0.82250  Biso   1.000  C
  C139     1.0000 0.77720  0.49010  0.67750  Biso   1.000  C
  C140     1.0000 0.22280  0.49010  0.82250  Biso   1.000  C
  C141     1.0000 0.72280  0.00990  0.32250  Biso   1.000  C
  C142     1.0000 0.27720  0.00990  0.17750  Biso   1.000  C
  C143     1.0000 0.22280  0.50990  0.32250  Biso   1.000  C
  C144     1.0000 0.77720  0.50990  0.17750  Biso   1.000  C
  H81      1.0000 0.22310  0.01280  0.67820  Biso   1.000  H
  H82      1.0000 0.77690  0.01280  0.82180  Biso   1.000  H
  H83      1.0000 0.72310  0.51280  0.67820  Biso   1.000  H
  H84      1.0000 0.27690  0.51280  0.82180  Biso   1.000  H
  H85      1.0000 0.77690  0.98720  0.32180  Biso   1.000  H
  H86      1.0000 0.22310  0.98720  0.17820  Biso   1.000  H
  H87      1.0000 0.27690  0.48720  0.32180  Biso   1.000  H
  H88      1.0000 0.72310  0.48720  0.17820  Biso   1.000  H
  C145     1.0000 0.29650  0.89570  0.64870  Biso   1.000  C
  C146     1.0000 0.70350  0.89570  0.85130  Biso   1.000  C
  C147     1.0000 0.79650  0.39570  0.64870  Biso   1.000  C
  C148     1.0000 0.20350  0.39570  0.85130  Biso   1.000  C
  C149     1.0000 0.70350  0.10430  0.35130  Biso   1.000  C
  C150     1.0000 0.29650  0.10430  0.14870  Biso   1.000  C
  C151     1.0000 0.20350  0.60430  0.35130  Biso   1.000  C
  C152     1.0000 0.79650  0.60430  0.14870  Biso   1.000  C
  H89      1.0000 0.25630  0.85590  0.62950  Biso   1.000  H
  H90      1.0000 0.74370  0.85590  0.87050  Biso   1.000  H
  H91      1.0000 0.75630  0.35590  0.62950  Biso   1.000  H
  H92      1.0000 0.24370  0.35590  0.87050  Biso   1.000  H
  H93      1.0000 0.74370  0.14410  0.37050  Biso   1.000  H
  H94      1.0000 0.25630  0.14410  0.12950  Biso   1.000  H
  H95      1.0000 0.24370  0.64410  0.37050  Biso   1.000  H
  H96      1.0000 0.75630  0.64410  0.12950  Biso   1.000  H
  C153     1.0000 0.37520  0.85800  0.64742  Biso   1.000  C
  C154     1.0000 0.62480  0.85800  0.85258  Biso   1.000  C
  C155     1.0000 0.87520  0.35800  0.64742  Biso   1.000  C
  C156     1.0000 0.12480  0.35800  0.85258  Biso   1.000  C
  C157     1.0000 0.62480  0.14200  0.35258  Biso   1.000  C
  C158     1.0000 0.37520  0.14200  0.14742  Biso   1.000  C
  C159     1.0000 0.12480  0.64200  0.35258  Biso   1.000  C
  C160     1.0000 0.87520  0.64200  0.14742  Biso   1.000  C
  C161     1.0000 0.43030  0.92690  0.67390  Biso   1.000  C
  C162     1.0000 0.56970  0.92690  0.82610  Biso   1.000  C
  C163     1.0000 0.93030  0.42690  0.67390  Biso   1.000  C
  C164     1.0000 0.06970  0.42690  0.82610  Biso   1.000  C
  C165     1.0000 0.56970  0.07310  0.32610  Biso   1.000  C
  C166     1.0000 0.43030  0.07310  0.17390  Biso   1.000  C
  C167     1.0000 0.06970  0.57310  0.32610  Biso   1.000  C
  C168     1.0000 0.93030  0.57310  0.17390  Biso   1.000  C
  H97      1.0000 0.48510  0.90890  0.67280  Biso   1.000  H
  H98      1.0000 0.51490  0.90890  0.82720  Biso   1.000  H
  H99      1.0000 0.98510  0.40890  0.67280  Biso   1.000  H
  H100     1.0000 0.01490  0.40890  0.82720  Biso   1.000  H
  H101     1.0000 0.51490  0.09110  0.32720  Biso   1.000  H
  H102     1.0000 0.48510  0.09110  0.17280  Biso   1.000  H
  H103     1.0000 0.01490  0.59110  0.32720  Biso   1.000  H
  H104     1.0000 0.98510  0.59110  0.17280  Biso   1.000  H
  C169     1.0000 0.40660  0.02110  0.70190  Biso   1.000  C
  C170     1.0000 0.59340  0.02110  0.79810  Biso   1.000  C
  C171     1.0000 0.90660  0.52110  0.70190  Biso   1.000  C
  C172     1.0000 0.09340  0.52110  0.79810  Biso   1.000  C
  C173     1.0000 0.59340  0.97890  0.29810  Biso   1.000  C
  C174     1.0000 0.40660  0.97890  0.20190  Biso   1.000  C
  C175     1.0000 0.09340  0.47890  0.29810  Biso   1.000  C
  C176     1.0000 0.90660  0.47890  0.20190  Biso   1.000  C
  H105     1.0000 0.44590  0.06570  0.71990  Biso   1.000  H
  H106     1.0000 0.55410  0.06570  0.78010  Biso   1.000  H
  H107     1.0000 0.94590  0.56570  0.71990  Biso   1.000  H
  H108     1.0000 0.05410  0.56570  0.78010  Biso   1.000  H
  H109     1.0000 0.55410  0.93430  0.28010  Biso   1.000  H
  H110     1.0000 0.44590  0.93430  0.21990  Biso   1.000  H
  H111     1.0000 0.05410  0.43430  0.28010  Biso   1.000  H
  H112     1.0000 0.94590  0.43430  0.21990  Biso   1.000  H
  N1       1.0000 0.22550  0.43020  0.46286  Biso   1.000  N
  N2       1.0000 0.77450  0.43020  0.03714  Biso   1.000  N
  N3       1.0000 0.72550  0.93020  0.46286  Biso   1.000  N
  N4       1.0000 0.27450  0.93020  0.03714  Biso   1.000  N
  N5       1.0000 0.77450  0.56980  0.53714  Biso   1.000  N
  N6       1.0000 0.22550  0.56980  0.96286  Biso   1.000  N
  N7       1.0000 0.27450  0.06980  0.53714  Biso   1.000  N
  N8       1.0000 0.72550  0.06980  0.96286  Biso   1.000  N
  N9       1.0000 0.24520  0.97090  0.32207  Biso   1.000  N
  N10      1.0000 0.75480  0.97090  0.17793  Biso   1.000  N
  N11      1.0000 0.74520  0.47090  0.32207  Biso   1.000  N
  N12      1.0000 0.25480  0.47090  0.17793  Biso   1.000  N
  N13      1.0000 0.75480  0.02910  0.67793  Biso   1.000  N
  N14      1.0000 0.24520  0.02910  0.82207  Biso   1.000  N
  N15      1.0000 0.25480  0.52910  0.67793  Biso   1.000  N
  N16      1.0000 0.74520  0.52910  0.82207  Biso   1.000  N
  N17      1.0000 0.36230  0.60690  0.55867  Biso   1.000  N
  N18      1.0000 0.63770  0.60690  0.94133  Biso   1.000  N
  N19      1.0000 0.86230  0.10690  0.55867  Biso   1.000  N
  N20      1.0000 0.13770  0.10690  0.94133  Biso   1.000  N
  N21      1.0000 0.63770  0.39310  0.44133  Biso   1.000  N
  N22      1.0000 0.36230  0.39310  0.05867  Biso   1.000  N
  N23      1.0000 0.13770  0.89310  0.44133  Biso   1.000  N
  N24      1.0000 0.86230  0.89310  0.05867  Biso   1.000  N
  N25      1.0000 0.33110  0.05220  0.70494  Biso   1.000  N
  N26      1.0000 0.66890  0.05220  0.79506  Biso   1.000  N
  N27      1.0000 0.83110  0.55220  0.70494  Biso   1.000  N
  N28      1.0000 0.16890  0.55220  0.79506  Biso   1.000  N
  N29      1.0000 0.66890  0.94780  0.29506  Biso   1.000  N
  N30      1.0000 0.33110  0.94780  0.20494  Biso   1.000  N
  N31      1.0000 0.16890  0.44780  0.29506  Biso   1.000  N
  N32      1.0000 0.83110  0.44780  0.20494  Biso   1.000  N
  O1       1.0000 0.20110  0.61620  0.51732  Biso   1.000  O
  O2       1.0000 0.79890  0.61620  0.98268  Biso   1.000  O
  O3       1.0000 0.70110  0.11620  0.51732  Biso   1.000  O
  O4       1.0000 0.29890  0.11620  0.98268  Biso   1.000  O
  O5       1.0000 0.79890  0.38380  0.48268  Biso   1.000  O
  O6       1.0000 0.20110  0.38380  0.01732  Biso   1.000  O
  O7       1.0000 0.29890  0.88380  0.48268  Biso   1.000  O
  O8       1.0000 0.70110  0.88380  0.01732  Biso   1.000  O
  O9       1.0000 0.07150  0.61490  0.49974  Biso   1.000  O
  O10      1.0000 0.92850  0.61490  0.00026  Biso   1.000  O
  O11      1.0000 0.57150  0.11490  0.49974  Biso   1.000  O
  O12      1.0000 0.42850  0.11490  0.00026  Biso   1.000  O
  O13      1.0000 0.92850  0.38510  0.50026  Biso   1.000  O
  O14      1.0000 0.07150  0.38510  0.99974  Biso   1.000  O
  O15      1.0000 0.42850  0.88510  0.50026  Biso   1.000  O
  O16      1.0000 0.57150  0.88510  0.99974  Biso   1.000  O
  O17      1.0000 0.38510  0.41750  0.50612  Biso   1.000  O
  O18      1.0000 0.61490  0.41750  0.99388  Biso   1.000  O
  O19      1.0000 0.88510  0.91750  0.50612  Biso   1.000  O
  O20      1.0000 0.11490  0.91750  0.99388  Biso   1.000  O
  O21      1.0000 0.61490  0.58250  0.49388  Biso   1.000  O
  O22      1.0000 0.38510  0.58250  0.00612  Biso   1.000  O
  O23      1.0000 0.11490  0.08250  0.49388  Biso   1.000  O
  O24      1.0000 0.88510  0.08250  0.00612  Biso   1.000  O
  O25      1.0000 0.50080  0.37850  0.54475  Biso   1.000  O
  O26      1.0000 0.49920  0.37850  0.95525  Biso   1.000  O
  O27      1.0000 0.00080  0.87850  0.54475  Biso   1.000  O
  O28      1.0000 0.99920  0.87850  0.95525  Biso   1.000  O
  O29      1.0000 0.49920  0.62150  0.45525  Biso   1.000  O
  O30      1.0000 0.50080  0.62150  0.04475  Biso   1.000  O
  O31      1.0000 0.99920  0.12150  0.45525  Biso   1.000  O
  O32      1.0000 0.00080  0.12150  0.04475  Biso   1.000  O
  O33      1.0000 0.33740  0.65570  0.44759  Biso   1.000  O
  O34      1.0000 0.66260  0.65570  0.05241  Biso   1.000  O
  O35      1.0000 0.83740  0.15570  0.44759  Biso   1.000  O
  O36      1.0000 0.16260  0.15570  0.05241  Biso   1.000  O
  O37      1.0000 0.66260  0.34430  0.55241  Biso   1.000  O
  O38      1.0000 0.33740  0.34430  0.94759  Biso   1.000  O
  O39      1.0000 0.16260  0.84430  0.55241  Biso   1.000  O
  O40      1.0000 0.83740  0.84430  0.94759  Biso   1.000  O
  H113     1.0000 0.33500  0.72000  0.45300  Biso   1.000  H
  H114     1.0000 0.66500  0.72000  0.04700  Biso   1.000  H
  H115     1.0000 0.83500  0.22000  0.45300  Biso   1.000  H
  H116     1.0000 0.16500  0.22000  0.04700  Biso   1.000  H
  H117     1.0000 0.66500  0.28000  0.54700  Biso   1.000  H
  H118     1.0000 0.33500  0.28000  0.95300  Biso   1.000  H
  H119     1.0000 0.16500  0.78000  0.54700  Biso   1.000  H
  H120     1.0000 0.83500  0.78000  0.95300  Biso   1.000  H
  H121     1.0000 0.37800  0.64900  0.44000  Biso   1.000  H
  H122     1.0000 0.62200  0.64900  0.06000  Biso   1.000  H
  H123     1.0000 0.87800  0.14900  0.44000  Biso   1.000  H
  H124     1.0000 0.12200  0.14900  0.06000  Biso   1.000  H
  H125     1.0000 0.62200  0.35100  0.56000  Biso   1.000  H
  H126     1.0000 0.37800  0.35100  0.94000  Biso   1.000  H
  H127     1.0000 0.12200  0.85100  0.56000  Biso   1.000  H
  H128     1.0000 0.87800  0.85100  0.94000  Biso   1.000  H
  O41      1.0000 0.42490  0.19790  0.45547  Biso   1.000  O
  O42      1.0000 0.57510  0.19790  0.04453  Biso   1.000  O
  O43      1.0000 0.92490  0.69790  0.45547  Biso   1.000  O
  O44      1.0000 0.07510  0.69790  0.04453  Biso   1.000  O
  O45      1.0000 0.57510  0.80210  0.54453  Biso   1.000  O
  O46      1.0000 0.42490  0.80210  0.95547  Biso   1.000  O
  O47      1.0000 0.07510  0.30210  0.54453  Biso   1.000  O
  O48      1.0000 0.92490  0.30210  0.95547  Biso   1.000  O
  H129     1.0000 0.42500  0.25700  0.46800  Biso   1.000  H
  H130     1.0000 0.57500  0.25700  0.03200  Biso   1.000  H
  H131     1.0000 0.92500  0.75700  0.46800  Biso   1.000  H
  H132     1.0000 0.07500  0.75700  0.03200  Biso   1.000  H
  H133     1.0000 0.57500  0.74300  0.53200  Biso   1.000  H
  H134     1.0000 0.42500  0.74300  0.96800  Biso   1.000  H
  H135     1.0000 0.07500  0.24300  0.53200  Biso   1.000  H
  H136     1.0000 0.92500  0.24300  0.96800  Biso   1.000  H
  H137     1.0000 0.45900  0.16900  0.46800  Biso   1.000  H
  H138     1.0000 0.54100  0.16900  0.03200  Biso   1.000  H
  H139     1.0000 0.95900  0.66900  0.46800  Biso   1.000  H
  H140     1.0000 0.04100  0.66900  0.03200  Biso   1.000  H
  H141     1.0000 0.54100  0.83100  0.53200  Biso   1.000  H
  H142     1.0000 0.45900  0.83100  0.96800  Biso   1.000  H
  H143     1.0000 0.04100  0.33100  0.53200  Biso   1.000  H
  H144     1.0000 0.95900  0.33100  0.96800  Biso   1.000  H
