data_image0
_cell_length_a       16.9076
_cell_length_b       11.8375
_cell_length_c       15.7567
_cell_angle_alpha    90
_cell_angle_beta     90
_cell_angle_gamma    90

_symmetry_space_group_name_H-M    "P 1"
_symmetry_int_tables_number       1

loop_
  _symmetry_equiv_pos_as_xyz
  'x, y, z'

loop_
  _atom_site_label
  _atom_site_occupancy
  _atom_site_fract_x
  _atom_site_fract_y
  _atom_site_fract_z
  _atom_site_thermal_displace_type
  _atom_site_B_iso_or_equiv
  _atom_site_type_symbol
  Cu1      1.0000 0.54862  0.17961  0.17770  Biso   1.000  Cu
  Cu2      1.0000 0.95138  0.32039  0.17770  Biso   1.000  Cu
  Cu3      1.0000 0.04862  0.82039  0.32230  Biso   1.000  Cu
  Cu4      1.0000 0.45138  0.67961  0.32230  Biso   1.000  Cu
  Cu5      1.0000 0.45138  0.82039  0.82230  Biso   1.000  Cu
  Cu6      1.0000 0.04862  0.67961  0.82230  Biso   1.000  Cu
  Cu7      1.0000 0.95138  0.17961  0.67770  Biso   1.000  Cu
  Cu8      1.0000 0.54862  0.32039  0.67770  Biso   1.000  Cu
  Na1      1.0000 0.54425  0.42037  0.27084  Biso   1.000  Na
  Na2      1.0000 0.95575  0.07963  0.27084  Biso   1.000  Na
  Na3      1.0000 0.04425  0.57963  0.22916  Biso   1.000  Na
  Na4      1.0000 0.45575  0.92037  0.22916  Biso   1.000  Na
  Na5      1.0000 0.45575  0.57963  0.72916  Biso   1.000  Na
  Na6      1.0000 0.04425  0.92037  0.72916  Biso   1.000  Na
  Na7      1.0000 0.95575  0.42037  0.77084  Biso   1.000  Na
  Na8      1.0000 0.54425  0.07963  0.77084  Biso   1.000  Na
  Na9      1.0000 0.53277  0.13592  0.97641  Biso   1.000  Na
  Na10     1.0000 0.96723  0.36408  0.97641  Biso   1.000  Na
  Na11     1.0000 0.03277  0.86408  0.52359  Biso   1.000  Na
  Na12     1.0000 0.46723  0.63592  0.52359  Biso   1.000  Na
  Na13     1.0000 0.46723  0.86408  0.02359  Biso   1.000  Na
  Na14     1.0000 0.03277  0.63592  0.02359  Biso   1.000  Na
  Na15     1.0000 0.96723  0.13592  0.47641  Biso   1.000  Na
  Na16     1.0000 0.53277  0.36408  0.47641  Biso   1.000  Na
  C1       1.0000 0.69290  0.37980  0.03200  Biso   1.000  C
  C2       1.0000 0.80710  0.12020  0.03200  Biso   1.000  C
  C3       1.0000 0.19290  0.62020  0.46800  Biso   1.000  C
  C4       1.0000 0.30710  0.87980  0.46800  Biso   1.000  C
  C5       1.0000 0.30710  0.62020  0.96800  Biso   1.000  C
  C6       1.0000 0.19290  0.87980  0.96800  Biso   1.000  C
  C7       1.0000 0.80710  0.37980  0.53200  Biso   1.000  C
  C8       1.0000 0.69290  0.12020  0.53200  Biso   1.000  C
  H1       1.0000 0.68600  0.46030  0.03210  Biso   1.000  H
  H2       1.0000 0.81400  0.03970  0.03210  Biso   1.000  H
  H3       1.0000 0.18600  0.53970  0.46790  Biso   1.000  H
  H4       1.0000 0.31400  0.96030  0.46790  Biso   1.000  H
  H5       1.0000 0.31400  0.53970  0.96790  Biso   1.000  H
  H6       1.0000 0.18600  0.96030  0.96790  Biso   1.000  H
  H7       1.0000 0.81400  0.46030  0.53210  Biso   1.000  H
  H8       1.0000 0.68600  0.03970  0.53210  Biso   1.000  H
  H9       1.0000 0.67800  0.35010  0.97760  Biso   1.000  H
  H10      1.0000 0.82200  0.14990  0.97760  Biso   1.000  H
  H11      1.0000 0.17800  0.64990  0.52240  Biso   1.000  H
  H12      1.0000 0.32200  0.85010  0.52240  Biso   1.000  H
  H13      1.0000 0.32200  0.64990  0.02240  Biso   1.000  H
  H14      1.0000 0.17800  0.85010  0.02240  Biso   1.000  H
  H15      1.0000 0.82200  0.35010  0.47760  Biso   1.000  H
  H16      1.0000 0.67800  0.14990  0.47760  Biso   1.000  H
  H17      1.0000 0.74730  0.36210  0.04300  Biso   1.000  H
  H18      1.0000 0.75270  0.13790  0.04300  Biso   1.000  H
  H19      1.0000 0.24730  0.63790  0.45700  Biso   1.000  H
  H20      1.0000 0.25270  0.86210  0.45700  Biso   1.000  H
  H21      1.0000 0.25270  0.63790  0.95700  Biso   1.000  H
  H22      1.0000 0.24730  0.86210  0.95700  Biso   1.000  H
  H23      1.0000 0.75270  0.36210  0.54300  Biso   1.000  H
  H24      1.0000 0.74730  0.13790  0.54300  Biso   1.000  H
  C9       1.0000 0.64202  0.32830  0.09940  Biso   1.000  C
  C10      1.0000 0.85798  0.17170  0.09940  Biso   1.000  C
  C11      1.0000 0.14202  0.67170  0.40060  Biso   1.000  C
  C12      1.0000 0.35798  0.82830  0.40060  Biso   1.000  C
  C13      1.0000 0.35798  0.67170  0.90060  Biso   1.000  C
  C14      1.0000 0.14202  0.82830  0.90060  Biso   1.000  C
  C15      1.0000 0.85798  0.32830  0.59940  Biso   1.000  C
  C16      1.0000 0.64202  0.17170  0.59940  Biso   1.000  C
  C17      1.0000 0.34510  0.35850  0.12140  Biso   1.000  C
  C18      1.0000 0.15490  0.14150  0.12140  Biso   1.000  C
  C19      1.0000 0.84510  0.64150  0.37860  Biso   1.000  C
  C20      1.0000 0.65490  0.85850  0.37860  Biso   1.000  C
  C21      1.0000 0.65490  0.64150  0.87860  Biso   1.000  C
  C22      1.0000 0.84510  0.85850  0.87860  Biso   1.000  C
  C23      1.0000 0.15490  0.35850  0.62140  Biso   1.000  C
  C24      1.0000 0.34510  0.14150  0.62140  Biso   1.000  C
  H25      1.0000 0.31820  0.35150  0.06800  Biso   1.000  H
  H26      1.0000 0.18180  0.14850  0.06800  Biso   1.000  H
  H27      1.0000 0.81820  0.64850  0.43200  Biso   1.000  H
  H28      1.0000 0.68180  0.85150  0.43200  Biso   1.000  H
  H29      1.0000 0.68180  0.64850  0.93200  Biso   1.000  H
  H30      1.0000 0.81820  0.85150  0.93200  Biso   1.000  H
  H31      1.0000 0.18180  0.35150  0.56800  Biso   1.000  H
  H32      1.0000 0.31820  0.14850  0.56800  Biso   1.000  H
  H33      1.0000 0.36400  0.43450  0.12800  Biso   1.000  H
  H34      1.0000 0.13600  0.06550  0.12800  Biso   1.000  H
  H35      1.0000 0.86400  0.56550  0.37200  Biso   1.000  H
  H36      1.0000 0.63600  0.93450  0.37200  Biso   1.000  H
  H37      1.0000 0.63600  0.56550  0.87200  Biso   1.000  H
  H38      1.0000 0.86400  0.93450  0.87200  Biso   1.000  H
  H39      1.0000 0.13600  0.43450  0.62800  Biso   1.000  H
  H40      1.0000 0.36400  0.06550  0.62800  Biso   1.000  H
  H41      1.0000 0.30920  0.34080  0.16670  Biso   1.000  H
  H42      1.0000 0.19080  0.15920  0.16670  Biso   1.000  H
  H43      1.0000 0.80920  0.65920  0.33330  Biso   1.000  H
  H44      1.0000 0.69080  0.84080  0.33330  Biso   1.000  H
  H45      1.0000 0.69080  0.65920  0.83330  Biso   1.000  H
  H46      1.0000 0.80920  0.84080  0.83330  Biso   1.000  H
  H47      1.0000 0.19080  0.34080  0.66670  Biso   1.000  H
  H48      1.0000 0.30920  0.15920  0.66670  Biso   1.000  H
  C25      1.0000 0.41390  0.27810  0.12380  Biso   1.000  C
  C26      1.0000 0.08610  0.22190  0.12380  Biso   1.000  C
  C27      1.0000 0.91390  0.72190  0.37620  Biso   1.000  C
  C28      1.0000 0.58610  0.77810  0.37620  Biso   1.000  C
  C29      1.0000 0.58610  0.72190  0.87620  Biso   1.000  C
  C30      1.0000 0.91390  0.77810  0.87620  Biso   1.000  C
  C31      1.0000 0.08610  0.27810  0.62380  Biso   1.000  C
  C32      1.0000 0.41390  0.22190  0.62380  Biso   1.000  C
  C33      1.0000 0.46370  0.09700  0.41600  Biso   1.000  C
  C34      1.0000 0.03630  0.40300  0.41600  Biso   1.000  C
  C35      1.0000 0.96370  0.90300  0.08400  Biso   1.000  C
  C36      1.0000 0.53630  0.59700  0.08400  Biso   1.000  C
  C37      1.0000 0.53630  0.90300  0.58400  Biso   1.000  C
  C38      1.0000 0.96370  0.59700  0.58400  Biso   1.000  C
  C39      1.0000 0.03630  0.09700  0.91600  Biso   1.000  C
  C40      1.0000 0.46370  0.40300  0.91600  Biso   1.000  C
  H49      1.0000 0.49000  0.11940  0.46730  Biso   1.000  H
  H50      1.0000 0.01000  0.38060  0.46730  Biso   1.000  H
  H51      1.0000 0.99000  0.88060  0.03270  Biso   1.000  H
  H52      1.0000 0.51000  0.61940  0.03270  Biso   1.000  H
  H53      1.0000 0.51000  0.88060  0.53270  Biso   1.000  H
  H54      1.0000 0.99000  0.61940  0.53270  Biso   1.000  H
  H55      1.0000 0.01000  0.11940  0.96730  Biso   1.000  H
  H56      1.0000 0.49000  0.38060  0.96730  Biso   1.000  H
  H57      1.0000 0.46870  0.01680  0.40870  Biso   1.000  H
  H58      1.0000 0.03130  0.48320  0.40870  Biso   1.000  H
  H59      1.0000 0.96870  0.98320  0.09130  Biso   1.000  H
  H60      1.0000 0.53130  0.51680  0.09130  Biso   1.000  H
  H61      1.0000 0.53130  0.98320  0.59130  Biso   1.000  H
  H62      1.0000 0.96870  0.51680  0.59130  Biso   1.000  H
  H63      1.0000 0.03130  0.01680  0.90870  Biso   1.000  H
  H64      1.0000 0.46870  0.48320  0.90870  Biso   1.000  H
  H65      1.0000 0.40880  0.11690  0.41940  Biso   1.000  H
  H66      1.0000 0.09120  0.38310  0.41940  Biso   1.000  H
  H67      1.0000 0.90880  0.88310  0.08060  Biso   1.000  H
  H68      1.0000 0.59120  0.61690  0.08060  Biso   1.000  H
  H69      1.0000 0.59120  0.88310  0.58060  Biso   1.000  H
  H70      1.0000 0.90880  0.61690  0.58060  Biso   1.000  H
  H71      1.0000 0.09120  0.11690  0.91940  Biso   1.000  H
  H72      1.0000 0.40880  0.38310  0.91940  Biso   1.000  H
  C41      1.0000 0.50080  0.15620  0.34205  Biso   1.000  C
  C42      1.0000 0.99920  0.34380  0.34205  Biso   1.000  C
  C43      1.0000 0.00080  0.84380  0.15795  Biso   1.000  C
  C44      1.0000 0.49920  0.65620  0.15795  Biso   1.000  C
  C45      1.0000 0.49920  0.84380  0.65795  Biso   1.000  C
  C46      1.0000 0.00080  0.65620  0.65795  Biso   1.000  C
  C47      1.0000 0.99920  0.15620  0.84205  Biso   1.000  C
  C48      1.0000 0.50080  0.34380  0.84205  Biso   1.000  C
  C49      1.0000 0.67180  0.88810  0.12790  Biso   1.000  C
  C50      1.0000 0.82820  0.61190  0.12790  Biso   1.000  C
  C51      1.0000 0.17180  0.11190  0.37210  Biso   1.000  C
  C52      1.0000 0.32820  0.38810  0.37210  Biso   1.000  C
  C53      1.0000 0.32820  0.11190  0.87210  Biso   1.000  C
  C54      1.0000 0.17180  0.38810  0.87210  Biso   1.000  C
  C55      1.0000 0.82820  0.88810  0.62790  Biso   1.000  C
  C56      1.0000 0.67180  0.61190  0.62790  Biso   1.000  C
  H73      1.0000 0.72170  0.90850  0.15270  Biso   1.000  H
  H74      1.0000 0.77830  0.59150  0.15270  Biso   1.000  H
  H75      1.0000 0.22170  0.09150  0.34730  Biso   1.000  H
  H76      1.0000 0.27830  0.40850  0.34730  Biso   1.000  H
  H77      1.0000 0.27830  0.09150  0.84730  Biso   1.000  H
  H78      1.0000 0.22170  0.40850  0.84730  Biso   1.000  H
  H79      1.0000 0.77830  0.90850  0.65270  Biso   1.000  H
  H80      1.0000 0.72170  0.59150  0.65270  Biso   1.000  H
  H81      1.0000 0.67950  0.86810  0.06940  Biso   1.000  H
  H82      1.0000 0.82050  0.63190  0.06940  Biso   1.000  H
  H83      1.0000 0.17950  0.13190  0.43060  Biso   1.000  H
  H84      1.0000 0.32050  0.36810  0.43060  Biso   1.000  H
  H85      1.0000 0.32050  0.13190  0.93060  Biso   1.000  H
  H86      1.0000 0.17950  0.36810  0.93060  Biso   1.000  H
  H87      1.0000 0.82050  0.86810  0.56940  Biso   1.000  H
  H88      1.0000 0.67950  0.63190  0.56940  Biso   1.000  H
  H89      1.0000 0.65000  0.82480  0.15790  Biso   1.000  H
  H90      1.0000 0.85000  0.67520  0.15790  Biso   1.000  H
  H91      1.0000 0.15000  0.17520  0.34210  Biso   1.000  H
  H92      1.0000 0.35000  0.32480  0.34210  Biso   1.000  H
  H93      1.0000 0.35000  0.17520  0.84210  Biso   1.000  H
  H94      1.0000 0.15000  0.32480  0.84210  Biso   1.000  H
  H95      1.0000 0.85000  0.82480  0.65790  Biso   1.000  H
  H96      1.0000 0.65000  0.67520  0.65790  Biso   1.000  H
  C57      1.0000 0.61618  0.98600  0.13350  Biso   1.000  C
  C58      1.0000 0.88382  0.51400  0.13350  Biso   1.000  C
  C59      1.0000 0.11618  0.01400  0.36650  Biso   1.000  C
  C60      1.0000 0.38382  0.48600  0.36650  Biso   1.000  C
  C61      1.0000 0.38382  0.01400  0.86650  Biso   1.000  C
  C62      1.0000 0.11618  0.48600  0.86650  Biso   1.000  C
  C63      1.0000 0.88382  0.98600  0.63350  Biso   1.000  C
  C64      1.0000 0.61618  0.51400  0.63350  Biso   1.000  C
  O1       1.0000 0.64211  0.36430  0.17279  Biso   1.000  O
  O2       1.0000 0.85789  0.13570  0.17279  Biso   1.000  O
  O3       1.0000 0.14211  0.63570  0.32721  Biso   1.000  O
  O4       1.0000 0.35789  0.86430  0.32721  Biso   1.000  O
  O5       1.0000 0.35789  0.63570  0.82721  Biso   1.000  O
  O6       1.0000 0.14211  0.86430  0.82721  Biso   1.000  O
  O7       1.0000 0.85789  0.36430  0.67279  Biso   1.000  O
  O8       1.0000 0.64211  0.13570  0.67279  Biso   1.000  O
  O9       1.0000 0.59943  0.24341  0.07685  Biso   1.000  O
  O10      1.0000 0.90057  0.25659  0.07685  Biso   1.000  O
  O11      1.0000 0.09943  0.75659  0.42315  Biso   1.000  O
  O12      1.0000 0.40057  0.74341  0.42315  Biso   1.000  O
  O13      1.0000 0.40057  0.75659  0.92315  Biso   1.000  O
  O14      1.0000 0.09943  0.74341  0.92315  Biso   1.000  O
  O15      1.0000 0.90057  0.24341  0.57685  Biso   1.000  O
  O16      1.0000 0.59943  0.25659  0.57685  Biso   1.000  O
  O17      1.0000 0.46780  0.29917  0.17793  Biso   1.000  O
  O18      1.0000 0.03220  0.20083  0.17793  Biso   1.000  O
  O19      1.0000 0.96780  0.70083  0.32207  Biso   1.000  O
  O20      1.0000 0.53220  0.79917  0.32207  Biso   1.000  O
  O21      1.0000 0.53220  0.70083  0.82207  Biso   1.000  O
  O22      1.0000 0.96780  0.79917  0.82207  Biso   1.000  O
  O23      1.0000 0.03220  0.29917  0.67793  Biso   1.000  O
  O24      1.0000 0.46780  0.20083  0.67793  Biso   1.000  O
  O25      1.0000 0.41618  0.19667  0.07467  Biso   1.000  O
  O26      1.0000 0.08382  0.30333  0.07467  Biso   1.000  O
  O27      1.0000 0.91618  0.80333  0.42533  Biso   1.000  O
  O28      1.0000 0.58382  0.69667  0.42533  Biso   1.000  O
  O29      1.0000 0.58382  0.80333  0.92533  Biso   1.000  O
  O30      1.0000 0.91618  0.69667  0.92533  Biso   1.000  O
  O31      1.0000 0.08382  0.19667  0.57467  Biso   1.000  O
  O32      1.0000 0.41618  0.30333  0.57467  Biso   1.000  O
  O33      1.0000 0.53123  0.24930  0.35087  Biso   1.000  O
  O34      1.0000 0.96877  0.25070  0.35087  Biso   1.000  O
  O35      1.0000 0.03123  0.75070  0.14913  Biso   1.000  O
  O36      1.0000 0.46877  0.74930  0.14913  Biso   1.000  O
  O37      1.0000 0.46877  0.75070  0.64913  Biso   1.000  O
  O38      1.0000 0.03123  0.74930  0.64913  Biso   1.000  O
  O39      1.0000 0.96877  0.24930  0.85087  Biso   1.000  O
  O40      1.0000 0.53123  0.25070  0.85087  Biso   1.000  O
  O41      1.0000 0.49645  0.10345  0.27137  Biso   1.000  O
  O42      1.0000 0.00355  0.39655  0.27137  Biso   1.000  O
  O43      1.0000 0.99645  0.89655  0.22863  Biso   1.000  O
  O44      1.0000 0.50355  0.60345  0.22863  Biso   1.000  O
  O45      1.0000 0.50355  0.89655  0.72863  Biso   1.000  O
  O46      1.0000 0.99645  0.60345  0.72863  Biso   1.000  O
  O47      1.0000 0.00355  0.10345  0.77137  Biso   1.000  O
  O48      1.0000 0.49645  0.39655  0.77137  Biso   1.000  O
  O49      1.0000 0.63369  0.06590  0.18379  Biso   1.000  O
  O50      1.0000 0.86631  0.43410  0.18379  Biso   1.000  O
  O51      1.0000 0.13369  0.93410  0.31621  Biso   1.000  O
  O52      1.0000 0.36631  0.56590  0.31621  Biso   1.000  O
  O53      1.0000 0.36631  0.93410  0.81621  Biso   1.000  O
  O54      1.0000 0.13369  0.56590  0.81621  Biso   1.000  O
  O55      1.0000 0.86631  0.06590  0.68379  Biso   1.000  O
  O56      1.0000 0.63369  0.43410  0.68379  Biso   1.000  O
  O57      1.0000 0.55397  0.98672  0.09246  Biso   1.000  O
  O58      1.0000 0.94603  0.51328  0.09246  Biso   1.000  O
  O59      1.0000 0.05397  0.01328  0.40754  Biso   1.000  O
  O60      1.0000 0.44603  0.48672  0.40754  Biso   1.000  O
  O61      1.0000 0.44603  0.01328  0.90754  Biso   1.000  O
  O62      1.0000 0.05397  0.48672  0.90754  Biso   1.000  O
  O63      1.0000 0.94603  0.98672  0.59246  Biso   1.000  O
  O64      1.0000 0.55397  0.51328  0.59246  Biso   1.000  O
  O65      1.0000 0.62516  0.46830  0.39065  Biso   1.000  O
  O66      1.0000 0.87484  0.03170  0.39065  Biso   1.000  O
  O67      1.0000 0.12516  0.53170  0.10935  Biso   1.000  O
  O68      1.0000 0.37484  0.96830  0.10935  Biso   1.000  O
  O69      1.0000 0.37484  0.53170  0.60935  Biso   1.000  O
  O70      1.0000 0.12516  0.96830  0.60935  Biso   1.000  O
  O71      1.0000 0.87484  0.46830  0.89065  Biso   1.000  O
  O72      1.0000 0.62516  0.03170  0.89065  Biso   1.000  O
  H97      1.0000 0.66830  0.44700  0.37300  Biso   1.000  H
  H98      1.0000 0.83170  0.05300  0.37300  Biso   1.000  H
  H99      1.0000 0.16830  0.55300  0.12700  Biso   1.000  H
  H100     1.0000 0.33170  0.94700  0.12700  Biso   1.000  H
  H101     1.0000 0.33170  0.55300  0.62700  Biso   1.000  H
  H102     1.0000 0.16830  0.94700  0.62700  Biso   1.000  H
  H103     1.0000 0.83170  0.44700  0.87300  Biso   1.000  H
  H104     1.0000 0.66830  0.05300  0.87300  Biso   1.000  H
  H105     1.0000 0.62260  0.53420  0.40600  Biso   1.000  H
  H106     1.0000 0.87740  0.96580  0.40600  Biso   1.000  H
  H107     1.0000 0.12260  0.46580  0.09400  Biso   1.000  H
  H108     1.0000 0.37740  0.03420  0.09400  Biso   1.000  H
  H109     1.0000 0.37740  0.46580  0.59400  Biso   1.000  H
  H110     1.0000 0.12260  0.03420  0.59400  Biso   1.000  H
  H111     1.0000 0.87740  0.53420  0.90600  Biso   1.000  H
  H112     1.0000 0.62260  0.96580  0.90600  Biso   1.000  H
  O73      1.0000 0.74292  0.12610  0.31510  Biso   1.000  O
  O74      1.0000 0.75708  0.37390  0.31510  Biso   1.000  O
  O75      1.0000 0.24292  0.87390  0.18490  Biso   1.000  O
  O76      1.0000 0.25708  0.62610  0.18490  Biso   1.000  O
  O77      1.0000 0.25708  0.87390  0.68490  Biso   1.000  O
  O78      1.0000 0.24292  0.62610  0.68490  Biso   1.000  O
  O79      1.0000 0.75708  0.12610  0.81510  Biso   1.000  O
  O80      1.0000 0.74292  0.37390  0.81510  Biso   1.000  O
  H113     1.0000 0.72000  0.18200  0.33300  Biso   1.000  H
  H114     1.0000 0.78000  0.31800  0.33300  Biso   1.000  H
  H115     1.0000 0.22000  0.81800  0.16700  Biso   1.000  H
  H116     1.0000 0.28000  0.68200  0.16700  Biso   1.000  H
  H117     1.0000 0.28000  0.81800  0.66700  Biso   1.000  H
  H118     1.0000 0.22000  0.68200  0.66700  Biso   1.000  H
  H119     1.0000 0.78000  0.18200  0.83300  Biso   1.000  H
  H120     1.0000 0.72000  0.31800  0.83300  Biso   1.000  H
  H121     1.0000 0.72200  0.09300  0.27500  Biso   1.000  H
  H122     1.0000 0.77800  0.40700  0.27500  Biso   1.000  H
  H123     1.0000 0.22200  0.90700  0.22500  Biso   1.000  H
  H124     1.0000 0.27800  0.59300  0.22500  Biso   1.000  H
  H125     1.0000 0.27800  0.90700  0.72500  Biso   1.000  H
  H126     1.0000 0.22200  0.59300  0.72500  Biso   1.000  H
  H127     1.0000 0.77800  0.09300  0.77500  Biso   1.000  H
  H128     1.0000 0.72200  0.40700  0.77500  Biso   1.000  H
