data_image0
_cell_length_a       6.8727
_cell_length_b       10.223
_cell_length_c       14.1923
_cell_angle_alpha    90
_cell_angle_beta     90.01
_cell_angle_gamma    90

_symmetry_space_group_name_H-M    "P 1"
_symmetry_int_tables_number       1

loop_
  _symmetry_equiv_pos_as_xyz
  'x, y, z'

loop_
  _atom_site_label
  _atom_site_occupancy
  _atom_site_fract_x
  _atom_site_fract_y
  _atom_site_fract_z
  _atom_site_thermal_displace_type
  _atom_site_B_iso_or_equiv
  _atom_site_type_symbol
  Au1      1.0000 0.50000  0.00000  0.00000  Biso   1.000  Au
  Au2      1.0000 0.50000  0.50000  0.50000  Biso   1.000  Au
  Au3      1.0000 0.00000  0.00000  0.00000  Biso   1.000  Au
  Au4      1.0000 0.00000  0.50000  0.50000  Biso   1.000  Au
  Cu1      1.0000 0.50000  0.50000  0.00000  Biso   1.000  Cu
  Cu2      1.0000 0.50000  0.00000  0.50000  Biso   1.000  Cu
  S1       1.0000 0.50000  0.45842  0.25341  Biso   1.000  S
  S2       1.0000 0.50000  0.95842  0.24659  Biso   1.000  S
  S3       1.0000 0.50000  0.54158  0.74659  Biso   1.000  S
  S4       1.0000 0.50000  0.04158  0.75341  Biso   1.000  S
  N1       1.0000 0.20170  0.49990  0.00004  Biso   1.000  N
  N2       1.0000 0.79830  0.99990  0.49996  Biso   1.000  N
  N3       1.0000 0.79830  0.50010  0.99996  Biso   1.000  N
  N4       1.0000 0.20170  0.00010  0.50004  Biso   1.000  N
  N5       1.0000 0.49970  0.69390  0.99527  Biso   1.000  N
  N6       1.0000 0.50030  0.19390  0.50473  Biso   1.000  N
  N7       1.0000 0.50030  0.30610  0.00473  Biso   1.000  N
  N8       1.0000 0.49970  0.80610  0.49527  Biso   1.000  N
  C1       1.0000 0.49990  0.80640  0.99700  Biso   1.000  C
  C2       1.0000 0.50010  0.30640  0.50300  Biso   1.000  C
  C3       1.0000 0.50010  0.19360  0.00300  Biso   1.000  C
  C4       1.0000 0.49990  0.69360  0.49700  Biso   1.000  C
  O1       1.0000 0.50020  0.53680  0.16215  Biso   1.000  O
  O2       1.0000 0.49980  0.03680  0.33785  Biso   1.000  O
  O3       1.0000 0.49980  0.46320  0.83785  Biso   1.000  O
  O4       1.0000 0.50020  0.96320  0.66215  Biso   1.000  O
  C5       1.0000 0.69490  0.34260  0.24430  Biso   1.000  C
  C6       1.0000 0.30510  0.84260  0.25570  Biso   1.000  C
  C7       1.0000 0.30510  0.65740  0.75570  Biso   1.000  C
  C8       1.0000 0.69490  0.15740  0.74430  Biso   1.000  C
  C9       1.0000 0.30480  0.34280  0.24430  Biso   1.000  C
  C10      1.0000 0.69520  0.84280  0.25570  Biso   1.000  C
  C11      1.0000 0.69520  0.65720  0.75570  Biso   1.000  C
  C12      1.0000 0.30480  0.15720  0.74430  Biso   1.000  C
  C13      1.0000 0.10080  0.56460  0.06610  Biso   1.000  C
  C14      1.0000 0.89920  0.06460  0.43390  Biso   1.000  C
  C15      1.0000 0.89920  0.43540  0.93390  Biso   1.000  C
  C16      1.0000 0.10080  0.93540  0.56610  Biso   1.000  C
  H1       1.0000 0.16870  0.61120  0.11380  Biso   1.000  H
  H2       1.0000 0.83130  0.11120  0.38620  Biso   1.000  H
  H3       1.0000 0.83130  0.38880  0.88620  Biso   1.000  H
  H4       1.0000 0.16870  0.88880  0.61380  Biso   1.000  H
  C17      1.0000 0.10120  0.43530  0.93400  Biso   1.000  C
  C18      1.0000 0.89880  0.93530  0.56600  Biso   1.000  C
  C19      1.0000 0.89880  0.56470  0.06600  Biso   1.000  C
  C20      1.0000 0.10120  0.06470  0.43400  Biso   1.000  C
  H5       1.0000 0.16920  0.38860  0.88640  Biso   1.000  H
  H6       1.0000 0.83080  0.88860  0.61360  Biso   1.000  H
  H7       1.0000 0.83080  0.61140  0.11360  Biso   1.000  H
  H8       1.0000 0.16920  0.11140  0.38640  Biso   1.000  H
  N9       1.0000 0.99990  0.11470  0.20480  Biso   1.000  N
  N10      1.0000 0.00010  0.61470  0.29520  Biso   1.000  N
  N11      1.0000 0.00010  0.88530  0.79520  Biso   1.000  N
  N12      1.0000 0.99990  0.38530  0.70480  Biso   1.000  N
  C21      1.0000 0.99990  0.07520  0.12940  Biso   1.000  C
  C22      1.0000 0.00010  0.57520  0.37060  Biso   1.000  C
  C23      1.0000 0.00010  0.92480  0.87060  Biso   1.000  C
  C24      1.0000 0.99990  0.42480  0.62940  Biso   1.000  C
