data_image0
_cell_length_a       12.436
_cell_length_b       8.395
_cell_length_c       20.747
_cell_angle_alpha    90
_cell_angle_beta     96.662
_cell_angle_gamma    90

_symmetry_space_group_name_H-M    "P 1"
_symmetry_int_tables_number       1

loop_
  _symmetry_equiv_pos_as_xyz
  'x, y, z'

loop_
  _atom_site_label
  _atom_site_occupancy
  _atom_site_fract_x
  _atom_site_fract_y
  _atom_site_fract_z
  _atom_site_thermal_displace_type
  _atom_site_B_iso_or_equiv
  _atom_site_type_symbol
  Cu1      1.0000 0.68776  0.13100  0.32057  Biso   1.000  Cu
  Cu2      1.0000 0.18776  0.63100  0.32057  Biso   1.000  Cu
  Cu3      1.0000 0.68776  0.86900  0.82057  Biso   1.000  Cu
  Cu4      1.0000 0.18776  0.36900  0.82057  Biso   1.000  Cu
  Cu5      1.0000 0.31224  0.86900  0.67943  Biso   1.000  Cu
  Cu6      1.0000 0.81224  0.36900  0.67943  Biso   1.000  Cu
  Cu7      1.0000 0.31224  0.13100  0.17943  Biso   1.000  Cu
  Cu8      1.0000 0.81224  0.63100  0.17943  Biso   1.000  Cu
  N1       1.0000 0.71890  0.89770  0.32540  Biso   1.000  N
  N2       1.0000 0.21890  0.39770  0.32540  Biso   1.000  N
  N3       1.0000 0.71890  0.10230  0.82540  Biso   1.000  N
  N4       1.0000 0.21890  0.60230  0.82540  Biso   1.000  N
  N5       1.0000 0.28110  0.10230  0.67460  Biso   1.000  N
  N6       1.0000 0.78110  0.60230  0.67460  Biso   1.000  N
  N7       1.0000 0.28110  0.89770  0.17460  Biso   1.000  N
  N8       1.0000 0.78110  0.39770  0.17460  Biso   1.000  N
  H1       1.0000 0.65640  0.84270  0.32060  Biso   1.000  H
  H2       1.0000 0.15640  0.34270  0.32060  Biso   1.000  H
  H3       1.0000 0.65640  0.15730  0.82060  Biso   1.000  H
  H4       1.0000 0.15640  0.65730  0.82060  Biso   1.000  H
  H5       1.0000 0.34360  0.15730  0.67940  Biso   1.000  H
  H6       1.0000 0.84360  0.65730  0.67940  Biso   1.000  H
  H7       1.0000 0.34360  0.84270  0.17940  Biso   1.000  H
  H8       1.0000 0.84360  0.34270  0.17940  Biso   1.000  H
  H9       1.0000 0.75770  0.86960  0.29320  Biso   1.000  H
  H10      1.0000 0.25770  0.36960  0.29320  Biso   1.000  H
  H11      1.0000 0.75770  0.13040  0.79320  Biso   1.000  H
  H12      1.0000 0.25770  0.63040  0.79320  Biso   1.000  H
  H13      1.0000 0.24230  0.13040  0.70680  Biso   1.000  H
  H14      1.0000 0.74230  0.63040  0.70680  Biso   1.000  H
  H15      1.0000 0.24230  0.86960  0.20680  Biso   1.000  H
  H16      1.0000 0.74230  0.36960  0.20680  Biso   1.000  H
  N9       1.0000 0.73080  0.12450  0.41624  Biso   1.000  N
  N10      1.0000 0.23080  0.62450  0.41624  Biso   1.000  N
  N11      1.0000 0.73080  0.87550  0.91624  Biso   1.000  N
  N12      1.0000 0.23080  0.37550  0.91624  Biso   1.000  N
  N13      1.0000 0.26920  0.87550  0.58376  Biso   1.000  N
  N14      1.0000 0.76920  0.37550  0.58376  Biso   1.000  N
  N15      1.0000 0.26920  0.12450  0.08376  Biso   1.000  N
  N16      1.0000 0.76920  0.62450  0.08376  Biso   1.000  N
  H17      1.0000 0.78430  0.19530  0.42700  Biso   1.000  H
  H18      1.0000 0.28430  0.69530  0.42700  Biso   1.000  H
  H19      1.0000 0.78430  0.80470  0.92700  Biso   1.000  H
  H20      1.0000 0.28430  0.30470  0.92700  Biso   1.000  H
  H21      1.0000 0.21570  0.80470  0.57300  Biso   1.000  H
  H22      1.0000 0.71570  0.30470  0.57300  Biso   1.000  H
  H23      1.0000 0.21570  0.19530  0.07300  Biso   1.000  H
  H24      1.0000 0.71570  0.69530  0.07300  Biso   1.000  H
  H25      1.0000 0.67400  0.15220  0.43700  Biso   1.000  H
  H26      1.0000 0.17400  0.65220  0.43700  Biso   1.000  H
  H27      1.0000 0.67400  0.84780  0.93700  Biso   1.000  H
  H28      1.0000 0.17400  0.34780  0.93700  Biso   1.000  H
  H29      1.0000 0.32600  0.84780  0.56300  Biso   1.000  H
  H30      1.0000 0.82600  0.34780  0.56300  Biso   1.000  H
  H31      1.0000 0.32600  0.15220  0.06300  Biso   1.000  H
  H32      1.0000 0.82600  0.65220  0.06300  Biso   1.000  H
  N17      1.0000 0.62670  0.11230  0.22897  Biso   1.000  N
  N18      1.0000 0.12670  0.61230  0.22897  Biso   1.000  N
  N19      1.0000 0.62670  0.88770  0.72897  Biso   1.000  N
  N20      1.0000 0.12670  0.38770  0.72897  Biso   1.000  N
  N21      1.0000 0.37330  0.88770  0.77103  Biso   1.000  N
  N22      1.0000 0.87330  0.38770  0.77103  Biso   1.000  N
  N23      1.0000 0.37330  0.11230  0.27103  Biso   1.000  N
  N24      1.0000 0.87330  0.61230  0.27103  Biso   1.000  N
  N25      1.0000 0.52320  0.03050  0.12760  Biso   1.000  N
  N26      1.0000 0.02320  0.53050  0.12760  Biso   1.000  N
  N27      1.0000 0.52320  0.96950  0.62760  Biso   1.000  N
  N28      1.0000 0.02320  0.46950  0.62760  Biso   1.000  N
  N29      1.0000 0.47680  0.96950  0.87240  Biso   1.000  N
  N30      1.0000 0.97680  0.46950  0.87240  Biso   1.000  N
  N31      1.0000 0.47680  0.03050  0.37240  Biso   1.000  N
  N32      1.0000 0.97680  0.53050  0.37240  Biso   1.000  N
  N33      1.0000 0.59040  0.87350  0.04100  Biso   1.000  N
  N34      1.0000 0.09040  0.37350  0.04100  Biso   1.000  N
  N35      1.0000 0.59040  0.12650  0.54100  Biso   1.000  N
  N36      1.0000 0.09040  0.62650  0.54100  Biso   1.000  N
  N37      1.0000 0.40960  0.12650  0.95900  Biso   1.000  N
  N38      1.0000 0.90960  0.62650  0.95900  Biso   1.000  N
  N39      1.0000 0.40960  0.87350  0.45900  Biso   1.000  N
  N40      1.0000 0.90960  0.37350  0.45900  Biso   1.000  N
  N41      1.0000 0.63790  0.35400  0.32460  Biso   1.000  N
  N42      1.0000 0.13790  0.85400  0.32460  Biso   1.000  N
  N43      1.0000 0.63790  0.64600  0.82460  Biso   1.000  N
  N44      1.0000 0.13790  0.14600  0.82460  Biso   1.000  N
  N45      1.0000 0.36210  0.64600  0.67540  Biso   1.000  N
  N46      1.0000 0.86210  0.14600  0.67540  Biso   1.000  N
  N47      1.0000 0.36210  0.35400  0.17540  Biso   1.000  N
  N48      1.0000 0.86210  0.85400  0.17540  Biso   1.000  N
  N49      1.0000 0.55120  0.60720  0.34287  Biso   1.000  N
  N50      1.0000 0.05120  0.10720  0.34287  Biso   1.000  N
  N51      1.0000 0.55120  0.39280  0.84287  Biso   1.000  N
  N52      1.0000 0.05120  0.89280  0.84287  Biso   1.000  N
  N53      1.0000 0.44880  0.39280  0.65713  Biso   1.000  N
  N54      1.0000 0.94880  0.89280  0.65713  Biso   1.000  N
  N55      1.0000 0.44880  0.60720  0.15713  Biso   1.000  N
  N56      1.0000 0.94880  0.10720  0.15713  Biso   1.000  N
  N57      1.0000 0.36600  0.68580  0.30056  Biso   1.000  N
  N58      1.0000 0.86600  0.18580  0.30056  Biso   1.000  N
  N59      1.0000 0.36600  0.31420  0.80056  Biso   1.000  N
  N60      1.0000 0.86600  0.81420  0.80056  Biso   1.000  N
  N61      1.0000 0.63400  0.31420  0.69944  Biso   1.000  N
  N62      1.0000 0.13400  0.81420  0.69944  Biso   1.000  N
  N63      1.0000 0.63400  0.68580  0.19944  Biso   1.000  N
  N64      1.0000 0.13400  0.18580  0.19944  Biso   1.000  N
  C1       1.0000 0.77890  0.86050  0.38730  Biso   1.000  C
  C2       1.0000 0.27890  0.36050  0.38730  Biso   1.000  C
  C3       1.0000 0.77890  0.13950  0.88730  Biso   1.000  C
  C4       1.0000 0.27890  0.63950  0.88730  Biso   1.000  C
  C5       1.0000 0.22110  0.13950  0.61270  Biso   1.000  C
  C6       1.0000 0.72110  0.63950  0.61270  Biso   1.000  C
  C7       1.0000 0.22110  0.86050  0.11270  Biso   1.000  C
  C8       1.0000 0.72110  0.36050  0.11270  Biso   1.000  C
  H33      1.0000 0.75670  0.75570  0.40040  Biso   1.000  H
  H34      1.0000 0.25670  0.25570  0.40040  Biso   1.000  H
  H35      1.0000 0.75670  0.24430  0.90040  Biso   1.000  H
  H36      1.0000 0.25670  0.74430  0.90040  Biso   1.000  H
  H37      1.0000 0.24330  0.24430  0.59960  Biso   1.000  H
  H38      1.0000 0.74330  0.74430  0.59960  Biso   1.000  H
  H39      1.0000 0.24330  0.75570  0.09960  Biso   1.000  H
  H40      1.0000 0.74330  0.25570  0.09960  Biso   1.000  H
  H41      1.0000 0.85500  0.85420  0.38150  Biso   1.000  H
  H42      1.0000 0.35500  0.35420  0.38150  Biso   1.000  H
  H43      1.0000 0.85500  0.14580  0.88150  Biso   1.000  H
  H44      1.0000 0.35500  0.64580  0.88150  Biso   1.000  H
  H45      1.0000 0.14500  0.14580  0.61850  Biso   1.000  H
  H46      1.0000 0.64500  0.64580  0.61850  Biso   1.000  H
  H47      1.0000 0.14500  0.85420  0.11850  Biso   1.000  H
  H48      1.0000 0.64500  0.35420  0.11850  Biso   1.000  H
  C9       1.0000 0.76790  0.96490  0.43700  Biso   1.000  C
  C10      1.0000 0.26790  0.46490  0.43700  Biso   1.000  C
  C11      1.0000 0.76790  0.03510  0.93700  Biso   1.000  C
  C12      1.0000 0.26790  0.53510  0.93700  Biso   1.000  C
  C13      1.0000 0.23210  0.03510  0.56300  Biso   1.000  C
  C14      1.0000 0.73210  0.53510  0.56300  Biso   1.000  C
  C15      1.0000 0.23210  0.96490  0.06300  Biso   1.000  C
  C16      1.0000 0.73210  0.46490  0.06300  Biso   1.000  C
  H49      1.0000 0.70020  0.92390  0.45060  Biso   1.000  H
  H50      1.0000 0.20020  0.42390  0.45060  Biso   1.000  H
  H51      1.0000 0.70020  0.07610  0.95060  Biso   1.000  H
  H52      1.0000 0.20020  0.57610  0.95060  Biso   1.000  H
  H53      1.0000 0.29980  0.07610  0.54940  Biso   1.000  H
  H54      1.0000 0.79980  0.57610  0.54940  Biso   1.000  H
  H55      1.0000 0.29980  0.92390  0.04940  Biso   1.000  H
  H56      1.0000 0.79980  0.42390  0.04940  Biso   1.000  H
  C17      1.0000 0.83650  0.95480  0.49980  Biso   1.000  C
  C18      1.0000 0.33650  0.45480  0.49980  Biso   1.000  C
  C19      1.0000 0.83650  0.04520  0.99980  Biso   1.000  C
  C20      1.0000 0.33650  0.54520  0.99980  Biso   1.000  C
  C21      1.0000 0.16350  0.04520  0.50020  Biso   1.000  C
  C22      1.0000 0.66350  0.54520  0.50020  Biso   1.000  C
  C23      1.0000 0.16350  0.95480  0.00020  Biso   1.000  C
  C24      1.0000 0.66350  0.45480  0.00020  Biso   1.000  C
  H57      1.0000 0.85240  0.84520  0.51000  Biso   1.000  H
  H58      1.0000 0.35240  0.34520  0.51000  Biso   1.000  H
  H59      1.0000 0.85240  0.15480  0.01000  Biso   1.000  H
  H60      1.0000 0.35240  0.65480  0.01000  Biso   1.000  H
  H61      1.0000 0.14760  0.15480  0.49000  Biso   1.000  H
  H62      1.0000 0.64760  0.65480  0.49000  Biso   1.000  H
  H63      1.0000 0.14760  0.84520  0.99000  Biso   1.000  H
  H64      1.0000 0.64760  0.34520  0.99000  Biso   1.000  H
  H65      1.0000 0.79900  0.00100  0.53310  Biso   1.000  H
  H66      1.0000 0.29900  0.50100  0.53310  Biso   1.000  H
  H67      1.0000 0.79900  0.99900  0.03310  Biso   1.000  H
  H68      1.0000 0.29900  0.49900  0.03310  Biso   1.000  H
  H69      1.0000 0.20100  0.99900  0.46690  Biso   1.000  H
  H70      1.0000 0.70100  0.49900  0.46690  Biso   1.000  H
  H71      1.0000 0.20100  0.00100  0.96690  Biso   1.000  H
  H72      1.0000 0.70100  0.50100  0.96690  Biso   1.000  H
  H73      1.0000 0.90280  0.01170  0.49710  Biso   1.000  H
  H74      1.0000 0.40280  0.51170  0.49710  Biso   1.000  H
  H75      1.0000 0.90280  0.98830  0.99710  Biso   1.000  H
  H76      1.0000 0.40280  0.48830  0.99710  Biso   1.000  H
  H77      1.0000 0.09720  0.98830  0.50290  Biso   1.000  H
  H78      1.0000 0.59720  0.48830  0.50290  Biso   1.000  H
  H79      1.0000 0.09720  0.01170  0.00290  Biso   1.000  H
  H80      1.0000 0.59720  0.51170  0.00290  Biso   1.000  H
  C25      1.0000 0.58270  0.06750  0.18090  Biso   1.000  C
  C26      1.0000 0.08270  0.56750  0.18090  Biso   1.000  C
  C27      1.0000 0.58270  0.93250  0.68090  Biso   1.000  C
  C28      1.0000 0.08270  0.43250  0.68090  Biso   1.000  C
  C29      1.0000 0.41730  0.93250  0.81910  Biso   1.000  C
  C30      1.0000 0.91730  0.43250  0.81910  Biso   1.000  C
  C31      1.0000 0.41730  0.06750  0.31910  Biso   1.000  C
  C32      1.0000 0.91730  0.56750  0.31910  Biso   1.000  C
  C33      1.0000 0.56340  0.94650  0.08300  Biso   1.000  C
  C34      1.0000 0.06340  0.44650  0.08300  Biso   1.000  C
  C35      1.0000 0.56340  0.05350  0.58300  Biso   1.000  C
  C36      1.0000 0.06340  0.55350  0.58300  Biso   1.000  C
  C37      1.0000 0.43660  0.05350  0.91700  Biso   1.000  C
  C38      1.0000 0.93660  0.55350  0.91700  Biso   1.000  C
  C39      1.0000 0.43660  0.94650  0.41700  Biso   1.000  C
  C40      1.0000 0.93660  0.44650  0.41700  Biso   1.000  C
  C41      1.0000 0.59230  0.46990  0.33150  Biso   1.000  C
  C42      1.0000 0.09230  0.96990  0.33150  Biso   1.000  C
  C43      1.0000 0.59230  0.53010  0.83150  Biso   1.000  C
  C44      1.0000 0.09230  0.03010  0.83150  Biso   1.000  C
  C45      1.0000 0.40770  0.53010  0.66850  Biso   1.000  C
  C46      1.0000 0.90770  0.03010  0.66850  Biso   1.000  C
  C47      1.0000 0.40770  0.46990  0.16850  Biso   1.000  C
  C48      1.0000 0.90770  0.96990  0.16850  Biso   1.000  C
  C49      1.0000 0.45140  0.64230  0.31896  Biso   1.000  C
  C50      1.0000 0.95140  0.14230  0.31896  Biso   1.000  C
  C51      1.0000 0.45140  0.35770  0.81896  Biso   1.000  C
  C52      1.0000 0.95140  0.85770  0.81896  Biso   1.000  C
  C53      1.0000 0.54860  0.35770  0.68104  Biso   1.000  C
  C54      1.0000 0.04860  0.85770  0.68104  Biso   1.000  C
  C55      1.0000 0.54860  0.64230  0.18104  Biso   1.000  C
  C56      1.0000 0.04860  0.14230  0.18104  Biso   1.000  C
