data_image0
_cell_length_a       18.861
_cell_length_b       16.141
_cell_length_c       13.487
_cell_angle_alpha    90
_cell_angle_beta     90
_cell_angle_gamma    90

_symmetry_space_group_name_H-M    "P 1"
_symmetry_int_tables_number       1

loop_
  _symmetry_equiv_pos_as_xyz
  'x, y, z'

loop_
  _atom_site_label
  _atom_site_occupancy
  _atom_site_fract_x
  _atom_site_fract_y
  _atom_site_fract_z
  _atom_site_thermal_displace_type
  _atom_site_B_iso_or_equiv
  _atom_site_type_symbol
  Cu1      1.0000 0.26884  0.76048  0.57260  Biso   1.000  Cu
  Cu2      1.0000 0.23116  0.23952  0.57260  Biso   1.000  Cu
  Cu3      1.0000 0.23116  0.26048  0.92740  Biso   1.000  Cu
  Cu4      1.0000 0.26884  0.73952  0.92740  Biso   1.000  Cu
  Cu5      1.0000 0.73116  0.23952  0.42740  Biso   1.000  Cu
  Cu6      1.0000 0.76884  0.76048  0.42740  Biso   1.000  Cu
  Cu7      1.0000 0.76884  0.73952  0.07260  Biso   1.000  Cu
  Cu8      1.0000 0.73116  0.26048  0.07260  Biso   1.000  Cu
  S1       1.0000 0.38108  0.75000  0.75000  Biso   1.000  S
  S2       1.0000 0.11892  0.25000  0.75000  Biso   1.000  S
  S3       1.0000 0.61892  0.25000  0.25000  Biso   1.000  S
  S4       1.0000 0.88108  0.75000  0.25000  Biso   1.000  S
  S5       1.0000 0.15844  0.75000  0.75000  Biso   1.000  S
  S6       1.0000 0.34156  0.25000  0.75000  Biso   1.000  S
  S7       1.0000 0.84156  0.25000  0.25000  Biso   1.000  S
  S8       1.0000 0.65844  0.75000  0.25000  Biso   1.000  S
  O1       1.0000 0.21570  0.89850  0.56970  Biso   1.000  O
  O2       1.0000 0.28430  0.10150  0.56970  Biso   1.000  O
  O3       1.0000 0.28430  0.39850  0.93030  Biso   1.000  O
  O4       1.0000 0.21570  0.60150  0.93030  Biso   1.000  O
  O5       1.0000 0.78430  0.10150  0.43030  Biso   1.000  O
  O6       1.0000 0.71570  0.89850  0.43030  Biso   1.000  O
  O7       1.0000 0.71570  0.60150  0.06970  Biso   1.000  O
  O8       1.0000 0.78430  0.39850  0.06970  Biso   1.000  O
  H1       1.0000 0.21200  0.94910  0.55300  Biso   1.000  H
  H2       1.0000 0.28800  0.05090  0.55300  Biso   1.000  H
  H3       1.0000 0.28800  0.44910  0.94700  Biso   1.000  H
  H4       1.0000 0.21200  0.55090  0.94700  Biso   1.000  H
  H5       1.0000 0.78800  0.05090  0.44700  Biso   1.000  H
  H6       1.0000 0.71200  0.94910  0.44700  Biso   1.000  H
  H7       1.0000 0.71200  0.55090  0.05300  Biso   1.000  H
  H8       1.0000 0.78800  0.44910  0.05300  Biso   1.000  H
  H9       1.0000 0.17900  0.89600  0.60700  Biso   1.000  H
  H10      1.0000 0.32100  0.10400  0.60700  Biso   1.000  H
  H11      1.0000 0.32100  0.39600  0.89300  Biso   1.000  H
  H12      1.0000 0.17900  0.60400  0.89300  Biso   1.000  H
  H13      1.0000 0.82100  0.10400  0.39300  Biso   1.000  H
  H14      1.0000 0.67900  0.89600  0.39300  Biso   1.000  H
  H15      1.0000 0.67900  0.60400  0.10700  Biso   1.000  H
  H16      1.0000 0.82100  0.39600  0.10700  Biso   1.000  H
  O9       1.0000 0.32610  0.61220  0.56520  Biso   1.000  O
  O10      1.0000 0.17390  0.38780  0.56520  Biso   1.000  O
  O11      1.0000 0.17390  0.11220  0.93480  Biso   1.000  O
  O12      1.0000 0.32610  0.88780  0.93480  Biso   1.000  O
  O13      1.0000 0.67390  0.38780  0.43480  Biso   1.000  O
  O14      1.0000 0.82610  0.61220  0.43480  Biso   1.000  O
  O15      1.0000 0.82610  0.88780  0.06520  Biso   1.000  O
  O16      1.0000 0.67390  0.11220  0.06520  Biso   1.000  O
  H17      1.0000 0.35600  0.60600  0.51500  Biso   1.000  H
  H18      1.0000 0.14400  0.39400  0.51500  Biso   1.000  H
  H19      1.0000 0.14400  0.10600  0.98500  Biso   1.000  H
  H20      1.0000 0.35600  0.89400  0.98500  Biso   1.000  H
  H21      1.0000 0.64400  0.39400  0.48500  Biso   1.000  H
  H22      1.0000 0.85600  0.60600  0.48500  Biso   1.000  H
  H23      1.0000 0.85600  0.89400  0.01500  Biso   1.000  H
  H24      1.0000 0.64400  0.10600  0.01500  Biso   1.000  H
  H25      1.0000 0.35300  0.61800  0.61900  Biso   1.000  H
  H26      1.0000 0.14700  0.38200  0.61900  Biso   1.000  H
  H27      1.0000 0.14700  0.11800  0.88100  Biso   1.000  H
  H28      1.0000 0.35300  0.88200  0.88100  Biso   1.000  H
  H29      1.0000 0.64700  0.38200  0.38100  Biso   1.000  H
  H30      1.0000 0.85300  0.61800  0.38100  Biso   1.000  H
  H31      1.0000 0.85300  0.88200  0.11900  Biso   1.000  H
  H32      1.0000 0.64700  0.11800  0.11900  Biso   1.000  H
  O17      1.0000 0.33596  0.79606  0.67831  Biso   1.000  O
  O18      1.0000 0.16404  0.20394  0.67831  Biso   1.000  O
  O19      1.0000 0.16404  0.29606  0.82169  Biso   1.000  O
  O20      1.0000 0.33596  0.70394  0.82169  Biso   1.000  O
  O21      1.0000 0.66404  0.20394  0.32169  Biso   1.000  O
  O22      1.0000 0.83596  0.79606  0.32169  Biso   1.000  O
  O23      1.0000 0.83596  0.70394  0.17831  Biso   1.000  O
  O24      1.0000 0.66404  0.29606  0.17831  Biso   1.000  O
  O25      1.0000 0.42461  0.81010  0.80240  Biso   1.000  O
  O26      1.0000 0.07539  0.18990  0.80240  Biso   1.000  O
  O27      1.0000 0.07539  0.31010  0.69760  Biso   1.000  O
  O28      1.0000 0.42461  0.68990  0.69760  Biso   1.000  O
  O29      1.0000 0.57539  0.18990  0.19760  Biso   1.000  O
  O30      1.0000 0.92461  0.81010  0.19760  Biso   1.000  O
  O31      1.0000 0.92461  0.68990  0.30240  Biso   1.000  O
  O32      1.0000 0.57539  0.31010  0.30240  Biso   1.000  O
  O33      1.0000 0.20413  0.71231  0.67227  Biso   1.000  O
  O34      1.0000 0.29587  0.28769  0.67227  Biso   1.000  O
  O35      1.0000 0.29587  0.21231  0.82773  Biso   1.000  O
  O36      1.0000 0.20413  0.78769  0.82773  Biso   1.000  O
  O37      1.0000 0.79587  0.28769  0.32773  Biso   1.000  O
  O38      1.0000 0.70413  0.71231  0.32773  Biso   1.000  O
  O39      1.0000 0.70413  0.78769  0.17227  Biso   1.000  O
  O40      1.0000 0.79587  0.21231  0.17227  Biso   1.000  O
  O41      1.0000 0.11539  0.81550  0.70690  Biso   1.000  O
  O42      1.0000 0.38461  0.18450  0.70690  Biso   1.000  O
  O43      1.0000 0.38461  0.31550  0.79310  Biso   1.000  O
  O44      1.0000 0.11539  0.68450  0.79310  Biso   1.000  O
  O45      1.0000 0.88461  0.18450  0.29310  Biso   1.000  O
  O46      1.0000 0.61539  0.81550  0.29310  Biso   1.000  O
  O47      1.0000 0.61539  0.68450  0.20690  Biso   1.000  O
  O48      1.0000 0.88461  0.31550  0.20690  Biso   1.000  O
  O49      1.0000 0.39954  0.90945  0.11900  Biso   1.000  O
  O50      1.0000 0.10046  0.09055  0.11900  Biso   1.000  O
  O51      1.0000 0.10046  0.40945  0.38100  Biso   1.000  O
  O52      1.0000 0.39954  0.59055  0.38100  Biso   1.000  O
  O53      1.0000 0.60046  0.09055  0.88100  Biso   1.000  O
  O54      1.0000 0.89954  0.90945  0.88100  Biso   1.000  O
  O55      1.0000 0.89954  0.59055  0.61900  Biso   1.000  O
  O56      1.0000 0.60046  0.40945  0.61900  Biso   1.000  O
  O57      1.0000 0.14172  0.58066  0.13050  Biso   1.000  O
  O58      1.0000 0.35828  0.41934  0.13050  Biso   1.000  O
  O59      1.0000 0.35828  0.08066  0.36950  Biso   1.000  O
  O60      1.0000 0.14172  0.91934  0.36950  Biso   1.000  O
  O61      1.0000 0.85828  0.41934  0.86950  Biso   1.000  O
  O62      1.0000 0.64172  0.58066  0.86950  Biso   1.000  O
  O63      1.0000 0.64172  0.91934  0.63050  Biso   1.000  O
  O64      1.0000 0.85828  0.08066  0.63050  Biso   1.000  O
  O65      1.0000 0.16330  0.95270  0.85340  Biso   1.000  O
  O66      1.0000 0.33670  0.04730  0.85340  Biso   1.000  O
  O67      1.0000 0.33670  0.45270  0.64660  Biso   1.000  O
  O68      1.0000 0.16330  0.54730  0.64660  Biso   1.000  O
  O69      1.0000 0.83670  0.04730  0.14660  Biso   1.000  O
  O70      1.0000 0.66330  0.95270  0.14660  Biso   1.000  O
  O71      1.0000 0.66330  0.54730  0.35340  Biso   1.000  O
  O72      1.0000 0.83670  0.45270  0.35340  Biso   1.000  O
  H33      1.0000 0.19800  0.92100  0.82500  Biso   1.000  H
  H34      1.0000 0.30200  0.07900  0.82500  Biso   1.000  H
  H35      1.0000 0.30200  0.42100  0.67500  Biso   1.000  H
  H36      1.0000 0.19800  0.57900  0.67500  Biso   1.000  H
  H37      1.0000 0.80200  0.07900  0.17500  Biso   1.000  H
  H38      1.0000 0.69800  0.92100  0.17500  Biso   1.000  H
  H39      1.0000 0.69800  0.57900  0.32500  Biso   1.000  H
  H40      1.0000 0.80200  0.42100  0.32500  Biso   1.000  H
  H41      1.0000 0.19000  0.99500  0.88100  Biso   1.000  H
  H42      1.0000 0.31000  0.00500  0.88100  Biso   1.000  H
  H43      1.0000 0.31000  0.49500  0.61900  Biso   1.000  H
  H44      1.0000 0.19000  0.50500  0.61900  Biso   1.000  H
  H45      1.0000 0.81000  0.00500  0.11900  Biso   1.000  H
  H46      1.0000 0.69000  0.99500  0.11900  Biso   1.000  H
  H47      1.0000 0.69000  0.50500  0.38100  Biso   1.000  H
  H48      1.0000 0.81000  0.49500  0.38100  Biso   1.000  H
  O73      1.0000 0.12260  0.02990  0.67710  Biso   1.000  O
  O74      1.0000 0.37740  0.97010  0.67710  Biso   1.000  O
  O75      1.0000 0.37740  0.52990  0.82290  Biso   1.000  O
  O76      1.0000 0.12260  0.47010  0.82290  Biso   1.000  O
  O77      1.0000 0.87740  0.97010  0.32290  Biso   1.000  O
  O78      1.0000 0.62260  0.02990  0.32290  Biso   1.000  O
  O79      1.0000 0.62260  0.47010  0.17710  Biso   1.000  O
  O80      1.0000 0.87740  0.52990  0.17710  Biso   1.000  O
  H49      1.0000 0.16120  0.05800  0.67500  Biso   1.000  H
  H50      1.0000 0.33880  0.94200  0.67500  Biso   1.000  H
  H51      1.0000 0.33880  0.55800  0.82500  Biso   1.000  H
  H52      1.0000 0.16120  0.44200  0.82500  Biso   1.000  H
  H53      1.0000 0.83880  0.94200  0.32500  Biso   1.000  H
  H54      1.0000 0.66120  0.05800  0.32500  Biso   1.000  H
  H55      1.0000 0.66120  0.44200  0.17500  Biso   1.000  H
  H56      1.0000 0.83880  0.55800  0.17500  Biso   1.000  H
  H57      1.0000 0.13500  0.01900  0.73700  Biso   1.000  H
  H58      1.0000 0.36500  0.98100  0.73700  Biso   1.000  H
  H59      1.0000 0.36500  0.51900  0.76300  Biso   1.000  H
  H60      1.0000 0.13500  0.48100  0.76300  Biso   1.000  H
  H61      1.0000 0.86500  0.98100  0.26300  Biso   1.000  H
  H62      1.0000 0.63500  0.01900  0.26300  Biso   1.000  H
  H63      1.0000 0.63500  0.48100  0.23700  Biso   1.000  H
  H64      1.0000 0.86500  0.51900  0.23700  Biso   1.000  H
  N1       1.0000 0.33685  0.80080  0.46960  Biso   1.000  N
  N2       1.0000 0.16315  0.19920  0.46960  Biso   1.000  N
  N3       1.0000 0.16315  0.30080  0.03040  Biso   1.000  N
  N4       1.0000 0.33685  0.69920  0.03040  Biso   1.000  N
  N5       1.0000 0.66315  0.19920  0.53040  Biso   1.000  N
  N6       1.0000 0.83685  0.80080  0.53040  Biso   1.000  N
  N7       1.0000 0.83685  0.69920  0.96960  Biso   1.000  N
  N8       1.0000 0.66315  0.30080  0.96960  Biso   1.000  N
  N9       1.0000 0.47593  0.86960  0.24300  Biso   1.000  N
  N10      1.0000 0.02407  0.13040  0.24300  Biso   1.000  N
  N11      1.0000 0.02407  0.36960  0.25700  Biso   1.000  N
  N12      1.0000 0.47593  0.63040  0.25700  Biso   1.000  N
  N13      1.0000 0.52407  0.13040  0.75700  Biso   1.000  N
  N14      1.0000 0.97593  0.86960  0.75700  Biso   1.000  N
  N15      1.0000 0.97593  0.63040  0.74300  Biso   1.000  N
  N16      1.0000 0.52407  0.36960  0.74300  Biso   1.000  N
  H65      1.0000 0.52000  0.86240  0.25660  Biso   1.000  H
  H66      1.0000 0.98000  0.13760  0.25660  Biso   1.000  H
  H67      1.0000 0.98000  0.36240  0.24340  Biso   1.000  H
  H68      1.0000 0.52000  0.63760  0.24340  Biso   1.000  H
  H69      1.0000 0.48000  0.13760  0.74340  Biso   1.000  H
  H70      1.0000 0.02000  0.86240  0.74340  Biso   1.000  H
  H71      1.0000 0.02000  0.63760  0.75660  Biso   1.000  H
  H72      1.0000 0.48000  0.36240  0.75660  Biso   1.000  H
  N17      1.0000 0.51821  0.92040  0.09710  Biso   1.000  N
  N18      1.0000 0.98179  0.07960  0.09710  Biso   1.000  N
  N19      1.0000 0.98179  0.42040  0.40290  Biso   1.000  N
  N20      1.0000 0.51821  0.57960  0.40290  Biso   1.000  N
  N21      1.0000 0.48179  0.07960  0.90290  Biso   1.000  N
  N22      1.0000 0.01821  0.92040  0.90290  Biso   1.000  N
  N23      1.0000 0.01821  0.57960  0.59710  Biso   1.000  N
  N24      1.0000 0.48179  0.42040  0.59710  Biso   1.000  N
  H73      1.0000 0.55960  0.91150  0.12160  Biso   1.000  H
  H74      1.0000 0.94040  0.08850  0.12160  Biso   1.000  H
  H75      1.0000 0.94040  0.41150  0.37840  Biso   1.000  H
  H76      1.0000 0.55960  0.58850  0.37840  Biso   1.000  H
  H77      1.0000 0.44040  0.08850  0.87840  Biso   1.000  H
  H78      1.0000 0.05960  0.91150  0.87840  Biso   1.000  H
  H79      1.0000 0.05960  0.58850  0.62160  Biso   1.000  H
  H80      1.0000 0.44040  0.41150  0.62160  Biso   1.000  H
  N25      1.0000 0.20367  0.71760  0.46640  Biso   1.000  N
  N26      1.0000 0.29633  0.28240  0.46640  Biso   1.000  N
  N27      1.0000 0.29633  0.21760  0.03360  Biso   1.000  N
  N28      1.0000 0.20367  0.78240  0.03360  Biso   1.000  N
  N29      1.0000 0.79633  0.28240  0.53360  Biso   1.000  N
  N30      1.0000 0.70367  0.71760  0.53360  Biso   1.000  N
  N31      1.0000 0.70367  0.78240  0.96640  Biso   1.000  N
  N32      1.0000 0.79633  0.21760  0.96640  Biso   1.000  N
  N33      1.0000 0.06447  0.62500  0.25130  Biso   1.000  N
  N34      1.0000 0.43553  0.37500  0.25130  Biso   1.000  N
  N35      1.0000 0.43553  0.12500  0.24870  Biso   1.000  N
  N36      1.0000 0.06447  0.87500  0.24870  Biso   1.000  N
  N37      1.0000 0.93553  0.37500  0.74870  Biso   1.000  N
  N38      1.0000 0.56447  0.62500  0.74870  Biso   1.000  N
  N39      1.0000 0.56447  0.87500  0.75130  Biso   1.000  N
  N40      1.0000 0.93553  0.12500  0.75130  Biso   1.000  N
  H81      1.0000 0.02020  0.63060  0.26500  Biso   1.000  H
  H82      1.0000 0.47980  0.36940  0.26500  Biso   1.000  H
  H83      1.0000 0.47980  0.13060  0.23500  Biso   1.000  H
  H84      1.0000 0.02020  0.86940  0.23500  Biso   1.000  H
  H85      1.0000 0.97980  0.36940  0.73500  Biso   1.000  H
  H86      1.0000 0.52020  0.63060  0.73500  Biso   1.000  H
  H87      1.0000 0.52020  0.86940  0.76500  Biso   1.000  H
  H88      1.0000 0.97980  0.13060  0.76500  Biso   1.000  H
  N41      1.0000 0.02415  0.55930  0.11210  Biso   1.000  N
  N42      1.0000 0.47585  0.44070  0.11210  Biso   1.000  N
  N43      1.0000 0.47585  0.05930  0.38790  Biso   1.000  N
  N44      1.0000 0.02415  0.94070  0.38790  Biso   1.000  N
  N45      1.0000 0.97585  0.44070  0.88790  Biso   1.000  N
  N46      1.0000 0.52415  0.55930  0.88790  Biso   1.000  N
  N47      1.0000 0.52415  0.94070  0.61210  Biso   1.000  N
  N48      1.0000 0.97585  0.05930  0.61210  Biso   1.000  N
  H89      1.0000 0.98230  0.56490  0.13660  Biso   1.000  H
  H90      1.0000 0.51770  0.43510  0.13660  Biso   1.000  H
  H91      1.0000 0.51770  0.06490  0.36340  Biso   1.000  H
  H92      1.0000 0.98230  0.93510  0.36340  Biso   1.000  H
  H93      1.0000 0.01770  0.43510  0.86340  Biso   1.000  H
  H94      1.0000 0.48230  0.56490  0.86340  Biso   1.000  H
  H95      1.0000 0.48230  0.93510  0.63660  Biso   1.000  H
  H96      1.0000 0.01770  0.06490  0.63660  Biso   1.000  H
  C1       1.0000 0.40620  0.78160  0.47100  Biso   1.000  C
  C2       1.0000 0.09380  0.21840  0.47100  Biso   1.000  C
  C3       1.0000 0.09380  0.28160  0.02900  Biso   1.000  C
  C4       1.0000 0.40620  0.71840  0.02900  Biso   1.000  C
  C5       1.0000 0.59380  0.21840  0.52900  Biso   1.000  C
  C6       1.0000 0.90620  0.78160  0.52900  Biso   1.000  C
  C7       1.0000 0.90620  0.71840  0.97100  Biso   1.000  C
  C8       1.0000 0.59380  0.28160  0.97100  Biso   1.000  C
  H97      1.0000 0.42390  0.75220  0.52480  Biso   1.000  H
  H98      1.0000 0.07610  0.24780  0.52480  Biso   1.000  H
  H99      1.0000 0.07610  0.25220  0.97520  Biso   1.000  H
  H100     1.0000 0.42390  0.74780  0.97520  Biso   1.000  H
  H101     1.0000 0.57610  0.24780  0.47520  Biso   1.000  H
  H102     1.0000 0.92390  0.75220  0.47520  Biso   1.000  H
  H103     1.0000 0.92390  0.74780  0.02480  Biso   1.000  H
  H104     1.0000 0.57610  0.25220  0.02480  Biso   1.000  H
  C9       1.0000 0.45170  0.80320  0.39680  Biso   1.000  C
  C10      1.0000 0.04830  0.19680  0.39680  Biso   1.000  C
  C11      1.0000 0.04830  0.30320  0.10320  Biso   1.000  C
  C12      1.0000 0.45170  0.69680  0.10320  Biso   1.000  C
  C13      1.0000 0.54830  0.19680  0.60320  Biso   1.000  C
  C14      1.0000 0.95170  0.80320  0.60320  Biso   1.000  C
  C15      1.0000 0.95170  0.69680  0.89680  Biso   1.000  C
  C16      1.0000 0.54830  0.30320  0.89680  Biso   1.000  C
  H105     1.0000 0.49910  0.78780  0.40070  Biso   1.000  H
  H106     1.0000 0.00090  0.21220  0.40070  Biso   1.000  H
  H107     1.0000 0.00090  0.28780  0.09930  Biso   1.000  H
  H108     1.0000 0.49910  0.71220  0.09930  Biso   1.000  H
  H109     1.0000 0.50090  0.21220  0.59930  Biso   1.000  H
  H110     1.0000 0.99910  0.78780  0.59930  Biso   1.000  H
  H111     1.0000 0.99910  0.71220  0.90070  Biso   1.000  H
  H112     1.0000 0.50090  0.28780  0.90070  Biso   1.000  H
  C17      1.0000 0.42800  0.84800  0.31610  Biso   1.000  C
  C18      1.0000 0.07200  0.15200  0.31610  Biso   1.000  C
  C19      1.0000 0.07200  0.34800  0.18390  Biso   1.000  C
  C20      1.0000 0.42800  0.65200  0.18390  Biso   1.000  C
  C21      1.0000 0.57200  0.15200  0.68390  Biso   1.000  C
  C22      1.0000 0.92800  0.84800  0.68390  Biso   1.000  C
  C23      1.0000 0.92800  0.65200  0.81610  Biso   1.000  C
  C24      1.0000 0.57200  0.34800  0.81610  Biso   1.000  C
  C25      1.0000 0.35630  0.87090  0.31510  Biso   1.000  C
  C26      1.0000 0.14370  0.12910  0.31510  Biso   1.000  C
  C27      1.0000 0.14370  0.37090  0.18490  Biso   1.000  C
  C28      1.0000 0.35630  0.62910  0.18490  Biso   1.000  C
  C29      1.0000 0.64370  0.12910  0.68490  Biso   1.000  C
  C30      1.0000 0.85630  0.87090  0.68490  Biso   1.000  C
  C31      1.0000 0.85630  0.62910  0.81510  Biso   1.000  C
  C32      1.0000 0.64370  0.37090  0.81510  Biso   1.000  C
  H113     1.0000 0.33790  0.90300  0.26390  Biso   1.000  H
  H114     1.0000 0.16210  0.09700  0.26390  Biso   1.000  H
  H115     1.0000 0.16210  0.40300  0.23610  Biso   1.000  H
  H116     1.0000 0.33790  0.59700  0.23610  Biso   1.000  H
  H117     1.0000 0.66210  0.09700  0.73610  Biso   1.000  H
  H118     1.0000 0.83790  0.90300  0.73610  Biso   1.000  H
  H119     1.0000 0.83790  0.59700  0.76390  Biso   1.000  H
  H120     1.0000 0.66210  0.40300  0.76390  Biso   1.000  H
  C33      1.0000 0.31400  0.84490  0.39210  Biso   1.000  C
  C34      1.0000 0.18600  0.15510  0.39210  Biso   1.000  C
  C35      1.0000 0.18600  0.34490  0.10790  Biso   1.000  C
  C36      1.0000 0.31400  0.65510  0.10790  Biso   1.000  C
  C37      1.0000 0.68600  0.15510  0.60790  Biso   1.000  C
  C38      1.0000 0.81400  0.84490  0.60790  Biso   1.000  C
  C39      1.0000 0.81400  0.65510  0.89210  Biso   1.000  C
  C40      1.0000 0.68600  0.34490  0.89210  Biso   1.000  C
  H121     1.0000 0.26620  0.85890  0.39000  Biso   1.000  H
  H122     1.0000 0.23380  0.14110  0.39000  Biso   1.000  H
  H123     1.0000 0.23380  0.35890  0.11000  Biso   1.000  H
  H124     1.0000 0.26620  0.64110  0.11000  Biso   1.000  H
  H125     1.0000 0.73380  0.14110  0.61000  Biso   1.000  H
  H126     1.0000 0.76620  0.85890  0.61000  Biso   1.000  H
  H127     1.0000 0.76620  0.64110  0.89000  Biso   1.000  H
  H128     1.0000 0.73380  0.35890  0.89000  Biso   1.000  H
  C41      1.0000 0.46060  0.90170  0.15050  Biso   1.000  C
  C42      1.0000 0.03940  0.09830  0.15050  Biso   1.000  C
  C43      1.0000 0.03940  0.40170  0.34950  Biso   1.000  C
  C44      1.0000 0.46060  0.59830  0.34950  Biso   1.000  C
  C45      1.0000 0.53940  0.09830  0.84950  Biso   1.000  C
  C46      1.0000 0.96060  0.90170  0.84950  Biso   1.000  C
  C47      1.0000 0.96060  0.59830  0.65050  Biso   1.000  C
  C48      1.0000 0.53940  0.40170  0.65050  Biso   1.000  C
  C49      1.0000 0.51190  0.95560  0.99860  Biso   1.000  C
  C50      1.0000 0.98810  0.04440  0.99860  Biso   1.000  C
  C51      1.0000 0.98810  0.45560  0.50140  Biso   1.000  C
  C52      1.0000 0.51190  0.54440  0.50140  Biso   1.000  C
  C53      1.0000 0.48810  0.04440  0.00140  Biso   1.000  C
  C54      1.0000 0.01190  0.95560  0.00140  Biso   1.000  C
  C55      1.0000 0.01190  0.54440  0.49860  Biso   1.000  C
  C56      1.0000 0.48810  0.45560  0.49860  Biso   1.000  C
  H129     1.0000 0.47810  0.92340  0.96050  Biso   1.000  H
  H130     1.0000 0.02190  0.07660  0.96050  Biso   1.000  H
  H131     1.0000 0.02190  0.42340  0.53950  Biso   1.000  H
  H132     1.0000 0.47810  0.57660  0.53950  Biso   1.000  H
  H133     1.0000 0.52190  0.07660  0.03950  Biso   1.000  H
  H134     1.0000 0.97810  0.92340  0.03950  Biso   1.000  H
  H135     1.0000 0.97810  0.57660  0.46050  Biso   1.000  H
  H136     1.0000 0.52190  0.42340  0.46050  Biso   1.000  H
  H137     1.0000 0.55740  0.95230  0.96530  Biso   1.000  H
  H138     1.0000 0.94260  0.04770  0.96530  Biso   1.000  H
  H139     1.0000 0.94260  0.45230  0.53470  Biso   1.000  H
  H140     1.0000 0.55740  0.54770  0.53470  Biso   1.000  H
  H141     1.0000 0.44260  0.04770  0.03470  Biso   1.000  H
  H142     1.0000 0.05740  0.95230  0.03470  Biso   1.000  H
  H143     1.0000 0.05740  0.54770  0.46530  Biso   1.000  H
  H144     1.0000 0.44260  0.45230  0.46530  Biso   1.000  H
  C57      1.0000 0.22640  0.66820  0.39470  Biso   1.000  C
  C58      1.0000 0.27360  0.33180  0.39470  Biso   1.000  C
  C59      1.0000 0.27360  0.16820  0.10530  Biso   1.000  C
  C60      1.0000 0.22640  0.83180  0.10530  Biso   1.000  C
  C61      1.0000 0.77360  0.33180  0.60530  Biso   1.000  C
  C62      1.0000 0.72640  0.66820  0.60530  Biso   1.000  C
  C63      1.0000 0.72640  0.83180  0.89470  Biso   1.000  C
  C64      1.0000 0.77360  0.16820  0.89470  Biso   1.000  C
  H145     1.0000 0.27460  0.65570  0.39340  Biso   1.000  H
  H146     1.0000 0.22540  0.34430  0.39340  Biso   1.000  H
  H147     1.0000 0.22540  0.15570  0.10660  Biso   1.000  H
  H148     1.0000 0.27460  0.84430  0.10660  Biso   1.000  H
  H149     1.0000 0.72540  0.34430  0.60660  Biso   1.000  H
  H150     1.0000 0.77460  0.65570  0.60660  Biso   1.000  H
  H151     1.0000 0.77460  0.84430  0.89340  Biso   1.000  H
  H152     1.0000 0.72540  0.15570  0.89340  Biso   1.000  H
  C65      1.0000 0.18430  0.63390  0.32150  Biso   1.000  C
  C66      1.0000 0.31570  0.36610  0.32150  Biso   1.000  C
  C67      1.0000 0.31570  0.13390  0.17850  Biso   1.000  C
  C68      1.0000 0.18430  0.86610  0.17850  Biso   1.000  C
  C69      1.0000 0.81570  0.36610  0.67850  Biso   1.000  C
  C70      1.0000 0.68430  0.63390  0.67850  Biso   1.000  C
  C71      1.0000 0.68430  0.86610  0.82150  Biso   1.000  C
  C72      1.0000 0.81570  0.13390  0.82150  Biso   1.000  C
  H153     1.0000 0.20310  0.59770  0.27470  Biso   1.000  H
  H154     1.0000 0.29690  0.40230  0.27470  Biso   1.000  H
  H155     1.0000 0.29690  0.09770  0.22530  Biso   1.000  H
  H156     1.0000 0.20310  0.90230  0.22530  Biso   1.000  H
  H157     1.0000 0.79690  0.40230  0.72530  Biso   1.000  H
  H158     1.0000 0.70310  0.59770  0.72530  Biso   1.000  H
  H159     1.0000 0.70310  0.90230  0.77470  Biso   1.000  H
  H160     1.0000 0.79690  0.09770  0.77470  Biso   1.000  H
  C73      1.0000 0.11240  0.65530  0.32010  Biso   1.000  C
  C74      1.0000 0.38760  0.34470  0.32010  Biso   1.000  C
  C75      1.0000 0.38760  0.15530  0.17990  Biso   1.000  C
  C76      1.0000 0.11240  0.84470  0.17990  Biso   1.000  C
  C77      1.0000 0.88760  0.34470  0.67990  Biso   1.000  C
  C78      1.0000 0.61240  0.65530  0.67990  Biso   1.000  C
  C79      1.0000 0.61240  0.84470  0.82010  Biso   1.000  C
  C80      1.0000 0.88760  0.15530  0.82010  Biso   1.000  C
  C81      1.0000 0.08880  0.70780  0.39430  Biso   1.000  C
  C82      1.0000 0.41120  0.29220  0.39430  Biso   1.000  C
  C83      1.0000 0.41120  0.20780  0.10570  Biso   1.000  C
  C84      1.0000 0.08880  0.79220  0.10570  Biso   1.000  C
  C85      1.0000 0.91120  0.29220  0.60570  Biso   1.000  C
  C86      1.0000 0.58880  0.70780  0.60570  Biso   1.000  C
  C87      1.0000 0.58880  0.79220  0.89430  Biso   1.000  C
  C88      1.0000 0.91120  0.20780  0.89430  Biso   1.000  C
  H161     1.0000 0.04140  0.72380  0.39560  Biso   1.000  H
  H162     1.0000 0.45860  0.27620  0.39560  Biso   1.000  H
  H163     1.0000 0.45860  0.22380  0.10440  Biso   1.000  H
  H164     1.0000 0.04140  0.77620  0.10440  Biso   1.000  H
  H165     1.0000 0.95860  0.27620  0.60440  Biso   1.000  H
  H166     1.0000 0.54140  0.72380  0.60440  Biso   1.000  H
  H167     1.0000 0.54140  0.77620  0.89560  Biso   1.000  H
  H168     1.0000 0.95860  0.22380  0.89560  Biso   1.000  H
  C89      1.0000 0.13380  0.73650  0.46540  Biso   1.000  C
  C90      1.0000 0.36620  0.26350  0.46540  Biso   1.000  C
  C91      1.0000 0.36620  0.23650  0.03460  Biso   1.000  C
  C92      1.0000 0.13380  0.76350  0.03460  Biso   1.000  C
  C93      1.0000 0.86620  0.26350  0.53460  Biso   1.000  C
  C94      1.0000 0.63380  0.73650  0.53460  Biso   1.000  C
  C95      1.0000 0.63380  0.76350  0.96540  Biso   1.000  C
  C96      1.0000 0.86620  0.23650  0.96540  Biso   1.000  C
  H169     1.0000 0.11580  0.77030  0.51520  Biso   1.000  H
  H170     1.0000 0.38420  0.22970  0.51520  Biso   1.000  H
  H171     1.0000 0.38420  0.27030  0.98480  Biso   1.000  H
  H172     1.0000 0.11580  0.72970  0.98480  Biso   1.000  H
  H173     1.0000 0.88420  0.22970  0.48480  Biso   1.000  H
  H174     1.0000 0.61580  0.77030  0.48480  Biso   1.000  H
  H175     1.0000 0.61580  0.72970  0.01520  Biso   1.000  H
  H176     1.0000 0.88420  0.27030  0.01520  Biso   1.000  H
  C97      1.0000 0.08120  0.58630  0.16250  Biso   1.000  C
  C98      1.0000 0.41880  0.41370  0.16250  Biso   1.000  C
  C99      1.0000 0.41880  0.08630  0.33750  Biso   1.000  C
  C100     1.0000 0.08120  0.91370  0.33750  Biso   1.000  C
  C101     1.0000 0.91880  0.41370  0.83750  Biso   1.000  C
  C102     1.0000 0.58120  0.58630  0.83750  Biso   1.000  C
  C103     1.0000 0.58120  0.91370  0.66250  Biso   1.000  C
  C104     1.0000 0.91880  0.08630  0.66250  Biso   1.000  C
  C105     1.0000 0.03410  0.52020  0.01530  Biso   1.000  C
  C106     1.0000 0.46590  0.47980  0.01530  Biso   1.000  C
  C107     1.0000 0.46590  0.02020  0.48470  Biso   1.000  C
  C108     1.0000 0.03410  0.97980  0.48470  Biso   1.000  C
  C109     1.0000 0.96590  0.47980  0.98470  Biso   1.000  C
  C110     1.0000 0.53410  0.52020  0.98470  Biso   1.000  C
  C111     1.0000 0.53410  0.97980  0.51530  Biso   1.000  C
  C112     1.0000 0.96590  0.02020  0.51530  Biso   1.000  C
  H177     1.0000 0.07150  0.47910  0.01920  Biso   1.000  H
  H178     1.0000 0.42850  0.52090  0.01920  Biso   1.000  H
  H179     1.0000 0.42850  0.97910  0.48080  Biso   1.000  H
  H180     1.0000 0.07150  0.02090  0.48080  Biso   1.000  H
  H181     1.0000 0.92850  0.52090  0.98080  Biso   1.000  H
  H182     1.0000 0.57150  0.47910  0.98080  Biso   1.000  H
  H183     1.0000 0.57150  0.02090  0.51920  Biso   1.000  H
  H184     1.0000 0.92850  0.97910  0.51920  Biso   1.000  H
  H185     1.0000 0.04770  0.56160  0.96680  Biso   1.000  H
  H186     1.0000 0.45230  0.43840  0.96680  Biso   1.000  H
  H187     1.0000 0.45230  0.06160  0.53320  Biso   1.000  H
  H188     1.0000 0.04770  0.93840  0.53320  Biso   1.000  H
  H189     1.0000 0.95230  0.43840  0.03320  Biso   1.000  H
  H190     1.0000 0.54770  0.56160  0.03320  Biso   1.000  H
  H191     1.0000 0.54770  0.93840  0.46680  Biso   1.000  H
  H192     1.0000 0.95230  0.06160  0.46680  Biso   1.000  H
