data_image0
_cell_length_a       12.6013
_cell_length_b       12.6027
_cell_length_c       16.681
_cell_angle_alpha    98
_cell_angle_beta     103.079
_cell_angle_gamma    110.12

_symmetry_space_group_name_H-M    "P 1"
_symmetry_int_tables_number       1

loop_
  _symmetry_equiv_pos_as_xyz
  'x, y, z'

loop_
  _atom_site_label
  _atom_site_occupancy
  _atom_site_fract_x
  _atom_site_fract_y
  _atom_site_fract_z
  _atom_site_thermal_displace_type
  _atom_site_B_iso_or_equiv
  _atom_site_type_symbol
  Gd1      1.0000 0.69275  0.67933  0.65989  Biso   1.000  Gd
  Gd2      1.0000 0.30725  0.32067  0.34011  Biso   1.000  Gd
  Cu1      1.0000 0.76008  0.97940  0.97430  Biso   1.000  Cu
  Cu2      1.0000 0.23992  0.02060  0.02570  Biso   1.000  Cu
  Cu3      1.0000 0.06398  0.74314  0.50260  Biso   1.000  Cu
  Cu4      1.0000 0.93602  0.25686  0.49740  Biso   1.000  Cu
  S1       1.0000 0.61734  0.08307  0.78712  Biso   1.000  S
  S2       1.0000 0.38266  0.91693  0.21288  Biso   1.000  S
  O1       1.0000 0.81494  0.86335  0.76026  Biso   1.000  O
  O2       1.0000 0.18506  0.13665  0.23974  Biso   1.000  O
  O3       1.0000 0.60800  0.72337  0.76902  Biso   1.000  O
  O4       1.0000 0.39200  0.27663  0.23098  Biso   1.000  O
  O5       1.0000 0.80460  0.78631  0.57743  Biso   1.000  O
  O6       1.0000 0.19540  0.21369  0.42257  Biso   1.000  O
  O7       1.0000 0.87481  0.64880  0.65988  Biso   1.000  O
  O8       1.0000 0.12519  0.35120  0.34012  Biso   1.000  O
  O9       1.0000 0.64160  0.48482  0.69012  Biso   1.000  O
  O10      1.0000 0.35840  0.51518  0.30988  Biso   1.000  O
  O11      1.0000 0.78430  0.62359  0.79240  Biso   1.000  O
  O12      1.0000 0.21570  0.37641  0.20760  Biso   1.000  O
  O13      1.0000 0.94040  0.57560  0.88810  Biso   1.000  O
  O14      1.0000 0.05960  0.42440  0.11190  Biso   1.000  O
  H1       1.0000 0.91180  0.61660  0.86470  Biso   1.000  H
  H2       1.0000 0.08820  0.38340  0.13530  Biso   1.000  H
  O15      1.0000 0.62360  0.04940  0.86800  Biso   1.000  O
  O16      1.0000 0.37640  0.95060  0.13200  Biso   1.000  O
  O17      1.0000 0.50080  0.07110  0.74310  Biso   1.000  O
  O18      1.0000 0.49920  0.92890  0.25690  Biso   1.000  O
  O19      1.0000 0.67120  0.02730  0.73497  Biso   1.000  O
  O20      1.0000 0.32880  0.97270  0.26503  Biso   1.000  O
  O21      1.0000 0.65252  0.55403  0.52291  Biso   1.000  O
  O22      1.0000 0.34748  0.44597  0.47709  Biso   1.000  O
  O23      1.0000 0.51420  0.41664  0.41383  Biso   1.000  O
  O24      1.0000 0.48580  0.58336  0.58617  Biso   1.000  O
  O25      1.0000 0.60570  0.82070  0.61665  Biso   1.000  O
  O26      1.0000 0.39430  0.17930  0.38335  Biso   1.000  O
  H3       1.0000 0.63540  0.88690  0.65120  Biso   1.000  H
  H4       1.0000 0.36460  0.11310  0.34880  Biso   1.000  H
  H5       1.0000 0.53180  0.78360  0.60700  Biso   1.000  H
  H6       1.0000 0.46820  0.21640  0.39300  Biso   1.000  H
  O27      1.0000 0.39200  0.81410  0.67430  Biso   1.000  O
  O28      1.0000 0.60800  0.18590  0.32570  Biso   1.000  O
  N1       1.0000 0.84340  0.98370  0.88896  Biso   1.000  N
  N2       1.0000 0.15660  0.01630  0.11104  Biso   1.000  N
  N3       1.0000 0.65450  0.82310  0.90812  Biso   1.000  N
  N4       1.0000 0.34550  0.17690  0.09188  Biso   1.000  N
  N5       1.0000 0.65920  0.98740  0.04560  Biso   1.000  N
  N6       1.0000 0.34080  0.01260  0.95440  Biso   1.000  N
  N7       1.0000 0.89950  0.09650  0.06138  Biso   1.000  N
  N8       1.0000 0.10050  0.90350  0.93862  Biso   1.000  N
  N9       1.0000 0.92450  0.77720  0.49218  Biso   1.000  N
  N10      1.0000 0.07550  0.22280  0.50782  Biso   1.000  N
  N11      1.0000 0.01580  0.66020  0.58811  Biso   1.000  N
  N12      1.0000 0.98420  0.33980  0.41189  Biso   1.000  N
  N13      1.0000 0.17510  0.67470  0.48758  Biso   1.000  N
  N14      1.0000 0.82490  0.32530  0.51242  Biso   1.000  N
  N15      1.0000 0.13990  0.87660  0.45759  Biso   1.000  N
  N16      1.0000 0.86010  0.12340  0.54241  Biso   1.000  N
  C1       1.0000 0.78580  0.89120  0.82469  Biso   1.000  C
  C2       1.0000 0.21420  0.10880  0.17531  Biso   1.000  C
  C3       1.0000 0.67140  0.80370  0.83289  Biso   1.000  C
  C4       1.0000 0.32860  0.19630  0.16711  Biso   1.000  C
  C5       1.0000 0.56400  0.74370  0.93120  Biso   1.000  C
  C6       1.0000 0.43600  0.25630  0.06880  Biso   1.000  C
  C7       1.0000 0.51150  0.62510  0.89080  Biso   1.000  C
  C8       1.0000 0.48850  0.37490  0.10920  Biso   1.000  C
  H7       1.0000 0.53420  0.59770  0.84550  Biso   1.000  H
  H8       1.0000 0.46580  0.40230  0.15450  Biso   1.000  H
  C9       1.0000 0.42640  0.54850  0.91750  Biso   1.000  C
  C10      1.0000 0.57360  0.45150  0.08250  Biso   1.000  C
  H9       1.0000 0.39260  0.47010  0.88990  Biso   1.000  H
  H10      1.0000 0.60740  0.52990  0.11010  Biso   1.000  H
  C11      1.0000 0.39080  0.58580  0.98410  Biso   1.000  C
  C12      1.0000 0.60920  0.41420  0.01590  Biso   1.000  C
  H11      1.0000 0.33260  0.53350  0.00100  Biso   1.000  H
  H12      1.0000 0.66740  0.46650  0.99900  Biso   1.000  H
  C13      1.0000 0.44180  0.70020  0.02500  Biso   1.000  C
  C14      1.0000 0.55820  0.29980  0.97500  Biso   1.000  C
  H13      1.0000 0.41770  0.72550  0.07020  Biso   1.000  H
  H14      1.0000 0.58230  0.27450  0.92980  Biso   1.000  H
  C15      1.0000 0.52970  0.78120  0.00090  Biso   1.000  C
  C16      1.0000 0.47030  0.21880  0.99910  Biso   1.000  C
  C17      1.0000 0.57310  0.90100  0.04930  Biso   1.000  C
  C18      1.0000 0.42690  0.09900  0.95070  Biso   1.000  C
  H15      1.0000 0.53300  0.91560  0.08720  Biso   1.000  H
  H16      1.0000 0.46700  0.08440  0.91280  Biso   1.000  H
  C19      1.0000 0.68150  0.10450  0.09340  Biso   1.000  C
  C20      1.0000 0.31850  0.89550  0.90660  Biso   1.000  C
  H17      1.0000 0.62130  0.09840  0.12200  Biso   1.000  H
  H18      1.0000 0.37870  0.90160  0.87800  Biso   1.000  H
  H19      1.0000 0.67420  0.15290  0.05390  Biso   1.000  H
  H20      1.0000 0.32580  0.84710  0.94610  Biso   1.000  H
  C21      1.0000 0.80240  0.16350  0.15870  Biso   1.000  C
  C22      1.0000 0.19760  0.83650  0.84130  Biso   1.000  C
  H21      1.0000 0.83500  0.24450  0.15650  Biso   1.000  H
  H22      1.0000 0.16500  0.75550  0.84350  Biso   1.000  H
  H23      1.0000 0.79230  0.16170  0.21450  Biso   1.000  H
  H24      1.0000 0.20770  0.83830  0.78550  Biso   1.000  H
  C23      1.0000 0.89160  0.11120  0.14870  Biso   1.000  C
  C24      1.0000 0.10840  0.88880  0.85130  Biso   1.000  C
  H25      1.0000 0.96860  0.16140  0.18750  Biso   1.000  H
  H26      1.0000 0.03140  0.83860  0.81250  Biso   1.000  H
  H27      1.0000 0.86870  0.03620  0.16300  Biso   1.000  H
  H28      1.0000 0.13130  0.96380  0.83700  Biso   1.000  H
  C25      1.0000 0.99820  0.15150  0.04930  Biso   1.000  C
  C26      1.0000 0.00180  0.84850  0.95070  Biso   1.000  C
  H29      1.0000 0.06130  0.19570  0.09720  Biso   1.000  H
  H30      1.0000 0.93870  0.80430  0.90280  Biso   1.000  H
  C27      1.0000 0.02170  0.15210  0.96850  Biso   1.000  C
  C28      1.0000 0.97830  0.84790  0.03150  Biso   1.000  C
  C29      1.0000 0.12630  0.24210  0.97030  Biso   1.000  C
  C30      1.0000 0.87370  0.75790  0.02970  Biso   1.000  C
  H31      1.0000 0.17840  0.28930  0.02220  Biso   1.000  H
  H32      1.0000 0.82160  0.71070  0.97780  Biso   1.000  H
  C31      1.0000 0.15320  0.26180  0.89750  Biso   1.000  C
  C32      1.0000 0.84680  0.73820  0.10250  Biso   1.000  C
  H33      1.0000 0.22310  0.32150  0.89970  Biso   1.000  H
  H34      1.0000 0.77690  0.67850  0.10030  Biso   1.000  H
  C33      1.0000 0.07500  0.19200  0.82040  Biso   1.000  C
  C34      1.0000 0.92500  0.80800  0.17960  Biso   1.000  C
  H35      1.0000 0.09130  0.20700  0.77050  Biso   1.000  H
  H36      1.0000 0.90870  0.79300  0.22950  Biso   1.000  H
  C35      1.0000 0.97330  0.10040  0.81650  Biso   1.000  C
  C36      1.0000 0.02670  0.89960  0.18350  Biso   1.000  C
  H37      1.0000 0.92230  0.05420  0.76400  Biso   1.000  H
  H38      1.0000 0.07770  0.94580  0.23600  Biso   1.000  H
  C37      1.0000 0.94580  0.07600  0.89000  Biso   1.000  C
  C38      1.0000 0.05420  0.92400  0.11000  Biso   1.000  C
  C39      1.0000 0.87890  0.75410  0.55471  Biso   1.000  C
  C40      1.0000 0.12110  0.24590  0.44529  Biso   1.000  C
  C41      1.0000 0.92580  0.68090  0.60625  Biso   1.000  C
  C42      1.0000 0.07420  0.31910  0.39375  Biso   1.000  C
  C43      1.0000 0.06830  0.59180  0.62770  Biso   1.000  C
  C44      1.0000 0.93170  0.40820  0.37230  Biso   1.000  C
  C45      1.0000 0.03890  0.54610  0.69470  Biso   1.000  C
  C46      1.0000 0.96110  0.45390  0.30530  Biso   1.000  C
  H39      1.0000 0.98210  0.56190  0.71560  Biso   1.000  H
  H40      1.0000 0.01790  0.43810  0.28440  Biso   1.000  H
  C47      1.0000 0.09180  0.47790  0.73110  Biso   1.000  C
  C48      1.0000 0.90820  0.52210  0.26890  Biso   1.000  C
  H41      1.0000 0.06990  0.44860  0.77570  Biso   1.000  H
  H42      1.0000 0.93010  0.55140  0.22430  Biso   1.000  H
  C49      1.0000 0.17630  0.45270  0.70220  Biso   1.000  C
  C50      1.0000 0.82370  0.54730  0.29780  Biso   1.000  C
  H43      1.0000 0.21110  0.40600  0.72630  Biso   1.000  H
  H44      1.0000 0.78890  0.59400  0.27370  Biso   1.000  H
  C51      1.0000 0.20860  0.49800  0.63700  Biso   1.000  C
  C52      1.0000 0.79140  0.50200  0.36300  Biso   1.000  C
  H45      1.0000 0.26650  0.48210  0.61770  Biso   1.000  H
  H46      1.0000 0.73350  0.51790  0.38230  Biso   1.000  H
  C53      1.0000 0.15690  0.56730  0.59880  Biso   1.000  C
  C54      1.0000 0.84310  0.43270  0.40120  Biso   1.000  C
  C55      1.0000 0.20080  0.60630  0.53030  Biso   1.000  C
  C56      1.0000 0.79920  0.39370  0.46970  Biso   1.000  C
  H47      1.0000 0.25450  0.57760  0.51580  Biso   1.000  H
  H48      1.0000 0.74550  0.42240  0.48420  Biso   1.000  H
  C57      1.0000 0.23080  0.70320  0.42030  Biso   1.000  C
  C58      1.0000 0.76920  0.29680  0.57970  Biso   1.000  C
  H49      1.0000 0.16940  0.68380  0.36730  Biso   1.000  H
  H50      1.0000 0.83060  0.31620  0.63270  Biso   1.000  H
  H51      1.0000 0.27610  0.65580  0.41330  Biso   1.000  H
  H52      1.0000 0.72390  0.34420  0.58670  Biso   1.000  H
  C59      1.0000 0.31050  0.82840  0.43860  Biso   1.000  C
  C60      1.0000 0.68950  0.17160  0.56140  Biso   1.000  C
  H53      1.0000 0.32330  0.84580  0.38590  Biso   1.000  H
  H54      1.0000 0.67670  0.15420  0.61410  Biso   1.000  H
  H55      1.0000 0.38640  0.83910  0.47600  Biso   1.000  H
  H56      1.0000 0.61360  0.16090  0.52400  Biso   1.000  H
  C61      1.0000 0.26960  0.91600  0.47800  Biso   1.000  C
  C62      1.0000 0.73040  0.08400  0.52200  Biso   1.000  C
  H57      1.0000 0.30310  0.93470  0.53900  Biso   1.000  H
  H58      1.0000 0.69690  0.06530  0.46100  Biso   1.000  H
  H59      1.0000 0.29980  0.98690  0.45910  Biso   1.000  H
  H60      1.0000 0.70020  0.01310  0.54090  Biso   1.000  H
  C63      1.0000 0.08850  0.93730  0.42280  Biso   1.000  C
  C64      1.0000 0.91150  0.06270  0.57720  Biso   1.000  C
  H61      1.0000 0.13600  0.00230  0.40860  Biso   1.000  H
  H62      1.0000 0.86400  0.99770  0.59140  Biso   1.000  H
  C65      1.0000 0.96340  0.91460  0.40320  Biso   1.000  C
  C66      1.0000 0.03660  0.08540  0.59680  Biso   1.000  C
  C67      1.0000 0.92070  0.97660  0.34940  Biso   1.000  C
  C68      1.0000 0.07930  0.02340  0.65060  Biso   1.000  C
  H63      1.0000 0.97360  0.03170  0.33040  Biso   1.000  H
  H64      1.0000 0.02640  0.96830  0.66960  Biso   1.000  H
  C69      1.0000 0.80390  0.95820  0.32430  Biso   1.000  C
  C70      1.0000 0.19610  0.04180  0.67570  Biso   1.000  C
  H65      1.0000 0.77780  0.00090  0.28910  Biso   1.000  H
  H66      1.0000 0.22220  0.99910  0.71090  Biso   1.000  H
  C71      1.0000 0.72450  0.87560  0.35130  Biso   1.000  C
  C72      1.0000 0.27550  0.12440  0.64870  Biso   1.000  C
  H67      1.0000 0.64420  0.86020  0.33210  Biso   1.000  H
  H68      1.0000 0.35580  0.13980  0.66790  Biso   1.000  H
  C73      1.0000 0.76350  0.81560  0.40690  Biso   1.000  C
  C74      1.0000 0.23650  0.18440  0.59310  Biso   1.000  C
  H69      1.0000 0.70950  0.76140  0.42580  Biso   1.000  H
  H70      1.0000 0.29050  0.23860  0.57420  Biso   1.000  H
  C75      1.0000 0.88280  0.83600  0.43460  Biso   1.000  C
  C76      1.0000 0.11720  0.16400  0.56540  Biso   1.000  C
  C77      1.0000 0.72300  0.51570  0.75764  Biso   1.000  C
  C78      1.0000 0.27700  0.48430  0.24236  Biso   1.000  C
  C79      1.0000 0.75400  0.42890  0.79928  Biso   1.000  C
  C80      1.0000 0.24600  0.57110  0.20072  Biso   1.000  C
  C81      1.0000 0.67830  0.31150  0.77450  Biso   1.000  C
  C82      1.0000 0.32170  0.68850  0.22550  Biso   1.000  C
  H71      1.0000 0.60800  0.28680  0.73090  Biso   1.000  H
  H72      1.0000 0.39200  0.71320  0.26910  Biso   1.000  H
  C83      1.0000 0.70710  0.23200  0.81430  Biso   1.000  C
  C84      1.0000 0.29290  0.76800  0.18570  Biso   1.000  C
  C85      1.0000 0.81260  0.27000  0.87860  Biso   1.000  C
  C86      1.0000 0.18740  0.73000  0.12140  Biso   1.000  C
  H73      1.0000 0.83130  0.21670  0.90620  Biso   1.000  H
  H74      1.0000 0.16870  0.78330  0.09380  Biso   1.000  H
  C87      1.0000 0.88970  0.38320  0.90240  Biso   1.000  C
  C88      1.0000 0.11030  0.61680  0.09760  Biso   1.000  C
  H75      1.0000 0.96080  0.40620  0.94490  Biso   1.000  H
  H76      1.0000 0.03920  0.59380  0.05510  Biso   1.000  H
  C89      1.0000 0.86170  0.46440  0.86310  Biso   1.000  C
  C90      1.0000 0.13830  0.53560  0.13690  Biso   1.000  C
  C91      1.0000 0.54820  0.49140  0.48176  Biso   1.000  C
  C92      1.0000 0.45180  0.50860  0.51824  Biso   1.000  C
