data_image0
_cell_length_a       9.6676
_cell_length_b       12.039
_cell_length_c       12.914
_cell_angle_alpha    72.454
_cell_angle_beta     77.357
_cell_angle_gamma    68.565

_symmetry_space_group_name_H-M    "P 1"
_symmetry_int_tables_number       1

loop_
  _symmetry_equiv_pos_as_xyz
  'x, y, z'

loop_
  _atom_site_label
  _atom_site_occupancy
  _atom_site_fract_x
  _atom_site_fract_y
  _atom_site_fract_z
  _atom_site_thermal_displace_type
  _atom_site_B_iso_or_equiv
  _atom_site_type_symbol
  Mn1      1.0000 0.77501  0.24544  0.86431  Biso   1.000  Mn
  Mn2      1.0000 0.22499  0.75456  0.13569  Biso   1.000  Mn
  Mn3      1.0000 0.00000  0.00000  0.00000  Biso   1.000  Mn
  Cu1      1.0000 0.78827  0.29728  0.42585  Biso   1.000  Cu
  Cu2      1.0000 0.21173  0.70272  0.57415  Biso   1.000  Cu
  S1       1.0000 0.51060  0.26811  0.08581  Biso   1.000  S
  S2       1.0000 0.48940  0.73189  0.91419  Biso   1.000  S
  O1       1.0000 0.62720  0.30330  0.73530  Biso   1.000  O
  O2       1.0000 0.37280  0.69670  0.26470  Biso   1.000  O
  O3       1.0000 0.92240  0.20130  0.71610  Biso   1.000  O
  O4       1.0000 0.07760  0.79870  0.28390  Biso   1.000  O
  O5       1.0000 0.58940  0.29590  0.97880  Biso   1.000  O
  O6       1.0000 0.41060  0.70410  0.02120  Biso   1.000  O
  O7       1.0000 0.61000  0.19980  0.16610  Biso   1.000  O
  O8       1.0000 0.39000  0.80020  0.83390  Biso   1.000  O
  O9       1.0000 0.40110  0.37640  0.10920  Biso   1.000  O
  O10      1.0000 0.59890  0.62360  0.89080  Biso   1.000  O
  O11      1.0000 0.04980  0.33520  0.91270  Biso   1.000  O
  O12      1.0000 0.95020  0.66480  0.08730  Biso   1.000  O
  O13      1.0000 0.97530  0.17270  0.95700  Biso   1.000  O
  O14      1.0000 0.02470  0.82730  0.04300  Biso   1.000  O
  O15      1.0000 0.17260  0.95440  0.07070  Biso   1.000  O
  O16      1.0000 0.82740  0.04560  0.92930  Biso   1.000  O
  O17      1.0000 0.79760  0.42680  0.82550  Biso   1.000  O
  O18      1.0000 0.20240  0.57320  0.17450  Biso   1.000  O
  H1       1.0000 0.72410  0.47350  0.85850  Biso   1.000  H
  H2       1.0000 0.27590  0.52650  0.14150  Biso   1.000  H
  H3       1.0000 0.88080  0.39940  0.85110  Biso   1.000  H
  H4       1.0000 0.11920  0.60060  0.14890  Biso   1.000  H
  O19      1.0000 0.83120  0.98710  0.16380  Biso   1.000  O
  O20      1.0000 0.16880  0.01290  0.83620  Biso   1.000  O
  H5       1.0000 0.78980  0.05530  0.18180  Biso   1.000  H
  H6       1.0000 0.21020  0.94470  0.81820  Biso   1.000  H
  N1       1.0000 0.63050  0.30850  0.55320  Biso   1.000  N
  N2       1.0000 0.36950  0.69150  0.44680  Biso   1.000  N
  N3       1.0000 0.91830  0.19490  0.53970  Biso   1.000  N
  N4       1.0000 0.08170  0.80510  0.46030  Biso   1.000  N
  N5       1.0000 0.97080  0.29970  0.31680  Biso   1.000  N
  N6       1.0000 0.02920  0.70030  0.68320  Biso   1.000  N
  N7       1.0000 0.64020  0.39650  0.32100  Biso   1.000  N
  N8       1.0000 0.35980  0.60350  0.67900  Biso   1.000  N
  C1       1.0000 0.69010  0.28640  0.64340  Biso   1.000  C
  C2       1.0000 0.30990  0.71360  0.35660  Biso   1.000  C
  C3       1.0000 0.85980  0.22330  0.63410  Biso   1.000  C
  C4       1.0000 0.14020  0.77670  0.36590  Biso   1.000  C
  C5       1.0000 0.06550  0.11350  0.52660  Biso   1.000  C
  C6       1.0000 0.93450  0.88650  0.47340  Biso   1.000  C
  C7       1.0000 0.12400  0.01270  0.61060  Biso   1.000  C
  C8       1.0000 0.87600  0.98730  0.38940  Biso   1.000  C
  H7       1.0000 0.06490  0.99790  0.67720  Biso   1.000  H
  H8       1.0000 0.93510  0.00210  0.32280  Biso   1.000  H
  C9       1.0000 0.26740  0.93530  0.59630  Biso   1.000  C
  C10      1.0000 0.73260  0.06470  0.40370  Biso   1.000  C
  H9       1.0000 0.30460  0.86920  0.65390  Biso   1.000  H
  H10      1.0000 0.69540  0.13080  0.34610  Biso   1.000  H
  C11      1.0000 0.35760  0.95300  0.49870  Biso   1.000  C
  C12      1.0000 0.64240  0.04700  0.50130  Biso   1.000  C
  H11      1.0000 0.45590  0.90140  0.49040  Biso   1.000  H
  H12      1.0000 0.54410  0.09860  0.50960  Biso   1.000  H
  C13      1.0000 0.29950  0.04840  0.41430  Biso   1.000  C
  C14      1.0000 0.70050  0.95160  0.58570  Biso   1.000  C
  H13      1.0000 0.35850  0.05950  0.34710  Biso   1.000  H
  H14      1.0000 0.64150  0.94050  0.65290  Biso   1.000  H
  C15      1.0000 0.15290  0.13010  0.42600  Biso   1.000  C
  C16      1.0000 0.84710  0.86990  0.57400  Biso   1.000  C
  C17      1.0000 0.10330  0.22670  0.33110  Biso   1.000  C
  C18      1.0000 0.89670  0.77330  0.66890  Biso   1.000  C
  H15      1.0000 0.17710  0.23720  0.27280  Biso   1.000  H
  H16      1.0000 0.82290  0.76280  0.72720  Biso   1.000  H
  C19      1.0000 0.95480  0.39010  0.21040  Biso   1.000  C
  C20      1.0000 0.04520  0.60990  0.78960  Biso   1.000  C
  H17      1.0000 0.93170  0.47170  0.22100  Biso   1.000  H
  H18      1.0000 0.06830  0.52830  0.77900  Biso   1.000  H
  H19      1.0000 0.04890  0.37190  0.16310  Biso   1.000  H
  H20      1.0000 0.95110  0.62810  0.83690  Biso   1.000  H
  C21      1.0000 0.83270  0.38830  0.15620  Biso   1.000  C
  C22      1.0000 0.16730  0.61170  0.84380  Biso   1.000  C
  H21      1.0000 0.84070  0.30350  0.16380  Biso   1.000  H
  H22      1.0000 0.15930  0.69650  0.83620  Biso   1.000  H
  H23      1.0000 0.84670  0.42660  0.07870  Biso   1.000  H
  H24      1.0000 0.15330  0.57340  0.92130  Biso   1.000  H
  C23      1.0000 0.67980  0.45400  0.20410  Biso   1.000  C
  C24      1.0000 0.32020  0.54600  0.79590  Biso   1.000  C
  H25      1.0000 0.60680  0.45670  0.16160  Biso   1.000  H
  H26      1.0000 0.39320  0.54330  0.83840  Biso   1.000  H
  H27      1.0000 0.67320  0.53810  0.19760  Biso   1.000  H
  H28      1.0000 0.32680  0.46190  0.80240  Biso   1.000  H
  C25      1.0000 0.49930  0.41370  0.34770  Biso   1.000  C
  C26      1.0000 0.50070  0.58630  0.65230  Biso   1.000  C
  H29      1.0000 0.44160  0.45330  0.29010  Biso   1.000  H
  H30      1.0000 0.55840  0.54670  0.70990  Biso   1.000  H
  C27      1.0000 0.41660  0.38110  0.45350  Biso   1.000  C
  C28      1.0000 0.58340  0.61890  0.54650  Biso   1.000  C
  C29      1.0000 0.26510  0.40090  0.45190  Biso   1.000  C
  C30      1.0000 0.73490  0.59910  0.54810  Biso   1.000  C
  H31      1.0000 0.22520  0.43580  0.38570  Biso   1.000  H
  H32      1.0000 0.77480  0.56420  0.61430  Biso   1.000  H
  C31      1.0000 0.17390  0.36990  0.54600  Biso   1.000  C
  C32      1.0000 0.82610  0.63010  0.45400  Biso   1.000  C
  H33      1.0000 0.07390  0.38170  0.54350  Biso   1.000  H
  H34      1.0000 0.92610  0.61830  0.45650  Biso   1.000  H
  C33      1.0000 0.23320  0.32090  0.64400  Biso   1.000  C
  C34      1.0000 0.76680  0.67910  0.35600  Biso   1.000  C
  H35      1.0000 0.17280  0.29880  0.70800  Biso   1.000  H
  H36      1.0000 0.82720  0.70120  0.29200  Biso   1.000  H
  C35      1.0000 0.38110  0.30410  0.64850  Biso   1.000  C
  C36      1.0000 0.61890  0.69590  0.35150  Biso   1.000  C
  H37      1.0000 0.41790  0.27260  0.71590  Biso   1.000  H
  H38      1.0000 0.58210  0.72740  0.28410  Biso   1.000  H
  C37      1.0000 0.47630  0.33350  0.55420  Biso   1.000  C
  C38      1.0000 0.52370  0.66650  0.44580  Biso   1.000  C
  C39      1.0000 0.41190  0.17320  0.08030  Biso   1.000  C
  C40      1.0000 0.58810  0.82680  0.91970  Biso   1.000  C
  C41      1.0000 0.28720  0.22520  0.02570  Biso   1.000  C
  C42      1.0000 0.71280  0.77480  0.97430  Biso   1.000  C
  H39      1.0000 0.25920  0.30870  0.99150  Biso   1.000  H
  H40      1.0000 0.74080  0.69130  0.00850  Biso   1.000  H
  C43      1.0000 0.20140  0.15570  0.02010  Biso   1.000  C
  C44      1.0000 0.79860  0.84430  0.97990  Biso   1.000  C
  C45      1.0000 0.24470  0.02930  0.07130  Biso   1.000  C
  C46      1.0000 0.75530  0.97070  0.92870  Biso   1.000  C
  C47      1.0000 0.37420  0.97790  0.12490  Biso   1.000  C
  C48      1.0000 0.62580  0.02210  0.87510  Biso   1.000  C
  H41      1.0000 0.40490  0.89420  0.15820  Biso   1.000  H
  H42      1.0000 0.59510  0.10580  0.84180  Biso   1.000  H
  C49      1.0000 0.45680  0.04800  0.12950  Biso   1.000  C
  C50      1.0000 0.54320  0.95200  0.87050  Biso   1.000  C
  H43      1.0000 0.54210  0.01180  0.16520  Biso   1.000  H
  H44      1.0000 0.45790  0.98820  0.83480  Biso   1.000  H
  C51      1.0000 0.06880  0.22620  0.95880  Biso   1.000  C
  C52      1.0000 0.93120  0.77380  0.04120  Biso   1.000  C
