data_image0
_cell_length_a       24.247
_cell_length_b       24.247
_cell_length_c       11.3891
_cell_angle_alpha    90
_cell_angle_beta     90
_cell_angle_gamma    120

_symmetry_space_group_name_H-M    "P 1"
_symmetry_int_tables_number       1

loop_
  _symmetry_equiv_pos_as_xyz
  'x, y, z'

loop_
  _atom_site_label
  _atom_site_occupancy
  _atom_site_fract_x
  _atom_site_fract_y
  _atom_site_fract_z
  _atom_site_thermal_displace_type
  _atom_site_B_iso_or_equiv
  _atom_site_type_symbol
  Cu1      1.0000 0.60891  0.01362  0.53281  Biso   1.000  Cu
  Cu2      1.0000 0.98638  0.59529  0.53281  Biso   1.000  Cu
  Cu3      1.0000 0.40471  0.39109  0.53281  Biso   1.000  Cu
  Cu4      1.0000 0.94224  0.34695  0.86614  Biso   1.000  Cu
  Cu5      1.0000 0.31971  0.92862  0.86614  Biso   1.000  Cu
  Cu6      1.0000 0.73804  0.72442  0.86614  Biso   1.000  Cu
  Cu7      1.0000 0.34695  0.73804  0.80052  Biso   1.000  Cu
  Cu8      1.0000 0.92862  0.94224  0.80052  Biso   1.000  Cu
  Cu9      1.0000 0.39109  0.98638  0.46719  Biso   1.000  Cu
  Cu10     1.0000 0.01362  0.40471  0.46719  Biso   1.000  Cu
  Cu11     1.0000 0.59529  0.60891  0.46719  Biso   1.000  Cu
  Cu12     1.0000 0.72442  0.31971  0.80052  Biso   1.000  Cu
  O1       1.0000 0.61560  0.95740  0.64620  Biso   1.000  O
  O2       1.0000 0.04260  0.65820  0.64620  Biso   1.000  O
  O3       1.0000 0.34180  0.38440  0.64620  Biso   1.000  O
  O4       1.0000 0.94893  0.29073  0.97953  Biso   1.000  O
  O5       1.0000 0.37593  0.99153  0.97953  Biso   1.000  O
  O6       1.0000 0.67513  0.71773  0.97953  Biso   1.000  O
  O7       1.0000 0.29073  0.67513  0.68713  Biso   1.000  O
  O8       1.0000 0.99153  0.94893  0.68713  Biso   1.000  O
  O9       1.0000 0.38440  0.04260  0.35380  Biso   1.000  O
  O10      1.0000 0.95740  0.34180  0.35380  Biso   1.000  O
  O11      1.0000 0.65820  0.61560  0.35380  Biso   1.000  O
  O12      1.0000 0.71773  0.37593  0.68713  Biso   1.000  O
  O13      1.0000 0.59540  0.87100  0.74160  Biso   1.000  O
  O14      1.0000 0.12900  0.72440  0.74160  Biso   1.000  O
  O15      1.0000 0.27560  0.40460  0.74160  Biso   1.000  O
  O16      1.0000 0.92873  0.20433  0.07493  Biso   1.000  O
  O17      1.0000 0.46233  0.05773  0.07493  Biso   1.000  O
  O18      1.0000 0.60893  0.73793  0.07493  Biso   1.000  O
  O19      1.0000 0.20433  0.60893  0.59173  Biso   1.000  O
  O20      1.0000 0.05773  0.92873  0.59173  Biso   1.000  O
  O21      1.0000 0.40460  0.12900  0.25840  Biso   1.000  O
  O22      1.0000 0.87100  0.27560  0.25840  Biso   1.000  O
  O23      1.0000 0.72440  0.59540  0.25840  Biso   1.000  O
  O24      1.0000 0.73793  0.46233  0.59173  Biso   1.000  O
  O25      1.0000 0.54690  0.94220  0.44410  Biso   1.000  O
  O26      1.0000 0.05780  0.60470  0.44410  Biso   1.000  O
  O27      1.0000 0.39530  0.45310  0.44410  Biso   1.000  O
  O28      1.0000 0.88023  0.27553  0.77743  Biso   1.000  O
  O29      1.0000 0.39113  0.93803  0.77743  Biso   1.000  O
  O30      1.0000 0.72863  0.78643  0.77743  Biso   1.000  O
  O31      1.0000 0.27553  0.72863  0.88923  Biso   1.000  O
  O32      1.0000 0.93803  0.88023  0.88923  Biso   1.000  O
  O33      1.0000 0.45310  0.05780  0.55590  Biso   1.000  O
  O34      1.0000 0.94220  0.39530  0.55590  Biso   1.000  O
  O35      1.0000 0.60470  0.54690  0.55590  Biso   1.000  O
  O36      1.0000 0.78643  0.39113  0.88923  Biso   1.000  O
  O37      1.0000 0.52530  0.01000  0.64570  Biso   1.000  O
  O38      1.0000 0.99000  0.51530  0.64570  Biso   1.000  O
  O39      1.0000 0.48470  0.47470  0.64570  Biso   1.000  O
  O40      1.0000 0.85863  0.34333  0.97903  Biso   1.000  O
  O41      1.0000 0.32333  0.84863  0.97903  Biso   1.000  O
  O42      1.0000 0.81803  0.80803  0.97903  Biso   1.000  O
  O43      1.0000 0.34333  0.81803  0.68763  Biso   1.000  O
  O44      1.0000 0.84863  0.85863  0.68763  Biso   1.000  O
  O45      1.0000 0.47470  0.99000  0.35430  Biso   1.000  O
  O46      1.0000 0.01000  0.48470  0.35430  Biso   1.000  O
  O47      1.0000 0.51530  0.52530  0.35430  Biso   1.000  O
  O48      1.0000 0.80803  0.32333  0.68763  Biso   1.000  O
  N1       1.0000 0.67950  0.08840  0.61870  Biso   1.000  N
  N2       1.0000 0.91160  0.59110  0.61870  Biso   1.000  N
  N3       1.0000 0.40890  0.32050  0.61870  Biso   1.000  N
  N4       1.0000 0.01283  0.42173  0.95203  Biso   1.000  N
  N5       1.0000 0.24493  0.92443  0.95203  Biso   1.000  N
  N6       1.0000 0.74223  0.65383  0.95203  Biso   1.000  N
  N7       1.0000 0.42173  0.74223  0.71463  Biso   1.000  N
  N8       1.0000 0.92443  0.01283  0.71463  Biso   1.000  N
  N9       1.0000 0.32050  0.91160  0.38130  Biso   1.000  N
  N10      1.0000 0.08840  0.40890  0.38130  Biso   1.000  N
  N11      1.0000 0.59110  0.67950  0.38130  Biso   1.000  N
  N12      1.0000 0.65383  0.24493  0.71463  Biso   1.000  N
  N13      1.0000 0.82340  0.24140  0.80280  Biso   1.000  N
  N14      1.0000 0.75860  0.58200  0.80280  Biso   1.000  N
  N15      1.0000 0.41800  0.17660  0.80280  Biso   1.000  N
  N16      1.0000 0.15673  0.57473  0.13613  Biso   1.000  N
  N17      1.0000 0.09193  0.91533  0.13613  Biso   1.000  N
  N18      1.0000 0.75133  0.50993  0.13613  Biso   1.000  N
  N19      1.0000 0.57473  0.75133  0.53053  Biso   1.000  N
  N20      1.0000 0.91533  0.15673  0.53053  Biso   1.000  N
  N21      1.0000 0.17660  0.75860  0.19720  Biso   1.000  N
  N22      1.0000 0.24140  0.41800  0.19720  Biso   1.000  N
  N23      1.0000 0.58200  0.82340  0.19720  Biso   1.000  N
  N24      1.0000 0.50993  0.09193  0.53053  Biso   1.000  N
  C1       1.0000 0.58320  0.89750  0.65770  Biso   1.000  C
  C2       1.0000 0.10250  0.68570  0.65770  Biso   1.000  C
  C3       1.0000 0.31430  0.41680  0.65770  Biso   1.000  C
  C4       1.0000 0.91653  0.23083  0.99103  Biso   1.000  C
  C5       1.0000 0.43583  0.01903  0.99103  Biso   1.000  C
  C6       1.0000 0.64763  0.75013  0.99103  Biso   1.000  C
  C7       1.0000 0.23083  0.64763  0.67563  Biso   1.000  C
  C8       1.0000 0.01903  0.91653  0.67563  Biso   1.000  C
  C9       1.0000 0.41680  0.10250  0.34230  Biso   1.000  C
  C10      1.0000 0.89750  0.31430  0.34230  Biso   1.000  C
  C11      1.0000 0.68570  0.58320  0.34230  Biso   1.000  C
  C12      1.0000 0.75013  0.43583  0.67563  Biso   1.000  C
  C13      1.0000 0.52960  0.85760  0.57900  Biso   1.000  C
  C14      1.0000 0.14240  0.67200  0.57900  Biso   1.000  C
  C15      1.0000 0.32800  0.47040  0.57900  Biso   1.000  C
  C16      1.0000 0.86293  0.19093  0.91233  Biso   1.000  C
  C17      1.0000 0.47573  0.00533  0.91233  Biso   1.000  C
  C18      1.0000 0.66133  0.80373  0.91233  Biso   1.000  C
  C19      1.0000 0.19093  0.66133  0.75433  Biso   1.000  C
  C20      1.0000 0.00533  0.86293  0.75433  Biso   1.000  C
  C21      1.0000 0.47040  0.14240  0.42100  Biso   1.000  C
  C22      1.0000 0.85760  0.32800  0.42100  Biso   1.000  C
  C23      1.0000 0.67200  0.52960  0.42100  Biso   1.000  C
  C24      1.0000 0.80373  0.47573  0.75433  Biso   1.000  C
  C25      1.0000 0.51460  0.88230  0.47930  Biso   1.000  C
  C26      1.0000 0.11770  0.63230  0.47930  Biso   1.000  C
  C27      1.0000 0.36770  0.48540  0.47930  Biso   1.000  C
  C28      1.0000 0.84793  0.21563  0.81263  Biso   1.000  C
  C29      1.0000 0.45103  0.96563  0.81263  Biso   1.000  C
  C30      1.0000 0.70103  0.81873  0.81263  Biso   1.000  C
  C31      1.0000 0.21563  0.70103  0.85403  Biso   1.000  C
  C32      1.0000 0.96563  0.84793  0.85403  Biso   1.000  C
  C33      1.0000 0.48540  0.11770  0.52070  Biso   1.000  C
  C34      1.0000 0.88230  0.36770  0.52070  Biso   1.000  C
  C35      1.0000 0.63230  0.51460  0.52070  Biso   1.000  C
  C36      1.0000 0.81873  0.45103  0.85403  Biso   1.000  C
  C37      1.0000 0.46060  0.83980  0.41340  Biso   1.000  C
  C38      1.0000 0.16020  0.62080  0.41340  Biso   1.000  C
  C39      1.0000 0.37920  0.53940  0.41340  Biso   1.000  C
  C40      1.0000 0.79393  0.17313  0.74673  Biso   1.000  C
  C41      1.0000 0.49353  0.95413  0.74673  Biso   1.000  C
  C42      1.0000 0.71253  0.87273  0.74673  Biso   1.000  C
  C43      1.0000 0.17313  0.71253  0.91993  Biso   1.000  C
  C44      1.0000 0.95413  0.79393  0.91993  Biso   1.000  C
  C45      1.0000 0.53940  0.16020  0.58660  Biso   1.000  C
  C46      1.0000 0.83980  0.37920  0.58660  Biso   1.000  C
  C47      1.0000 0.62080  0.46060  0.58660  Biso   1.000  C
  C48      1.0000 0.87273  0.49353  0.91993  Biso   1.000  C
  C49      1.0000 0.42320  0.77700  0.44470  Biso   1.000  C
  C50      1.0000 0.22300  0.64620  0.44470  Biso   1.000  C
  C51      1.0000 0.35380  0.57680  0.44470  Biso   1.000  C
  C52      1.0000 0.75653  0.11033  0.77803  Biso   1.000  C
  C53      1.0000 0.55633  0.97953  0.77803  Biso   1.000  C
  C54      1.0000 0.68713  0.91013  0.77803  Biso   1.000  C
  C55      1.0000 0.11033  0.68713  0.88863  Biso   1.000  C
  C56      1.0000 0.97953  0.75653  0.88863  Biso   1.000  C
  C57      1.0000 0.57680  0.22300  0.55530  Biso   1.000  C
  C58      1.0000 0.77700  0.35380  0.55530  Biso   1.000  C
  C59      1.0000 0.64620  0.42320  0.55530  Biso   1.000  C
  C60      1.0000 0.91013  0.55633  0.88863  Biso   1.000  C
  C61      1.0000 0.43850  0.75330  0.54160  Biso   1.000  C
  C62      1.0000 0.24670  0.68520  0.54160  Biso   1.000  C
  C63      1.0000 0.31480  0.56150  0.54160  Biso   1.000  C
  C64      1.0000 0.77183  0.08663  0.87493  Biso   1.000  C
  C65      1.0000 0.58003  0.01853  0.87493  Biso   1.000  C
  C66      1.0000 0.64813  0.89483  0.87493  Biso   1.000  C
  C67      1.0000 0.08663  0.64813  0.79173  Biso   1.000  C
  C68      1.0000 0.01853  0.77183  0.79173  Biso   1.000  C
  C69      1.0000 0.56150  0.24670  0.45840  Biso   1.000  C
  C70      1.0000 0.75330  0.31480  0.45840  Biso   1.000  C
  C71      1.0000 0.68520  0.43850  0.45840  Biso   1.000  C
  C72      1.0000 0.89483  0.58003  0.79173  Biso   1.000  C
  C73      1.0000 0.49090  0.79310  0.60730  Biso   1.000  C
  C74      1.0000 0.20690  0.69780  0.60730  Biso   1.000  C
  C75      1.0000 0.30220  0.50910  0.60730  Biso   1.000  C
  C76      1.0000 0.82423  0.12643  0.94063  Biso   1.000  C
  C77      1.0000 0.54023  0.03113  0.94063  Biso   1.000  C
  C78      1.0000 0.63553  0.84243  0.94063  Biso   1.000  C
  C79      1.0000 0.12643  0.63553  0.72603  Biso   1.000  C
  C80      1.0000 0.03113  0.82423  0.72603  Biso   1.000  C
  C81      1.0000 0.50910  0.20690  0.39270  Biso   1.000  C
  C82      1.0000 0.79310  0.30220  0.39270  Biso   1.000  C
  C83      1.0000 0.69780  0.49090  0.39270  Biso   1.000  C
  C84      1.0000 0.84243  0.54023  0.72603  Biso   1.000  C
  C85      1.0000 0.70990  0.08250  0.70970  Biso   1.000  C
  C86      1.0000 0.91750  0.62740  0.70970  Biso   1.000  C
  C87      1.0000 0.37260  0.29010  0.70970  Biso   1.000  C
  C88      1.0000 0.04323  0.41583  0.04303  Biso   1.000  C
  C89      1.0000 0.25083  0.96073  0.04303  Biso   1.000  C
  C90      1.0000 0.70593  0.62343  0.04303  Biso   1.000  C
  C91      1.0000 0.41583  0.70593  0.62363  Biso   1.000  C
  C92      1.0000 0.96073  0.04323  0.62363  Biso   1.000  C
  C93      1.0000 0.29010  0.91750  0.29030  Biso   1.000  C
  C94      1.0000 0.08250  0.37260  0.29030  Biso   1.000  C
  C95      1.0000 0.62740  0.70990  0.29030  Biso   1.000  C
  C96      1.0000 0.62343  0.25083  0.62363  Biso   1.000  C
  C97      1.0000 0.75690  0.13060  0.77160  Biso   1.000  C
  C98      1.0000 0.86940  0.62630  0.77160  Biso   1.000  C
  C99      1.0000 0.37370  0.24310  0.77160  Biso   1.000  C
  C100     1.0000 0.09023  0.46393  0.10493  Biso   1.000  C
  C101     1.0000 0.20273  0.95963  0.10493  Biso   1.000  C
  C102     1.0000 0.70703  0.57643  0.10493  Biso   1.000  C
  C103     1.0000 0.46393  0.70703  0.56173  Biso   1.000  C
  C104     1.0000 0.95963  0.09023  0.56173  Biso   1.000  C
  C105     1.0000 0.24310  0.86940  0.22840  Biso   1.000  C
  C106     1.0000 0.13060  0.37370  0.22840  Biso   1.000  C
  C107     1.0000 0.62630  0.75690  0.22840  Biso   1.000  C
  C108     1.0000 0.57643  0.20273  0.56173  Biso   1.000  C
  C109     1.0000 0.77740  0.19180  0.74220  Biso   1.000  C
  C110     1.0000 0.80820  0.58560  0.74220  Biso   1.000  C
  C111     1.0000 0.41440  0.22260  0.74220  Biso   1.000  C
  C112     1.0000 0.11073  0.52513  0.07553  Biso   1.000  C
  C113     1.0000 0.14153  0.91893  0.07553  Biso   1.000  C
  C114     1.0000 0.74773  0.55593  0.07553  Biso   1.000  C
  C115     1.0000 0.52513  0.74773  0.59113  Biso   1.000  C
  C116     1.0000 0.91893  0.11073  0.59113  Biso   1.000  C
  C117     1.0000 0.22260  0.80820  0.25780  Biso   1.000  C
  C118     1.0000 0.19180  0.41440  0.25780  Biso   1.000  C
  C119     1.0000 0.58560  0.77740  0.25780  Biso   1.000  C
  C120     1.0000 0.55593  0.14153  0.59113  Biso   1.000  C
  C121     1.0000 0.74640  0.19870  0.64890  Biso   1.000  C
  C122     1.0000 0.80130  0.54770  0.64890  Biso   1.000  C
  C123     1.0000 0.45230  0.25360  0.64890  Biso   1.000  C
  C124     1.0000 0.07973  0.53203  0.98223  Biso   1.000  C
  C125     1.0000 0.13463  0.88103  0.98223  Biso   1.000  C
  C126     1.0000 0.78563  0.58693  0.98223  Biso   1.000  C
  C127     1.0000 0.53203  0.78563  0.68443  Biso   1.000  C
  C128     1.0000 0.88103  0.07973  0.68443  Biso   1.000  C
  C129     1.0000 0.25360  0.80130  0.35110  Biso   1.000  C
  C130     1.0000 0.19870  0.45230  0.35110  Biso   1.000  C
  C131     1.0000 0.54770  0.74640  0.35110  Biso   1.000  C
  C132     1.0000 0.58693  0.13463  0.68443  Biso   1.000  C
  C133     1.0000 0.69900  0.14780  0.59230  Biso   1.000  C
  C134     1.0000 0.85220  0.55120  0.59230  Biso   1.000  C
  C135     1.0000 0.44880  0.30100  0.59230  Biso   1.000  C
  C136     1.0000 0.03233  0.48113  0.92563  Biso   1.000  C
  C137     1.0000 0.18553  0.88453  0.92563  Biso   1.000  C
  C138     1.0000 0.78213  0.63433  0.92563  Biso   1.000  C
  C139     1.0000 0.48113  0.78213  0.74103  Biso   1.000  C
  C140     1.0000 0.88453  0.03233  0.74103  Biso   1.000  C
  C141     1.0000 0.30100  0.85220  0.40770  Biso   1.000  C
  C142     1.0000 0.14780  0.44880  0.40770  Biso   1.000  C
  C143     1.0000 0.55120  0.69900  0.40770  Biso   1.000  C
  C144     1.0000 0.63433  0.18553  0.74103  Biso   1.000  C
  H1       1.0000 0.45300  0.85400  0.33900  Biso   1.000  H
  H2       1.0000 0.14600  0.59900  0.33900  Biso   1.000  H
  H3       1.0000 0.40100  0.54700  0.33900  Biso   1.000  H
  H4       1.0000 0.78633  0.18733  0.67233  Biso   1.000  H
  H5       1.0000 0.47933  0.93233  0.67233  Biso   1.000  H
  H6       1.0000 0.73433  0.88033  0.67233  Biso   1.000  H
  H7       1.0000 0.18733  0.73433  0.99433  Biso   1.000  H
  H8       1.0000 0.93233  0.78633  0.99433  Biso   1.000  H
  H9       1.0000 0.54700  0.14600  0.66100  Biso   1.000  H
  H10      1.0000 0.85400  0.40100  0.66100  Biso   1.000  H
  H11      1.0000 0.59900  0.45300  0.66100  Biso   1.000  H
  H12      1.0000 0.88033  0.47933  0.99433  Biso   1.000  H
  H13      1.0000 0.38600  0.75000  0.40900  Biso   1.000  H
  H14      1.0000 0.25000  0.63600  0.40900  Biso   1.000  H
  H15      1.0000 0.36400  0.61400  0.40900  Biso   1.000  H
  H16      1.0000 0.71933  0.08333  0.74233  Biso   1.000  H
  H17      1.0000 0.58333  0.96933  0.74233  Biso   1.000  H
  H18      1.0000 0.69733  0.94733  0.74233  Biso   1.000  H
  H19      1.0000 0.08333  0.69733  0.92433  Biso   1.000  H
  H20      1.0000 0.96933  0.71933  0.92433  Biso   1.000  H
  H21      1.0000 0.61400  0.25000  0.59100  Biso   1.000  H
  H22      1.0000 0.75000  0.36400  0.59100  Biso   1.000  H
  H23      1.0000 0.63600  0.38600  0.59100  Biso   1.000  H
  H24      1.0000 0.94733  0.58333  0.92433  Biso   1.000  H
  H25      1.0000 0.41900  0.71700  0.55700  Biso   1.000  H
  H26      1.0000 0.28300  0.70200  0.55700  Biso   1.000  H
  H27      1.0000 0.29800  0.58100  0.55700  Biso   1.000  H
  H28      1.0000 0.75233  0.05033  0.89033  Biso   1.000  H
  H29      1.0000 0.61633  0.03533  0.89033  Biso   1.000  H
  H30      1.0000 0.63133  0.91433  0.89033  Biso   1.000  H
  H31      1.0000 0.05033  0.63133  0.77633  Biso   1.000  H
  H32      1.0000 0.03533  0.75233  0.77633  Biso   1.000  H
  H33      1.0000 0.58100  0.28300  0.44300  Biso   1.000  H
  H34      1.0000 0.71700  0.29800  0.44300  Biso   1.000  H
  H35      1.0000 0.70200  0.41900  0.44300  Biso   1.000  H
  H36      1.0000 0.91433  0.61633  0.77633  Biso   1.000  H
  H37      1.0000 0.50100  0.77900  0.66600  Biso   1.000  H
  H38      1.0000 0.22100  0.72200  0.66600  Biso   1.000  H
  H39      1.0000 0.27800  0.49900  0.66600  Biso   1.000  H
  H40      1.0000 0.83433  0.11233  0.99933  Biso   1.000  H
  H41      1.0000 0.55433  0.05533  0.99933  Biso   1.000  H
  H42      1.0000 0.61133  0.83233  0.99933  Biso   1.000  H
  H43      1.0000 0.11233  0.61133  0.66733  Biso   1.000  H
  H44      1.0000 0.05533  0.83433  0.66733  Biso   1.000  H
  H45      1.0000 0.49900  0.22100  0.33400  Biso   1.000  H
  H46      1.0000 0.77900  0.27800  0.33400  Biso   1.000  H
  H47      1.0000 0.72200  0.50100  0.33400  Biso   1.000  H
  H48      1.0000 0.83233  0.55433  0.66733  Biso   1.000  H
  H49      1.0000 0.69900  0.04900  0.72400  Biso   1.000  H
  H50      1.0000 0.95100  0.65000  0.72400  Biso   1.000  H
  H51      1.0000 0.35000  0.30100  0.72400  Biso   1.000  H
  H52      1.0000 0.03233  0.38233  0.05733  Biso   1.000  H
  H53      1.0000 0.28433  0.98333  0.05733  Biso   1.000  H
  H54      1.0000 0.68333  0.63433  0.05733  Biso   1.000  H
  H55      1.0000 0.38233  0.68333  0.60933  Biso   1.000  H
  H56      1.0000 0.98333  0.03233  0.60933  Biso   1.000  H
  H57      1.0000 0.30100  0.95100  0.27600  Biso   1.000  H
  H58      1.0000 0.04900  0.35000  0.27600  Biso   1.000  H
  H59      1.0000 0.65000  0.69900  0.27600  Biso   1.000  H
  H60      1.0000 0.63433  0.28433  0.60933  Biso   1.000  H
  H61      1.0000 0.77800  0.11600  0.81900  Biso   1.000  H
  H62      1.0000 0.88400  0.66200  0.81900  Biso   1.000  H
  H63      1.0000 0.33800  0.22200  0.81900  Biso   1.000  H
  H64      1.0000 0.11133  0.44933  0.15233  Biso   1.000  H
  H65      1.0000 0.21733  0.99533  0.15233  Biso   1.000  H
  H66      1.0000 0.67133  0.55533  0.15233  Biso   1.000  H
  H67      1.0000 0.44933  0.67133  0.51433  Biso   1.000  H
  H68      1.0000 0.99533  0.11133  0.51433  Biso   1.000  H
  H69      1.0000 0.22200  0.88400  0.18100  Biso   1.000  H
  H70      1.0000 0.11600  0.33800  0.18100  Biso   1.000  H
  H71      1.0000 0.66200  0.77800  0.18100  Biso   1.000  H
  H72      1.0000 0.55533  0.21733  0.51433  Biso   1.000  H
  H73      1.0000 0.84600  0.22900  0.85700  Biso   1.000  H
  H74      1.0000 0.77100  0.61700  0.85700  Biso   1.000  H
  H75      1.0000 0.38300  0.15400  0.85700  Biso   1.000  H
  H76      1.0000 0.17933  0.56233  0.19033  Biso   1.000  H
  H77      1.0000 0.10433  0.95033  0.19033  Biso   1.000  H
  H78      1.0000 0.71633  0.48733  0.19033  Biso   1.000  H
  H79      1.0000 0.56233  0.71633  0.47633  Biso   1.000  H
  H80      1.0000 0.95033  0.17933  0.47633  Biso   1.000  H
  H81      1.0000 0.15400  0.77100  0.14300  Biso   1.000  H
  H82      1.0000 0.22900  0.38300  0.14300  Biso   1.000  H
  H83      1.0000 0.61700  0.84600  0.14300  Biso   1.000  H
  H84      1.0000 0.48733  0.10433  0.47633  Biso   1.000  H
  H85      1.0000 0.84200  0.26900  0.76800  Biso   1.000  H
  H86      1.0000 0.73100  0.57300  0.76800  Biso   1.000  H
  H87      1.0000 0.42700  0.15800  0.76800  Biso   1.000  H
  H88      1.0000 0.17533  0.60233  0.10133  Biso   1.000  H
  H89      1.0000 0.06433  0.90633  0.10133  Biso   1.000  H
  H90      1.0000 0.76033  0.49133  0.10133  Biso   1.000  H
  H91      1.0000 0.60233  0.76033  0.56533  Biso   1.000  H
  H92      1.0000 0.90633  0.17533  0.56533  Biso   1.000  H
  H93      1.0000 0.15800  0.73100  0.23200  Biso   1.000  H
  H94      1.0000 0.26900  0.42700  0.23200  Biso   1.000  H
  H95      1.0000 0.57300  0.84200  0.23200  Biso   1.000  H
  H96      1.0000 0.49133  0.06433  0.56533  Biso   1.000  H
  H97      1.0000 0.75680  0.24040  0.62510  Biso   1.000  H
  H98      1.0000 0.75960  0.51640  0.62510  Biso   1.000  H
  H99      1.0000 0.48360  0.24320  0.62510  Biso   1.000  H
  H100     1.0000 0.09013  0.57373  0.95843  Biso   1.000  H
  H101     1.0000 0.09293  0.84973  0.95843  Biso   1.000  H
  H102     1.0000 0.81693  0.57653  0.95843  Biso   1.000  H
  H103     1.0000 0.57373  0.81693  0.70823  Biso   1.000  H
  H104     1.0000 0.84973  0.09013  0.70823  Biso   1.000  H
  H105     1.0000 0.24320  0.75960  0.37490  Biso   1.000  H
  H106     1.0000 0.24040  0.48360  0.37490  Biso   1.000  H
  H107     1.0000 0.51640  0.75680  0.37490  Biso   1.000  H
  H108     1.0000 0.57653  0.09293  0.70823  Biso   1.000  H
  H109     1.0000 0.68500  0.15400  0.53800  Biso   1.000  H
  H110     1.0000 0.84600  0.53100  0.53800  Biso   1.000  H
  H111     1.0000 0.46900  0.31500  0.53800  Biso   1.000  H
  H112     1.0000 0.01833  0.48733  0.87133  Biso   1.000  H
  H113     1.0000 0.17933  0.86433  0.87133  Biso   1.000  H
  H114     1.0000 0.80233  0.64833  0.87133  Biso   1.000  H
  H115     1.0000 0.48733  0.80233  0.79533  Biso   1.000  H
  H116     1.0000 0.86433  0.01833  0.79533  Biso   1.000  H
  H117     1.0000 0.31500  0.84600  0.46200  Biso   1.000  H
  H118     1.0000 0.15400  0.46900  0.46200  Biso   1.000  H
  H119     1.0000 0.53100  0.68500  0.46200  Biso   1.000  H
  H120     1.0000 0.64833  0.17933  0.79533  Biso   1.000  H
  H121     1.0000 0.50500  0.98220  0.69790  Biso   1.000  H
  H122     1.0000 0.01780  0.52280  0.69790  Biso   1.000  H
  H123     1.0000 0.47720  0.49500  0.69790  Biso   1.000  H
  H124     1.0000 0.83833  0.31553  0.03123  Biso   1.000  H
  H125     1.0000 0.35113  0.85613  0.03123  Biso   1.000  H
  H126     1.0000 0.81053  0.82833  0.03123  Biso   1.000  H
  H127     1.0000 0.31553  0.81053  0.63543  Biso   1.000  H
  H128     1.0000 0.85613  0.83833  0.63543  Biso   1.000  H
  H129     1.0000 0.49500  0.01780  0.30210  Biso   1.000  H
  H130     1.0000 0.98220  0.47720  0.30210  Biso   1.000  H
  H131     1.0000 0.52280  0.50500  0.30210  Biso   1.000  H
  H132     1.0000 0.82833  0.35113  0.63543  Biso   1.000  H
  H133     1.0000 0.50760  0.02680  0.61410  Biso   1.000  H
  H134     1.0000 0.97320  0.48080  0.61410  Biso   1.000  H
  H135     1.0000 0.51920  0.49240  0.61410  Biso   1.000  H
  H136     1.0000 0.84093  0.36013  0.94743  Biso   1.000  H
  H137     1.0000 0.30653  0.81413  0.94743  Biso   1.000  H
  H138     1.0000 0.85253  0.82573  0.94743  Biso   1.000  H
  H139     1.0000 0.36013  0.85253  0.71923  Biso   1.000  H
  H140     1.0000 0.81413  0.84093  0.71923  Biso   1.000  H
  H141     1.0000 0.49240  0.97320  0.38590  Biso   1.000  H
  H142     1.0000 0.02680  0.51920  0.38590  Biso   1.000  H
  H143     1.0000 0.48080  0.50760  0.38590  Biso   1.000  H
  H144     1.0000 0.82573  0.30653  0.71923  Biso   1.000  H
  O49      1.0000 0.60893  0.07127  0.40827  Biso   1.000  O
  O50      1.0000 0.92873  0.53767  0.40827  Biso   1.000  O
  O51      1.0000 0.46233  0.39107  0.40827  Biso   1.000  O
  O52      1.0000 0.94227  0.40460  0.74160  Biso   1.000  O
  O53      1.0000 0.26207  0.87100  0.74160  Biso   1.000  O
  O54      1.0000 0.79567  0.72440  0.74160  Biso   1.000  O
  O55      1.0000 0.40460  0.79567  0.92507  Biso   1.000  O
  O56      1.0000 0.87100  0.94227  0.92507  Biso   1.000  O
  O57      1.0000 0.39107  0.92873  0.59173  Biso   1.000  O
  O58      1.0000 0.07127  0.46233  0.59173  Biso   1.000  O
  O59      1.0000 0.53767  0.60893  0.59173  Biso   1.000  O
  O60      1.0000 0.72440  0.26207  0.92507  Biso   1.000  O
  Cu13     1.0000 0.65305  0.92862  0.86614  Biso   1.000  Cu
  Cu14     1.0000 0.07138  0.72442  0.86614  Biso   1.000  Cu
  Cu15     1.0000 0.27558  0.34695  0.86614  Biso   1.000  Cu
  Cu16     1.0000 0.98638  0.26196  0.19948  Biso   1.000  Cu
  Cu17     1.0000 0.40471  0.05776  0.19948  Biso   1.000  Cu
  Cu18     1.0000 0.60891  0.68029  0.19948  Biso   1.000  Cu
  Cu19     1.0000 0.26196  0.60891  0.46719  Biso   1.000  Cu
  Cu20     1.0000 0.05776  0.98638  0.46719  Biso   1.000  Cu
  Cu21     1.0000 0.34695  0.07138  0.13386  Biso   1.000  Cu
  Cu22     1.0000 0.92862  0.27558  0.13386  Biso   1.000  Cu
  Cu23     1.0000 0.72442  0.65305  0.13386  Biso   1.000  Cu
  Cu24     1.0000 0.68029  0.40471  0.46719  Biso   1.000  Cu
