data_image0
_cell_length_a       32.602
_cell_length_b       32.602
_cell_length_c       10.6162
_cell_angle_alpha    90
_cell_angle_beta     90
_cell_angle_gamma    120

_symmetry_space_group_name_H-M    "P 1"
_symmetry_int_tables_number       1

loop_
  _symmetry_equiv_pos_as_xyz
  'x, y, z'

loop_
  _atom_site_label
  _atom_site_occupancy
  _atom_site_fract_x
  _atom_site_fract_y
  _atom_site_fract_z
  _atom_site_thermal_displace_type
  _atom_site_B_iso_or_equiv
  _atom_site_type_symbol
  Cu1      1.0000 0.38991  0.01245  0.55862  Biso   1.000  Cu
  Cu2      1.0000 0.98755  0.37746  0.55862  Biso   1.000  Cu
  Cu3      1.0000 0.62254  0.61009  0.55862  Biso   1.000  Cu
  Cu4      1.0000 0.72324  0.34578  0.89195  Biso   1.000  Cu
  Cu5      1.0000 0.32088  0.71079  0.89195  Biso   1.000  Cu
  Cu6      1.0000 0.95587  0.94342  0.89195  Biso   1.000  Cu
  Cu7      1.0000 0.34578  0.95587  0.77471  Biso   1.000  Cu
  Cu8      1.0000 0.71079  0.72324  0.77471  Biso   1.000  Cu
  Cu9      1.0000 0.61009  0.98755  0.44138  Biso   1.000  Cu
  Cu10     1.0000 0.01245  0.62254  0.44138  Biso   1.000  Cu
  Cu11     1.0000 0.37746  0.38991  0.44138  Biso   1.000  Cu
  Cu12     1.0000 0.94342  0.32088  0.77471  Biso   1.000  Cu
  O1       1.0000 0.43250  0.05770  0.43040  Biso   1.000  O
  O2       1.0000 0.94230  0.37480  0.43040  Biso   1.000  O
  O3       1.0000 0.62520  0.56750  0.43040  Biso   1.000  O
  O4       1.0000 0.76583  0.39103  0.76373  Biso   1.000  O
  O5       1.0000 0.27563  0.70813  0.76373  Biso   1.000  O
  O6       1.0000 0.95853  0.90083  0.76373  Biso   1.000  O
  O7       1.0000 0.39103  0.95853  0.90293  Biso   1.000  O
  O8       1.0000 0.70813  0.76583  0.90293  Biso   1.000  O
  O9       1.0000 0.56750  0.94230  0.56960  Biso   1.000  O
  O10      1.0000 0.05770  0.62520  0.56960  Biso   1.000  O
  O11      1.0000 0.37480  0.43250  0.56960  Biso   1.000  O
  O12      1.0000 0.90083  0.27563  0.90293  Biso   1.000  O
  O13      1.0000 0.36550  0.04140  0.33990  Biso   1.000  O
  O14      1.0000 0.95860  0.32410  0.33990  Biso   1.000  O
  O15      1.0000 0.67590  0.63450  0.33990  Biso   1.000  O
  O16      1.0000 0.69883  0.37473  0.67323  Biso   1.000  O
  O17      1.0000 0.29193  0.65743  0.67323  Biso   1.000  O
  O18      1.0000 0.00923  0.96783  0.67323  Biso   1.000  O
  O19      1.0000 0.37473  0.00923  0.99343  Biso   1.000  O
  O20      1.0000 0.65743  0.69883  0.99343  Biso   1.000  O
  O21      1.0000 0.63450  0.95860  0.66010  Biso   1.000  O
  O22      1.0000 0.04140  0.67590  0.66010  Biso   1.000  O
  O23      1.0000 0.32410  0.36550  0.66010  Biso   1.000  O
  O24      1.0000 0.96783  0.29193  0.99343  Biso   1.000  O
  O25      1.0000 0.37090  0.09190  0.12780  Biso   1.000  O
  O26      1.0000 0.90810  0.27900  0.12780  Biso   1.000  O
  O27      1.0000 0.72100  0.62910  0.12780  Biso   1.000  O
  O28      1.0000 0.70423  0.42523  0.46113  Biso   1.000  O
  O29      1.0000 0.24143  0.61233  0.46113  Biso   1.000  O
  O30      1.0000 0.05433  0.96243  0.46113  Biso   1.000  O
  O31      1.0000 0.42523  0.05433  0.20553  Biso   1.000  O
  O32      1.0000 0.61233  0.70423  0.20553  Biso   1.000  O
  O33      1.0000 0.62910  0.90810  0.87220  Biso   1.000  O
  O34      1.0000 0.09190  0.72100  0.87220  Biso   1.000  O
  O35      1.0000 0.27900  0.37090  0.87220  Biso   1.000  O
  O36      1.0000 0.96243  0.24143  0.20553  Biso   1.000  O
  N1       1.0000 0.65010  0.04910  0.02710  Biso   1.000  N
  N2       1.0000 0.95090  0.60100  0.02710  Biso   1.000  N
  N3       1.0000 0.39900  0.34990  0.02710  Biso   1.000  N
  N4       1.0000 0.98343  0.38243  0.36043  Biso   1.000  N
  N5       1.0000 0.28423  0.93433  0.36043  Biso   1.000  N
  N6       1.0000 0.73233  0.68323  0.36043  Biso   1.000  N
  N7       1.0000 0.38243  0.73233  0.30623  Biso   1.000  N
  N8       1.0000 0.93433  0.98343  0.30623  Biso   1.000  N
  N9       1.0000 0.34990  0.95090  0.97290  Biso   1.000  N
  N10      1.0000 0.04910  0.39900  0.97290  Biso   1.000  N
  N11      1.0000 0.60100  0.65010  0.97290  Biso   1.000  N
  N12      1.0000 0.68323  0.28423  0.30623  Biso   1.000  N
  N13      1.0000 0.45150  0.02610  0.69030  Biso   1.000  N
  N14      1.0000 0.97390  0.42540  0.69030  Biso   1.000  N
  N15      1.0000 0.57460  0.54850  0.69030  Biso   1.000  N
  N16      1.0000 0.78483  0.35943  0.02363  Biso   1.000  N
  N17      1.0000 0.30723  0.75873  0.02363  Biso   1.000  N
  N18      1.0000 0.90793  0.88183  0.02363  Biso   1.000  N
  N19      1.0000 0.35943  0.90793  0.64303  Biso   1.000  N
  N20      1.0000 0.75873  0.78483  0.64303  Biso   1.000  N
  N21      1.0000 0.54850  0.97390  0.30970  Biso   1.000  N
  N22      1.0000 0.02610  0.57460  0.30970  Biso   1.000  N
  N23      1.0000 0.42540  0.45150  0.30970  Biso   1.000  N
  N24      1.0000 0.88183  0.30723  0.64303  Biso   1.000  N
  C1       1.0000 0.62330  0.01330  0.95490  Biso   1.000  C
  C2       1.0000 0.98670  0.61000  0.95490  Biso   1.000  C
  C3       1.0000 0.39000  0.37670  0.95490  Biso   1.000  C
  C4       1.0000 0.95663  0.34663  0.28823  Biso   1.000  C
  C5       1.0000 0.32003  0.94333  0.28823  Biso   1.000  C
  C6       1.0000 0.72333  0.71003  0.28823  Biso   1.000  C
  C7       1.0000 0.34663  0.72333  0.37843  Biso   1.000  C
  C8       1.0000 0.94333  0.95663  0.37843  Biso   1.000  C
  C9       1.0000 0.37670  0.98670  0.04510  Biso   1.000  C
  C10      1.0000 0.01330  0.39000  0.04510  Biso   1.000  C
  C11      1.0000 0.61000  0.62330  0.04510  Biso   1.000  C
  C12      1.0000 0.71003  0.32003  0.37843  Biso   1.000  C
  C13      1.0000 0.58400  0.00770  0.89320  Biso   1.000  C
  C14      1.0000 0.99230  0.57630  0.89320  Biso   1.000  C
  C15      1.0000 0.42370  0.41600  0.89320  Biso   1.000  C
  C16      1.0000 0.91733  0.34103  0.22653  Biso   1.000  C
  C17      1.0000 0.32563  0.90963  0.22653  Biso   1.000  C
  C18      1.0000 0.75703  0.74933  0.22653  Biso   1.000  C
  C19      1.0000 0.34103  0.75703  0.44013  Biso   1.000  C
  C20      1.0000 0.90963  0.91733  0.44013  Biso   1.000  C
  C21      1.0000 0.41600  0.99230  0.10680  Biso   1.000  C
  C22      1.0000 0.00770  0.42370  0.10680  Biso   1.000  C
  C23      1.0000 0.57630  0.58400  0.10680  Biso   1.000  C
  C24      1.0000 0.74933  0.32563  0.44013  Biso   1.000  C
  C25      1.0000 0.56980  0.04040  0.90240  Biso   1.000  C
  C26      1.0000 0.95960  0.52940  0.90240  Biso   1.000  C
  C27      1.0000 0.47060  0.43020  0.90240  Biso   1.000  C
  C28      1.0000 0.90313  0.37373  0.23573  Biso   1.000  C
  C29      1.0000 0.29293  0.86273  0.23573  Biso   1.000  C
  C30      1.0000 0.80393  0.76353  0.23573  Biso   1.000  C
  C31      1.0000 0.37373  0.80393  0.43093  Biso   1.000  C
  C32      1.0000 0.86273  0.90313  0.43093  Biso   1.000  C
  C33      1.0000 0.43020  0.95960  0.09760  Biso   1.000  C
  C34      1.0000 0.04040  0.47060  0.09760  Biso   1.000  C
  C35      1.0000 0.52940  0.56980  0.09760  Biso   1.000  C
  C36      1.0000 0.76353  0.29293  0.43093  Biso   1.000  C
  C37      1.0000 0.59720  0.07670  0.98140  Biso   1.000  C
  C38      1.0000 0.92330  0.52050  0.98140  Biso   1.000  C
  C39      1.0000 0.47950  0.40280  0.98140  Biso   1.000  C
  C40      1.0000 0.93053  0.41003  0.31473  Biso   1.000  C
  C41      1.0000 0.25663  0.85383  0.31473  Biso   1.000  C
  C42      1.0000 0.81283  0.73613  0.31473  Biso   1.000  C
  C43      1.0000 0.41003  0.81283  0.35193  Biso   1.000  C
  C44      1.0000 0.85383  0.93053  0.35193  Biso   1.000  C
  C45      1.0000 0.40280  0.92330  0.01860  Biso   1.000  C
  C46      1.0000 0.07670  0.47950  0.01860  Biso   1.000  C
  C47      1.0000 0.52050  0.59720  0.01860  Biso   1.000  C
  C48      1.0000 0.73613  0.25663  0.35193  Biso   1.000  C
  C49      1.0000 0.63600  0.07990  0.04000  Biso   1.000  C
  C50      1.0000 0.92010  0.55610  0.04000  Biso   1.000  C
  C51      1.0000 0.44390  0.36400  0.04000  Biso   1.000  C
  C52      1.0000 0.96933  0.41323  0.37333  Biso   1.000  C
  C53      1.0000 0.25343  0.88943  0.37333  Biso   1.000  C
  C54      1.0000 0.77723  0.69733  0.37333  Biso   1.000  C
  C55      1.0000 0.41323  0.77723  0.29333  Biso   1.000  C
  C56      1.0000 0.88943  0.96933  0.29333  Biso   1.000  C
  C57      1.0000 0.36400  0.92010  0.96000  Biso   1.000  C
  C58      1.0000 0.07990  0.44390  0.96000  Biso   1.000  C
  C59      1.0000 0.55610  0.63600  0.96000  Biso   1.000  C
  C60      1.0000 0.69733  0.25343  0.29333  Biso   1.000  C
  C61      1.0000 0.46670  0.05160  0.79490  Biso   1.000  C
  C62      1.0000 0.94840  0.41510  0.79490  Biso   1.000  C
  C63      1.0000 0.58490  0.53330  0.79490  Biso   1.000  C
  C64      1.0000 0.80003  0.38493  0.12823  Biso   1.000  C
  C65      1.0000 0.28173  0.74843  0.12823  Biso   1.000  C
  C66      1.0000 0.91823  0.86663  0.12823  Biso   1.000  C
  C67      1.0000 0.38493  0.91823  0.53843  Biso   1.000  C
  C68      1.0000 0.74843  0.80003  0.53843  Biso   1.000  C
  C69      1.0000 0.53330  0.94840  0.20510  Biso   1.000  C
  C70      1.0000 0.05160  0.58490  0.20510  Biso   1.000  C
  C71      1.0000 0.41510  0.46670  0.20510  Biso   1.000  C
  C72      1.0000 0.86663  0.28173  0.53843  Biso   1.000  C
  C73      1.0000 0.50380  0.05690  0.86680  Biso   1.000  C
  C74      1.0000 0.94310  0.44690  0.86680  Biso   1.000  C
  C75      1.0000 0.55310  0.49620  0.86680  Biso   1.000  C
  C76      1.0000 0.83713  0.39023  0.20013  Biso   1.000  C
  C77      1.0000 0.27643  0.78023  0.20013  Biso   1.000  C
  C78      1.0000 0.88643  0.82953  0.20013  Biso   1.000  C
  C79      1.0000 0.39023  0.88643  0.46653  Biso   1.000  C
  C80      1.0000 0.78023  0.83713  0.46653  Biso   1.000  C
  C81      1.0000 0.49620  0.94310  0.13320  Biso   1.000  C
  C82      1.0000 0.05690  0.55310  0.13320  Biso   1.000  C
  C83      1.0000 0.44690  0.50380  0.13320  Biso   1.000  C
  C84      1.0000 0.82953  0.27643  0.46653  Biso   1.000  C
  C85      1.0000 0.52900  0.03560  0.83130  Biso   1.000  C
  C86      1.0000 0.96440  0.49340  0.83130  Biso   1.000  C
  C87      1.0000 0.50660  0.47100  0.83130  Biso   1.000  C
  C88      1.0000 0.86233  0.36893  0.16463  Biso   1.000  C
  C89      1.0000 0.29773  0.82673  0.16463  Biso   1.000  C
  C90      1.0000 0.83993  0.80433  0.16463  Biso   1.000  C
  C91      1.0000 0.36893  0.83993  0.50203  Biso   1.000  C
  C92      1.0000 0.82673  0.86233  0.50203  Biso   1.000  C
  C93      1.0000 0.47100  0.96440  0.16870  Biso   1.000  C
  C94      1.0000 0.03560  0.50660  0.16870  Biso   1.000  C
  C95      1.0000 0.49340  0.52900  0.16870  Biso   1.000  C
  C96      1.0000 0.80433  0.29773  0.50203  Biso   1.000  C
  C97      1.0000 0.51420  0.00900  0.72320  Biso   1.000  C
  C98      1.0000 0.99100  0.50520  0.72320  Biso   1.000  C
  C99      1.0000 0.49480  0.48580  0.72320  Biso   1.000  C
  C100     1.0000 0.84753  0.34233  0.05653  Biso   1.000  C
  C101     1.0000 0.32433  0.83853  0.05653  Biso   1.000  C
  C102     1.0000 0.82813  0.81913  0.05653  Biso   1.000  C
  C103     1.0000 0.34233  0.82813  0.61013  Biso   1.000  C
  C104     1.0000 0.83853  0.84753  0.61013  Biso   1.000  C
  C105     1.0000 0.48580  0.99100  0.27680  Biso   1.000  C
  C106     1.0000 0.00900  0.49480  0.27680  Biso   1.000  C
  C107     1.0000 0.50520  0.51420  0.27680  Biso   1.000  C
  C108     1.0000 0.81913  0.32433  0.61013  Biso   1.000  C
  C109     1.0000 0.47590  0.00490  0.65760  Biso   1.000  C
  C110     1.0000 0.99510  0.47100  0.65760  Biso   1.000  C
  C111     1.0000 0.52900  0.52410  0.65760  Biso   1.000  C
  C112     1.0000 0.80923  0.33823  0.99093  Biso   1.000  C
  C113     1.0000 0.32843  0.80433  0.99093  Biso   1.000  C
  C114     1.0000 0.86233  0.85743  0.99093  Biso   1.000  C
  C115     1.0000 0.33823  0.86233  0.67573  Biso   1.000  C
  C116     1.0000 0.80433  0.80923  0.67573  Biso   1.000  C
  C117     1.0000 0.52410  0.99510  0.34240  Biso   1.000  C
  C118     1.0000 0.00490  0.52900  0.34240  Biso   1.000  C
  C119     1.0000 0.47100  0.47590  0.34240  Biso   1.000  C
  C120     1.0000 0.85743  0.32843  0.67573  Biso   1.000  C
  C121     1.0000 0.41030  0.06370  0.34080  Biso   1.000  C
  C122     1.0000 0.93630  0.34660  0.34080  Biso   1.000  C
  C123     1.0000 0.65340  0.58970  0.34080  Biso   1.000  C
  C124     1.0000 0.74363  0.39703  0.67413  Biso   1.000  C
  C125     1.0000 0.26963  0.67993  0.67413  Biso   1.000  C
  C126     1.0000 0.98673  0.92303  0.67413  Biso   1.000  C
  C127     1.0000 0.39703  0.98673  0.99253  Biso   1.000  C
  C128     1.0000 0.67993  0.74363  0.99253  Biso   1.000  C
  C129     1.0000 0.58970  0.93630  0.65920  Biso   1.000  C
  C130     1.0000 0.06370  0.65340  0.65920  Biso   1.000  C
  C131     1.0000 0.34660  0.41030  0.65920  Biso   1.000  C
  C132     1.0000 0.92303  0.26963  0.99253  Biso   1.000  C
  C133     1.0000 0.43750  0.09670  0.23920  Biso   1.000  C
  C134     1.0000 0.90330  0.34080  0.23920  Biso   1.000  C
  C135     1.0000 0.65920  0.56250  0.23920  Biso   1.000  C
  C136     1.0000 0.77083  0.43003  0.57253  Biso   1.000  C
  C137     1.0000 0.23663  0.67413  0.57253  Biso   1.000  C
  C138     1.0000 0.99253  0.89583  0.57253  Biso   1.000  C
  C139     1.0000 0.43003  0.99253  0.09413  Biso   1.000  C
  C140     1.0000 0.67413  0.77083  0.09413  Biso   1.000  C
  C141     1.0000 0.56250  0.90330  0.76080  Biso   1.000  C
  C142     1.0000 0.09670  0.65920  0.76080  Biso   1.000  C
  C143     1.0000 0.34080  0.43750  0.76080  Biso   1.000  C
  C144     1.0000 0.89583  0.23663  0.09413  Biso   1.000  C
  C145     1.0000 0.41610  0.10750  0.13940  Biso   1.000  C
  C146     1.0000 0.89250  0.30860  0.13940  Biso   1.000  C
  C147     1.0000 0.69140  0.58390  0.13940  Biso   1.000  C
  C148     1.0000 0.74943  0.44083  0.47273  Biso   1.000  C
  C149     1.0000 0.22583  0.64193  0.47273  Biso   1.000  C
  C150     1.0000 0.02473  0.91723  0.47273  Biso   1.000  C
  C151     1.0000 0.44083  0.02473  0.19393  Biso   1.000  C
  C152     1.0000 0.64193  0.74943  0.19393  Biso   1.000  C
  C153     1.0000 0.58390  0.89250  0.86060  Biso   1.000  C
  C154     1.0000 0.10750  0.69140  0.86060  Biso   1.000  C
  C155     1.0000 0.30860  0.41610  0.86060  Biso   1.000  C
  C156     1.0000 0.91723  0.22583  0.19393  Biso   1.000  C
  C157     1.0000 0.44680  0.13770  0.04400  Biso   1.000  C
  C158     1.0000 0.86230  0.30910  0.04400  Biso   1.000  C
  C159     1.0000 0.69090  0.55320  0.04400  Biso   1.000  C
  C160     1.0000 0.78013  0.47103  0.37733  Biso   1.000  C
  C161     1.0000 0.19563  0.64243  0.37733  Biso   1.000  C
  C162     1.0000 0.02423  0.88653  0.37733  Biso   1.000  C
  C163     1.0000 0.47103  0.02423  0.28933  Biso   1.000  C
  C164     1.0000 0.64243  0.78013  0.28933  Biso   1.000  C
  C165     1.0000 0.55320  0.86230  0.95600  Biso   1.000  C
  C166     1.0000 0.13770  0.69090  0.95600  Biso   1.000  C
  C167     1.0000 0.30910  0.44680  0.95600  Biso   1.000  C
  C168     1.0000 0.88653  0.19563  0.28933  Biso   1.000  C
  C169     1.0000 0.49450  0.15550  0.04580  Biso   1.000  C
  C170     1.0000 0.84450  0.33900  0.04580  Biso   1.000  C
  C171     1.0000 0.66100  0.50550  0.04580  Biso   1.000  C
  C172     1.0000 0.82783  0.48883  0.37913  Biso   1.000  C
  C173     1.0000 0.17783  0.67233  0.37913  Biso   1.000  C
  C174     1.0000 0.99433  0.83883  0.37913  Biso   1.000  C
  C175     1.0000 0.48883  0.99433  0.28753  Biso   1.000  C
  C176     1.0000 0.67233  0.82783  0.28753  Biso   1.000  C
  C177     1.0000 0.50550  0.84450  0.95420  Biso   1.000  C
  C178     1.0000 0.15550  0.66100  0.95420  Biso   1.000  C
  C179     1.0000 0.33900  0.49450  0.95420  Biso   1.000  C
  C180     1.0000 0.83883  0.17783  0.28753  Biso   1.000  C
  C181     1.0000 0.51580  0.14570  0.14490  Biso   1.000  C
  C182     1.0000 0.85430  0.37010  0.14490  Biso   1.000  C
  C183     1.0000 0.62990  0.48420  0.14490  Biso   1.000  C
  C184     1.0000 0.84913  0.47903  0.47823  Biso   1.000  C
  C185     1.0000 0.18763  0.70343  0.47823  Biso   1.000  C
  C186     1.0000 0.96323  0.81753  0.47823  Biso   1.000  C
  C187     1.0000 0.47903  0.96323  0.18843  Biso   1.000  C
  C188     1.0000 0.70343  0.84913  0.18843  Biso   1.000  C
  C189     1.0000 0.48420  0.85430  0.85510  Biso   1.000  C
  C190     1.0000 0.14570  0.62990  0.85510  Biso   1.000  C
  C191     1.0000 0.37010  0.51580  0.85510  Biso   1.000  C
  C192     1.0000 0.81753  0.18763  0.18843  Biso   1.000  C
  C193     1.0000 0.48710  0.11610  0.24130  Biso   1.000  C
  C194     1.0000 0.88390  0.37100  0.24130  Biso   1.000  C
  C195     1.0000 0.62900  0.51290  0.24130  Biso   1.000  C
  C196     1.0000 0.82043  0.44943  0.57463  Biso   1.000  C
  C197     1.0000 0.21723  0.70433  0.57463  Biso   1.000  C
  C198     1.0000 0.96233  0.84623  0.57463  Biso   1.000  C
  C199     1.0000 0.44943  0.96233  0.09203  Biso   1.000  C
  C200     1.0000 0.70433  0.82043  0.09203  Biso   1.000  C
  C201     1.0000 0.51290  0.88390  0.75870  Biso   1.000  C
  C202     1.0000 0.11610  0.62900  0.75870  Biso   1.000  C
  C203     1.0000 0.37100  0.48710  0.75870  Biso   1.000  C
  C204     1.0000 0.84623  0.21723  0.09203  Biso   1.000  C
  H1       1.0000 0.62900  0.99400  0.95100  Biso   1.000  H
  H2       1.0000 0.00600  0.63500  0.95100  Biso   1.000  H
  H3       1.0000 0.36500  0.37100  0.95100  Biso   1.000  H
  H4       1.0000 0.96233  0.32733  0.28433  Biso   1.000  H
  H5       1.0000 0.33933  0.96833  0.28433  Biso   1.000  H
  H6       1.0000 0.69833  0.70433  0.28433  Biso   1.000  H
  H7       1.0000 0.32733  0.69833  0.38233  Biso   1.000  H
  H8       1.0000 0.96833  0.96233  0.38233  Biso   1.000  H
  H9       1.0000 0.37100  0.00600  0.04900  Biso   1.000  H
  H10      1.0000 0.99400  0.36500  0.04900  Biso   1.000  H
  H11      1.0000 0.63500  0.62900  0.04900  Biso   1.000  H
  H12      1.0000 0.70433  0.33933  0.38233  Biso   1.000  H
  H13      1.0000 0.56500  0.97700  0.85500  Biso   1.000  H
  H14      1.0000 0.02300  0.58800  0.85500  Biso   1.000  H
  H15      1.0000 0.41200  0.43500  0.85500  Biso   1.000  H
  H16      1.0000 0.89833  0.31033  0.18833  Biso   1.000  H
  H17      1.0000 0.35633  0.92133  0.18833  Biso   1.000  H
  H18      1.0000 0.74533  0.76833  0.18833  Biso   1.000  H
  H19      1.0000 0.31033  0.74533  0.47833  Biso   1.000  H
  H20      1.0000 0.92133  0.89833  0.47833  Biso   1.000  H
  H21      1.0000 0.43500  0.02300  0.14500  Biso   1.000  H
  H22      1.0000 0.97700  0.41200  0.14500  Biso   1.000  H
  H23      1.0000 0.58800  0.56500  0.14500  Biso   1.000  H
  H24      1.0000 0.76833  0.35633  0.47833  Biso   1.000  H
  H25      1.0000 0.59400  0.09900  0.98300  Biso   1.000  H
  H26      1.0000 0.90100  0.49500  0.98300  Biso   1.000  H
  H27      1.0000 0.50500  0.40600  0.98300  Biso   1.000  H
  H28      1.0000 0.92733  0.43233  0.31633  Biso   1.000  H
  H29      1.0000 0.23433  0.82833  0.31633  Biso   1.000  H
  H30      1.0000 0.83833  0.73933  0.31633  Biso   1.000  H
  H31      1.0000 0.43233  0.83833  0.35033  Biso   1.000  H
  H32      1.0000 0.82833  0.92733  0.35033  Biso   1.000  H
  H33      1.0000 0.40600  0.90100  0.01700  Biso   1.000  H
  H34      1.0000 0.09900  0.50500  0.01700  Biso   1.000  H
  H35      1.0000 0.49500  0.59400  0.01700  Biso   1.000  H
  H36      1.0000 0.73933  0.23433  0.35033  Biso   1.000  H
  H37      1.0000 0.65900  0.10700  0.08600  Biso   1.000  H
  H38      1.0000 0.89300  0.55200  0.08600  Biso   1.000  H
  H39      1.0000 0.44800  0.34100  0.08600  Biso   1.000  H
  H40      1.0000 0.99233  0.44033  0.41933  Biso   1.000  H
  H41      1.0000 0.22633  0.88533  0.41933  Biso   1.000  H
  H42      1.0000 0.78133  0.67433  0.41933  Biso   1.000  H
  H43      1.0000 0.44033  0.78133  0.24733  Biso   1.000  H
  H44      1.0000 0.88533  0.99233  0.24733  Biso   1.000  H
  H45      1.0000 0.34100  0.89300  0.91400  Biso   1.000  H
  H46      1.0000 0.10700  0.44800  0.91400  Biso   1.000  H
  H47      1.0000 0.55200  0.65900  0.91400  Biso   1.000  H
  H48      1.0000 0.67433  0.22633  0.24733  Biso   1.000  H
  H49      1.0000 0.44800  0.06000  0.81900  Biso   1.000  H
  H50      1.0000 0.94000  0.38800  0.81900  Biso   1.000  H
  H51      1.0000 0.61200  0.55200  0.81900  Biso   1.000  H
  H52      1.0000 0.78133  0.39333  0.15233  Biso   1.000  H
  H53      1.0000 0.27333  0.72133  0.15233  Biso   1.000  H
  H54      1.0000 0.94533  0.88533  0.15233  Biso   1.000  H
  H55      1.0000 0.39333  0.94533  0.51433  Biso   1.000  H
  H56      1.0000 0.72133  0.78133  0.51433  Biso   1.000  H
  H57      1.0000 0.55200  0.94000  0.18100  Biso   1.000  H
  H58      1.0000 0.06000  0.61200  0.18100  Biso   1.000  H
  H59      1.0000 0.38800  0.44800  0.18100  Biso   1.000  H
  H60      1.0000 0.88533  0.27333  0.51433  Biso   1.000  H
  H61      1.0000 0.51000  0.07200  0.93500  Biso   1.000  H
  H62      1.0000 0.92800  0.43800  0.93500  Biso   1.000  H
  H63      1.0000 0.56200  0.49000  0.93500  Biso   1.000  H
  H64      1.0000 0.84333  0.40533  0.26833  Biso   1.000  H
  H65      1.0000 0.26133  0.77133  0.26833  Biso   1.000  H
  H66      1.0000 0.89533  0.82333  0.26833  Biso   1.000  H
  H67      1.0000 0.40533  0.89533  0.39833  Biso   1.000  H
  H68      1.0000 0.77133  0.84333  0.39833  Biso   1.000  H
  H69      1.0000 0.49000  0.92800  0.06500  Biso   1.000  H
  H70      1.0000 0.07200  0.56200  0.06500  Biso   1.000  H
  H71      1.0000 0.43800  0.51000  0.06500  Biso   1.000  H
  H72      1.0000 0.82333  0.26133  0.39833  Biso   1.000  H
  H73      1.0000 0.52500  0.99200  0.69600  Biso   1.000  H
  H74      1.0000 0.00800  0.53300  0.69600  Biso   1.000  H
  H75      1.0000 0.46700  0.47500  0.69600  Biso   1.000  H
  H76      1.0000 0.85833  0.32533  0.02933  Biso   1.000  H
  H77      1.0000 0.34133  0.86633  0.02933  Biso   1.000  H
  H78      1.0000 0.80033  0.80833  0.02933  Biso   1.000  H
  H79      1.0000 0.32533  0.80033  0.63733  Biso   1.000  H
  H80      1.0000 0.86633  0.85833  0.63733  Biso   1.000  H
  H81      1.0000 0.47500  0.00800  0.30400  Biso   1.000  H
  H82      1.0000 0.99200  0.46700  0.30400  Biso   1.000  H
  H83      1.0000 0.53300  0.52500  0.30400  Biso   1.000  H
  H84      1.0000 0.80833  0.34133  0.63733  Biso   1.000  H
  H85      1.0000 0.46600  0.98800  0.58800  Biso   1.000  H
  H86      1.0000 0.01200  0.47800  0.58800  Biso   1.000  H
  H87      1.0000 0.52200  0.53400  0.58800  Biso   1.000  H
  H88      1.0000 0.79933  0.32133  0.92133  Biso   1.000  H
  H89      1.0000 0.34533  0.81133  0.92133  Biso   1.000  H
  H90      1.0000 0.85533  0.86733  0.92133  Biso   1.000  H
  H91      1.0000 0.32133  0.85533  0.74533  Biso   1.000  H
  H92      1.0000 0.81133  0.79933  0.74533  Biso   1.000  H
  H93      1.0000 0.53400  0.01200  0.41200  Biso   1.000  H
  H94      1.0000 0.98800  0.52200  0.41200  Biso   1.000  H
  H95      1.0000 0.47800  0.46600  0.41200  Biso   1.000  H
  H96      1.0000 0.86733  0.34533  0.74533  Biso   1.000  H
  H97      1.0000 0.43300  0.14400  0.97300  Biso   1.000  H
  H98      1.0000 0.85600  0.28900  0.97300  Biso   1.000  H
  H99      1.0000 0.71100  0.56700  0.97300  Biso   1.000  H
  H100     1.0000 0.76633  0.47733  0.30633  Biso   1.000  H
  H101     1.0000 0.18933  0.62233  0.30633  Biso   1.000  H
  H102     1.0000 0.04433  0.90033  0.30633  Biso   1.000  H
  H103     1.0000 0.47733  0.04433  0.36033  Biso   1.000  H
  H104     1.0000 0.62233  0.76633  0.36033  Biso   1.000  H
  H105     1.0000 0.56700  0.85600  0.02700  Biso   1.000  H
  H106     1.0000 0.14400  0.71100  0.02700  Biso   1.000  H
  H107     1.0000 0.28900  0.43300  0.02700  Biso   1.000  H
  H108     1.0000 0.90033  0.18933  0.36033  Biso   1.000  H
  H109     1.0000 0.52000  0.17800  0.98500  Biso   1.000  H
  H110     1.0000 0.82200  0.34200  0.98500  Biso   1.000  H
  H111     1.0000 0.65800  0.48000  0.98500  Biso   1.000  H
  H112     1.0000 0.85333  0.51133  0.31833  Biso   1.000  H
  H113     1.0000 0.15533  0.67533  0.31833  Biso   1.000  H
  H114     1.0000 0.99133  0.81333  0.31833  Biso   1.000  H
  H115     1.0000 0.51133  0.99133  0.34833  Biso   1.000  H
  H116     1.0000 0.67533  0.85333  0.34833  Biso   1.000  H
  H117     1.0000 0.48000  0.82200  0.01500  Biso   1.000  H
  H118     1.0000 0.17800  0.65800  0.01500  Biso   1.000  H
  H119     1.0000 0.34200  0.52000  0.01500  Biso   1.000  H
  H120     1.0000 0.81333  0.15533  0.34833  Biso   1.000  H
  H121     1.0000 0.55000  0.15700  0.14700  Biso   1.000  H
  H122     1.0000 0.84300  0.39300  0.14700  Biso   1.000  H
  H123     1.0000 0.60700  0.45000  0.14700  Biso   1.000  H
  H124     1.0000 0.88333  0.49033  0.48033  Biso   1.000  H
  H125     1.0000 0.17633  0.72633  0.48033  Biso   1.000  H
  H126     1.0000 0.94033  0.78333  0.48033  Biso   1.000  H
  H127     1.0000 0.49033  0.94033  0.18633  Biso   1.000  H
  H128     1.0000 0.72633  0.88333  0.18633  Biso   1.000  H
  H129     1.0000 0.45000  0.84300  0.85300  Biso   1.000  H
  H130     1.0000 0.15700  0.60700  0.85300  Biso   1.000  H
  H131     1.0000 0.39300  0.55000  0.85300  Biso   1.000  H
  H132     1.0000 0.78333  0.17633  0.18633  Biso   1.000  H
  H133     1.0000 0.50300  0.10200  0.30900  Biso   1.000  H
  H134     1.0000 0.89800  0.40100  0.30900  Biso   1.000  H
  H135     1.0000 0.59900  0.49700  0.30900  Biso   1.000  H
  H136     1.0000 0.83633  0.43533  0.64233  Biso   1.000  H
  H137     1.0000 0.23133  0.73433  0.64233  Biso   1.000  H
  H138     1.0000 0.93233  0.83033  0.64233  Biso   1.000  H
  H139     1.0000 0.43533  0.93233  0.02433  Biso   1.000  H
  H140     1.0000 0.73433  0.83633  0.02433  Biso   1.000  H
  H141     1.0000 0.49700  0.89800  0.69100  Biso   1.000  H
  H142     1.0000 0.10200  0.59900  0.69100  Biso   1.000  H
  H143     1.0000 0.40100  0.50300  0.69100  Biso   1.000  H
  H144     1.0000 0.83033  0.23133  0.02433  Biso   1.000  H
  O37      1.0000 0.34257  0.96783  0.67323  Biso   1.000  O
  O38      1.0000 0.03217  0.37473  0.67323  Biso   1.000  O
  O39      1.0000 0.62527  0.65743  0.67323  Biso   1.000  O
  O40      1.0000 0.67590  0.30117  0.00657  Biso   1.000  O
  O41      1.0000 0.36550  0.70807  0.00657  Biso   1.000  O
  O42      1.0000 0.95860  0.99077  0.00657  Biso   1.000  O
  O43      1.0000 0.30117  0.95860  0.66010  Biso   1.000  O
  O44      1.0000 0.70807  0.67590  0.66010  Biso   1.000  O
  O45      1.0000 0.65743  0.03217  0.32677  Biso   1.000  O
  O46      1.0000 0.96783  0.62527  0.32677  Biso   1.000  O
  O47      1.0000 0.37473  0.34257  0.32677  Biso   1.000  O
  O48      1.0000 0.99077  0.36550  0.66010  Biso   1.000  O
  Cu13     1.0000 0.32088  0.04413  0.22529  Biso   1.000  Cu
  Cu14     1.0000 0.95587  0.27676  0.22529  Biso   1.000  Cu
  Cu15     1.0000 0.72324  0.67912  0.22529  Biso   1.000  Cu
  Cu16     1.0000 0.65422  0.37746  0.55862  Biso   1.000  Cu
  Cu17     1.0000 0.28921  0.61009  0.55862  Biso   1.000  Cu
  Cu18     1.0000 0.05658  0.01245  0.55862  Biso   1.000  Cu
  Cu19     1.0000 0.37746  0.05658  0.10805  Biso   1.000  Cu
  Cu20     1.0000 0.61009  0.65422  0.10805  Biso   1.000  Cu
  Cu21     1.0000 0.67912  0.95587  0.77471  Biso   1.000  Cu
  Cu22     1.0000 0.04413  0.72324  0.77471  Biso   1.000  Cu
  Cu23     1.0000 0.27676  0.32088  0.77471  Biso   1.000  Cu
  Cu24     1.0000 0.01245  0.28921  0.10805  Biso   1.000  Cu
  Cu25     1.0000 0.71079  0.05658  0.10805  Biso   1.000  Cu
  Cu26     1.0000 0.94342  0.65422  0.10805  Biso   1.000  Cu
  Cu27     1.0000 0.34578  0.28921  0.10805  Biso   1.000  Cu
  Cu28     1.0000 0.04413  0.38991  0.44138  Biso   1.000  Cu
  Cu29     1.0000 0.27676  0.98755  0.44138  Biso   1.000  Cu
  Cu30     1.0000 0.67912  0.62254  0.44138  Biso   1.000  Cu
  Cu31     1.0000 0.38991  0.67912  0.22529  Biso   1.000  Cu
  Cu32     1.0000 0.98755  0.04413  0.22529  Biso   1.000  Cu
  Cu33     1.0000 0.28921  0.94342  0.89195  Biso   1.000  Cu
  Cu34     1.0000 0.05658  0.34578  0.89195  Biso   1.000  Cu
  Cu35     1.0000 0.65422  0.71079  0.89195  Biso   1.000  Cu
  Cu36     1.0000 0.62254  0.27676  0.22529  Biso   1.000  Cu
  N25      1.0000 0.38243  0.06567  0.63957  Biso   1.000  N
  N26      1.0000 0.93433  0.31677  0.63957  Biso   1.000  N
  N27      1.0000 0.68323  0.61757  0.63957  Biso   1.000  N
  N28      1.0000 0.71577  0.39900  0.97290  Biso   1.000  N
  N29      1.0000 0.26767  0.65010  0.97290  Biso   1.000  N
  N30      1.0000 0.01657  0.95090  0.97290  Biso   1.000  N
  N31      1.0000 0.39900  0.01657  0.69377  Biso   1.000  N
  N32      1.0000 0.65010  0.71577  0.69377  Biso   1.000  N
  N33      1.0000 0.61757  0.93433  0.36043  Biso   1.000  N
  N34      1.0000 0.06567  0.68323  0.36043  Biso   1.000  N
  N35      1.0000 0.31677  0.38243  0.36043  Biso   1.000  N
  N36      1.0000 0.95090  0.26767  0.69377  Biso   1.000  N
  O49      1.0000 0.38767  0.96243  0.46113  Biso   1.000  O
  O50      1.0000 0.03757  0.42523  0.46113  Biso   1.000  O
  O51      1.0000 0.57477  0.61233  0.46113  Biso   1.000  O
  O52      1.0000 0.72100  0.29577  0.79447  Biso   1.000  O
  O53      1.0000 0.37090  0.75857  0.79447  Biso   1.000  O
  O54      1.0000 0.90810  0.94567  0.79447  Biso   1.000  O
  O55      1.0000 0.29577  0.90810  0.87220  Biso   1.000  O
  O56      1.0000 0.75857  0.72100  0.87220  Biso   1.000  O
  O57      1.0000 0.61233  0.03757  0.53887  Biso   1.000  O
  O58      1.0000 0.96243  0.57477  0.53887  Biso   1.000  O
  O59      1.0000 0.42523  0.38767  0.53887  Biso   1.000  O
  O60      1.0000 0.94567  0.37090  0.87220  Biso   1.000  O
