data_image0
_cell_length_a       7.8365
_cell_length_b       8.2326
_cell_length_c       10.7944
_cell_angle_alpha    111.154
_cell_angle_beta     95.728
_cell_angle_gamma    94.674

_symmetry_space_group_name_H-M    "P 1"
_symmetry_int_tables_number       1

loop_
  _symmetry_equiv_pos_as_xyz
  'x, y, z'

loop_
  _atom_site_label
  _atom_site_occupancy
  _atom_site_fract_x
  _atom_site_fract_y
  _atom_site_fract_z
  _atom_site_thermal_displace_type
  _atom_site_B_iso_or_equiv
  _atom_site_type_symbol
  Cu1      1.0000 0.58265  0.83661  0.83242  Biso   1.000  Cu
  Cu2      1.0000 0.41735  0.16339  0.16758  Biso   1.000  Cu
  O1       1.0000 0.82270  0.73980  0.97220  Biso   1.000  O
  O2       1.0000 0.17730  0.26020  0.02780  Biso   1.000  O
  O3       1.0000 0.71080  0.84470  0.69040  Biso   1.000  O
  O4       1.0000 0.28920  0.15530  0.30960  Biso   1.000  O
  O5       1.0000 0.98140  0.80350  0.75160  Biso   1.000  O
  O6       1.0000 0.01860  0.19650  0.24840  Biso   1.000  O
  O7       1.0000 0.83660  0.54740  0.45410  Biso   1.000  O
  O8       1.0000 0.16340  0.45260  0.54590  Biso   1.000  O
  O9       1.0000 0.02080  0.54230  0.30650  Biso   1.000  O
  O10      1.0000 0.97920  0.45770  0.69350  Biso   1.000  O
  H1       1.0000 0.01000  0.43660  0.29110  Biso   1.000  H
  H2       1.0000 0.99000  0.56340  0.70890  Biso   1.000  H
  O11      1.0000 0.34300  0.87260  0.70530  Biso   1.000  O
  O12      1.0000 0.65700  0.12740  0.29470  Biso   1.000  O
  H3       1.0000 0.36600  0.95360  0.67590  Biso   1.000  H
  H4       1.0000 0.63400  0.04640  0.32410  Biso   1.000  H
  H5       1.0000 0.24420  0.86410  0.73000  Biso   1.000  H
  H6       1.0000 0.75580  0.13590  0.27000  Biso   1.000  H
  N1       1.0000 0.42800  0.80810  0.96210  Biso   1.000  N
  N2       1.0000 0.57200  0.19190  0.03790  Biso   1.000  N
  N3       1.0000 0.35370  0.90440  0.06700  Biso   1.000  N
  N4       1.0000 0.64630  0.09560  0.93300  Biso   1.000  N
  N5       1.0000 0.24750  0.79810  0.10000  Biso   1.000  N
  N6       1.0000 0.75250  0.20190  0.90000  Biso   1.000  N
  N7       1.0000 0.25010  0.63210  0.01700  Biso   1.000  N
  N8       1.0000 0.74990  0.36790  0.98300  Biso   1.000  N
  N9       1.0000 0.52110  0.56790  0.75300  Biso   1.000  N
  N10      1.0000 0.47890  0.43210  0.24700  Biso   1.000  N
  N11      1.0000 0.42500  0.20900  0.68150  Biso   1.000  N
  N12      1.0000 0.57500  0.79100  0.31850  Biso   1.000  N
  C1       1.0000 0.36220  0.64390  0.93480  Biso   1.000  C
  C2       1.0000 0.63780  0.35610  0.06520  Biso   1.000  C
  C3       1.0000 0.41690  0.50500  0.82280  Biso   1.000  C
  C4       1.0000 0.58310  0.49500  0.17720  Biso   1.000  C
  C5       1.0000 0.37110  0.32780  0.78710  Biso   1.000  C
  C6       1.0000 0.62890  0.67220  0.21290  Biso   1.000  C
  H7       1.0000 0.30030  0.28910  0.83770  Biso   1.000  H
  H8       1.0000 0.69970  0.71090  0.16230  Biso   1.000  H
  C7       1.0000 0.52470  0.27240  0.61240  Biso   1.000  C
  C8       1.0000 0.47530  0.72760  0.38760  Biso   1.000  C
  H9       1.0000 0.56330  0.19390  0.53770  Biso   1.000  H
  H10      1.0000 0.43670  0.80610  0.46230  Biso   1.000  H
  C9       1.0000 0.57340  0.45070  0.64700  Biso   1.000  C
  C10      1.0000 0.42660  0.54930  0.35300  Biso   1.000  C
  H11      1.0000 0.64330  0.48860  0.59550  Biso   1.000  H
  H12      1.0000 0.35670  0.51140  0.40450  Biso   1.000  H
  C11      1.0000 0.87020  0.84690  0.68210  Biso   1.000  C
  C12      1.0000 0.12980  0.15310  0.31790  Biso   1.000  C
  C13      1.0000 0.93180  0.92110  0.58290  Biso   1.000  C
  C14      1.0000 0.06820  0.07890  0.41710  Biso   1.000  C
  C15      1.0000 0.97490  0.81790  0.45810  Biso   1.000  C
  C16      1.0000 0.02510  0.18210  0.54190  Biso   1.000  C
  C17      1.0000 0.93720  0.62290  0.40850  Biso   1.000  C
  C18      1.0000 0.06280  0.37710  0.59150  Biso   1.000  C
  C19      1.0000 0.95660  0.10210  0.62310  Biso   1.000  C
  C20      1.0000 0.04340  0.89790  0.37690  Biso   1.000  C
  H13      1.0000 0.92720  0.17130  0.70550  Biso   1.000  H
  H14      1.0000 0.07280  0.82870  0.29450  Biso   1.000  H
  O13      1.0000 0.83600  0.83600  0.00440  Biso   1.000  O
  O14      1.0000 0.16400  0.16400  0.99560  Biso   1.000  O
