data_image0
_cell_length_a       7.5157
_cell_length_b       9.8806
_cell_length_c       10.4749
_cell_angle_alpha    81.7
_cell_angle_beta     75.81
_cell_angle_gamma    69.6

_symmetry_space_group_name_H-M    "P 1"
_symmetry_int_tables_number       1

loop_
  _symmetry_equiv_pos_as_xyz
  'x, y, z'

loop_
  _atom_site_label
  _atom_site_occupancy
  _atom_site_fract_x
  _atom_site_fract_y
  _atom_site_fract_z
  _atom_site_thermal_displace_type
  _atom_site_B_iso_or_equiv
  _atom_site_type_symbol
  Cu1      1.0000 0.15884  0.31500  0.79927  Biso   1.000  Cu
  Cu2      1.0000 0.84116  0.68500  0.20073  Biso   1.000  Cu
  N1       1.0000 0.88500  0.45380  0.82440  Biso   1.000  N
  N2       1.0000 0.11500  0.54620  0.17560  Biso   1.000  N
  N3       1.0000 0.29880  0.48510  0.82340  Biso   1.000  N
  N4       1.0000 0.70120  0.51490  0.17660  Biso   1.000  N
  N5       1.0000 0.40970  0.85930  0.94530  Biso   1.000  N
  N6       1.0000 0.59030  0.14070  0.05470  Biso   1.000  N
  N7       1.0000 0.10620  0.24280  0.98810  Biso   1.000  N
  N8       1.0000 0.89380  0.75720  0.01190  Biso   1.000  N
  N9       1.0000 0.95330  0.89780  0.26270  Biso   1.000  N
  N10      1.0000 0.04670  0.10220  0.73730  Biso   1.000  N
  N11      1.0000 0.98590  0.28060  0.41540  Biso   1.000  N
  N12      1.0000 0.01410  0.71940  0.58460  Biso   1.000  N
  N13      1.0000 0.18060  0.37160  0.60730  Biso   1.000  N
  N14      1.0000 0.81940  0.62840  0.39270  Biso   1.000  N
  N15      1.0000 0.41660  0.15790  0.77830  Biso   1.000  N
  N16      1.0000 0.58340  0.84210  0.22170  Biso   1.000  N
  C1       1.0000 0.72550  0.52510  0.83930  Biso   1.000  C
  C2       1.0000 0.27450  0.47490  0.16070  Biso   1.000  C
  C3       1.0000 0.39970  0.54230  0.83810  Biso   1.000  C
  C4       1.0000 0.60030  0.45770  0.16190  Biso   1.000  C
  C5       1.0000 0.46280  0.74630  0.90500  Biso   1.000  C
  C6       1.0000 0.53720  0.25370  0.09500  Biso   1.000  C
  C7       1.0000 0.06380  0.19650  0.09230  Biso   1.000  C
  C8       1.0000 0.93620  0.80350  0.90770  Biso   1.000  C
  C9       1.0000 0.97890  0.00720  0.24460  Biso   1.000  C
  C10      1.0000 0.02110  0.99280  0.75540  Biso   1.000  C
  C11      1.0000 0.99760  0.21810  0.32840  Biso   1.000  C
  C12      1.0000 0.00240  0.78190  0.67160  Biso   1.000  C
  C13      1.0000 0.52960  0.60740  0.85710  Biso   1.000  C
  C14      1.0000 0.47040  0.39260  0.14290  Biso   1.000  C
  C15      1.0000 0.01250  0.14150  0.22220  Biso   1.000  C
  C16      1.0000 0.98750  0.85850  0.77780  Biso   1.000  C
  C17      1.0000 0.36720  0.34420  0.51740  Biso   1.000  C
  C18      1.0000 0.63280  0.65580  0.48260  Biso   1.000  C
  C19      1.0000 0.49440  0.19210  0.53140  Biso   1.000  C
  C20      1.0000 0.50560  0.80790  0.46860  Biso   1.000  C
  C21      1.0000 0.56880  0.15200  0.65510  Biso   1.000  C
  C22      1.0000 0.43120  0.84800  0.34490  Biso   1.000  C
  H1       1.0000 0.11690  0.47310  0.60010  Biso   1.000  H
  H2       1.0000 0.88310  0.52690  0.39990  Biso   1.000  H
  H3       1.0000 0.11170  0.32340  0.57600  Biso   1.000  H
  H4       1.0000 0.88830  0.67660  0.42400  Biso   1.000  H
  H5       1.0000 0.39050  0.06910  0.78860  Biso   1.000  H
  H6       1.0000 0.60950  0.93090  0.21140  Biso   1.000  H
  H7       1.0000 0.47260  0.16350  0.84860  Biso   1.000  H
  H8       1.0000 0.52740  0.83650  0.15140  Biso   1.000  H
  H9       1.0000 0.42980  0.40610  0.53460  Biso   1.000  H
  H10      1.0000 0.57020  0.59390  0.46540  Biso   1.000  H
  H11      1.0000 0.34720  0.36450  0.42950  Biso   1.000  H
  H12      1.0000 0.65280  0.63550  0.57050  Biso   1.000  H
  H13      1.0000 0.60260  0.17630  0.45920  Biso   1.000  H
  H14      1.0000 0.39740  0.82370  0.54080  Biso   1.000  H
  H15      1.0000 0.42250  0.13080  0.52810  Biso   1.000  H
  H16      1.0000 0.57750  0.86920  0.47190  Biso   1.000  H
  H17      1.0000 0.65720  0.05600  0.65050  Biso   1.000  H
  H18      1.0000 0.34280  0.94400  0.34950  Biso   1.000  H
  H19      1.0000 0.63510  0.21640  0.66060  Biso   1.000  H
  H20      1.0000 0.36490  0.78360  0.33940  Biso   1.000  H
