data_image0
_cell_length_a       13.7398
_cell_length_b       18.2115
_cell_length_c       7.9638
_cell_angle_alpha    90
_cell_angle_beta     111.3
_cell_angle_gamma    90

_symmetry_space_group_name_H-M    "P 1"
_symmetry_int_tables_number       1

loop_
  _symmetry_equiv_pos_as_xyz
  'x, y, z'

loop_
  _atom_site_label
  _atom_site_occupancy
  _atom_site_fract_x
  _atom_site_fract_y
  _atom_site_fract_z
  _atom_site_thermal_displace_type
  _atom_site_B_iso_or_equiv
  _atom_site_type_symbol
  Cu1      1.0000 0.25000  0.25000  0.50000  Biso   1.000  Cu
  Cu2      1.0000 0.25000  0.75000  0.00000  Biso   1.000  Cu
  Cu3      1.0000 0.75000  0.75000  0.50000  Biso   1.000  Cu
  Cu4      1.0000 0.75000  0.25000  0.00000  Biso   1.000  Cu
  N1       1.0000 0.43250  0.26270  0.46660  Biso   1.000  N
  N2       1.0000 0.43250  0.73730  0.96660  Biso   1.000  N
  N3       1.0000 0.93250  0.76270  0.46660  Biso   1.000  N
  N4       1.0000 0.93250  0.23730  0.96660  Biso   1.000  N
  N5       1.0000 0.56750  0.73730  0.53340  Biso   1.000  N
  N6       1.0000 0.56750  0.26270  0.03340  Biso   1.000  N
  N7       1.0000 0.06750  0.23730  0.53340  Biso   1.000  N
  N8       1.0000 0.06750  0.76270  0.03340  Biso   1.000  N
  N9       1.0000 0.50000  0.47060  0.25000  Biso   1.000  N
  N10      1.0000 0.50000  0.52940  0.75000  Biso   1.000  N
  N11      1.0000 0.00000  0.97060  0.25000  Biso   1.000  N
  N12      1.0000 0.00000  0.02940  0.75000  Biso   1.000  N
  C1       1.0000 0.46310  0.29210  0.36840  Biso   1.000  C
  C2       1.0000 0.46310  0.70790  0.86840  Biso   1.000  C
  C3       1.0000 0.96310  0.79210  0.36840  Biso   1.000  C
  C4       1.0000 0.96310  0.20790  0.86840  Biso   1.000  C
  C5       1.0000 0.53690  0.70790  0.63160  Biso   1.000  C
  C6       1.0000 0.53690  0.29210  0.13160  Biso   1.000  C
  C7       1.0000 0.03690  0.20790  0.63160  Biso   1.000  C
  C8       1.0000 0.03690  0.79210  0.13160  Biso   1.000  C
  C9       1.0000 0.50000  0.33040  0.25000  Biso   1.000  C
  C10      1.0000 0.50000  0.66960  0.75000  Biso   1.000  C
  C11      1.0000 0.00000  0.83040  0.25000  Biso   1.000  C
  C12      1.0000 0.00000  0.16960  0.75000  Biso   1.000  C
  C13      1.0000 0.50000  0.40730  0.25000  Biso   1.000  C
  C14      1.0000 0.50000  0.59270  0.75000  Biso   1.000  C
  C15      1.0000 0.00000  0.90730  0.25000  Biso   1.000  C
  C16      1.0000 0.00000  0.09270  0.75000  Biso   1.000  C
  N13      1.0000 0.65780  0.15410  0.45990  Biso   1.000  N
  N14      1.0000 0.65780  0.84590  0.95990  Biso   1.000  N
  N15      1.0000 0.15780  0.65410  0.45990  Biso   1.000  N
  N16      1.0000 0.15780  0.34590  0.95990  Biso   1.000  N
  N17      1.0000 0.34220  0.84590  0.54010  Biso   1.000  N
  N18      1.0000 0.34220  0.15410  0.04010  Biso   1.000  N
  N19      1.0000 0.84220  0.34590  0.54010  Biso   1.000  N
  N20      1.0000 0.84220  0.65410  0.04010  Biso   1.000  N
  N21      1.0000 0.50000  0.94350  0.25000  Biso   1.000  N
  N22      1.0000 0.50000  0.05650  0.75000  Biso   1.000  N
  N23      1.0000 0.00000  0.44350  0.25000  Biso   1.000  N
  N24      1.0000 0.00000  0.55650  0.75000  Biso   1.000  N
  C17      1.0000 0.58660  0.12210  0.36650  Biso   1.000  C
  C18      1.0000 0.58660  0.87790  0.86650  Biso   1.000  C
  C19      1.0000 0.08660  0.62210  0.36650  Biso   1.000  C
  C20      1.0000 0.08660  0.37790  0.86650  Biso   1.000  C
  C21      1.0000 0.41340  0.87790  0.63350  Biso   1.000  C
  C22      1.0000 0.41340  0.12210  0.13350  Biso   1.000  C
  C23      1.0000 0.91340  0.37790  0.63350  Biso   1.000  C
  C24      1.0000 0.91340  0.62210  0.13350  Biso   1.000  C
  C25      1.0000 0.50000  0.08420  0.25000  Biso   1.000  C
  C26      1.0000 0.50000  0.91580  0.75000  Biso   1.000  C
  C27      1.0000 0.00000  0.58420  0.25000  Biso   1.000  C
  C28      1.0000 0.00000  0.41580  0.75000  Biso   1.000  C
  C29      1.0000 0.50000  0.00700  0.25000  Biso   1.000  C
  C30      1.0000 0.50000  0.99300  0.75000  Biso   1.000  C
  C31      1.0000 0.00000  0.50700  0.25000  Biso   1.000  C
  C32      1.0000 0.00000  0.49300  0.75000  Biso   1.000  C
  N25      1.0000 0.19680  0.34440  0.36570  Biso   1.000  N
  N26      1.0000 0.19680  0.65560  0.86570  Biso   1.000  N
  N27      1.0000 0.69680  0.84440  0.36570  Biso   1.000  N
  N28      1.0000 0.69680  0.15560  0.86570  Biso   1.000  N
  N29      1.0000 0.80320  0.65560  0.63430  Biso   1.000  N
  N30      1.0000 0.80320  0.34440  0.13430  Biso   1.000  N
  N31      1.0000 0.30320  0.15560  0.63430  Biso   1.000  N
  N32      1.0000 0.30320  0.84440  0.13430  Biso   1.000  N
  N33      1.0000 0.30550  0.30330  0.74120  Biso   1.000  N
  N34      1.0000 0.30550  0.69670  0.24120  Biso   1.000  N
  N35      1.0000 0.80550  0.80330  0.74120  Biso   1.000  N
  N36      1.0000 0.80550  0.19670  0.24120  Biso   1.000  N
  N37      1.0000 0.69450  0.69670  0.25880  Biso   1.000  N
  N38      1.0000 0.69450  0.30330  0.75880  Biso   1.000  N
  N39      1.0000 0.19450  0.19670  0.25880  Biso   1.000  N
  N40      1.0000 0.19450  0.80330  0.75880  Biso   1.000  N
  C33      1.0000 0.25420  0.41330  0.42930  Biso   1.000  C
  C34      1.0000 0.25420  0.58670  0.92930  Biso   1.000  C
  C35      1.0000 0.75420  0.91330  0.42930  Biso   1.000  C
  C36      1.0000 0.75420  0.08670  0.92930  Biso   1.000  C
  C37      1.0000 0.74580  0.58670  0.57070  Biso   1.000  C
  C38      1.0000 0.74580  0.41330  0.07070  Biso   1.000  C
  C39      1.0000 0.24580  0.08670  0.57070  Biso   1.000  C
  C40      1.0000 0.24580  0.91330  0.07070  Biso   1.000  C
  C41      1.0000 0.26790  0.43020  0.62110  Biso   1.000  C
  C42      1.0000 0.26790  0.56980  0.12110  Biso   1.000  C
  C43      1.0000 0.76790  0.93020  0.62110  Biso   1.000  C
  C44      1.0000 0.76790  0.06980  0.12110  Biso   1.000  C
  C45      1.0000 0.73210  0.56980  0.37890  Biso   1.000  C
  C46      1.0000 0.73210  0.43020  0.87890  Biso   1.000  C
  C47      1.0000 0.23210  0.06980  0.37890  Biso   1.000  C
  C48      1.0000 0.23210  0.93020  0.87890  Biso   1.000  C
  C49      1.0000 0.34310  0.37980  0.75500  Biso   1.000  C
  C50      1.0000 0.34310  0.62020  0.25500  Biso   1.000  C
  C51      1.0000 0.84310  0.87980  0.75500  Biso   1.000  C
  C52      1.0000 0.84310  0.12020  0.25500  Biso   1.000  C
  C53      1.0000 0.65690  0.62020  0.24500  Biso   1.000  C
  C54      1.0000 0.65690  0.37980  0.74500  Biso   1.000  C
  C55      1.0000 0.15690  0.12020  0.24500  Biso   1.000  C
  C56      1.0000 0.15690  0.87980  0.74500  Biso   1.000  C
  H1       1.0000 0.12820  0.35170  0.36550  Biso   1.000  H
  H2       1.0000 0.12820  0.64830  0.86550  Biso   1.000  H
  H3       1.0000 0.62820  0.85170  0.36550  Biso   1.000  H
  H4       1.0000 0.62820  0.14830  0.86550  Biso   1.000  H
  H5       1.0000 0.87180  0.64830  0.63450  Biso   1.000  H
  H6       1.0000 0.87180  0.35170  0.13450  Biso   1.000  H
  H7       1.0000 0.37180  0.14830  0.63450  Biso   1.000  H
  H8       1.0000 0.37180  0.85170  0.13450  Biso   1.000  H
  H9       1.0000 0.19350  0.33710  0.24570  Biso   1.000  H
  H10      1.0000 0.19350  0.66290  0.74570  Biso   1.000  H
  H11      1.0000 0.69350  0.83710  0.24570  Biso   1.000  H
  H12      1.0000 0.69350  0.16290  0.74570  Biso   1.000  H
  H13      1.0000 0.80650  0.66290  0.75430  Biso   1.000  H
  H14      1.0000 0.80650  0.33710  0.25430  Biso   1.000  H
  H15      1.0000 0.30650  0.16290  0.75430  Biso   1.000  H
  H16      1.0000 0.30650  0.83710  0.25430  Biso   1.000  H
  H17      1.0000 0.36240  0.27490  0.81740  Biso   1.000  H
  H18      1.0000 0.36240  0.72510  0.31740  Biso   1.000  H
  H19      1.0000 0.86240  0.77490  0.81740  Biso   1.000  H
  H20      1.0000 0.86240  0.22510  0.31740  Biso   1.000  H
  H21      1.0000 0.63760  0.72510  0.18260  Biso   1.000  H
  H22      1.0000 0.63760  0.27490  0.68260  Biso   1.000  H
  H23      1.0000 0.13760  0.22510  0.18260  Biso   1.000  H
  H24      1.0000 0.13760  0.77490  0.68260  Biso   1.000  H
  H25      1.0000 0.25070  0.30290  0.78720  Biso   1.000  H
  H26      1.0000 0.25070  0.69710  0.28720  Biso   1.000  H
  H27      1.0000 0.75070  0.80290  0.78720  Biso   1.000  H
  H28      1.0000 0.75070  0.19710  0.28720  Biso   1.000  H
  H29      1.0000 0.74930  0.69710  0.21280  Biso   1.000  H
  H30      1.0000 0.74930  0.30290  0.71280  Biso   1.000  H
  H31      1.0000 0.24930  0.19710  0.21280  Biso   1.000  H
  H32      1.0000 0.24930  0.80290  0.71280  Biso   1.000  H
  H33      1.0000 0.21670  0.45240  0.35460  Biso   1.000  H
  H34      1.0000 0.21670  0.54760  0.85460  Biso   1.000  H
  H35      1.0000 0.71670  0.95240  0.35460  Biso   1.000  H
  H36      1.0000 0.71670  0.04760  0.85460  Biso   1.000  H
  H37      1.0000 0.78330  0.54760  0.64540  Biso   1.000  H
  H38      1.0000 0.78330  0.45240  0.14540  Biso   1.000  H
  H39      1.0000 0.28330  0.04760  0.64540  Biso   1.000  H
  H40      1.0000 0.28330  0.95240  0.14540  Biso   1.000  H
  H41      1.0000 0.32120  0.40930  0.42070  Biso   1.000  H
  H42      1.0000 0.32120  0.59070  0.92070  Biso   1.000  H
  H43      1.0000 0.82120  0.90930  0.42070  Biso   1.000  H
  H44      1.0000 0.82120  0.09070  0.92070  Biso   1.000  H
  H45      1.0000 0.67880  0.59070  0.57930  Biso   1.000  H
  H46      1.0000 0.67880  0.40930  0.07930  Biso   1.000  H
  H47      1.0000 0.17880  0.09070  0.57930  Biso   1.000  H
  H48      1.0000 0.17880  0.90930  0.07930  Biso   1.000  H
  H49      1.0000 0.20180  0.42610  0.63320  Biso   1.000  H
  H50      1.0000 0.20180  0.57390  0.13320  Biso   1.000  H
  H51      1.0000 0.70180  0.92610  0.63320  Biso   1.000  H
  H52      1.0000 0.70180  0.07390  0.13320  Biso   1.000  H
  H53      1.0000 0.79820  0.57390  0.36680  Biso   1.000  H
  H54      1.0000 0.79820  0.42610  0.86680  Biso   1.000  H
  H55      1.0000 0.29820  0.07390  0.36680  Biso   1.000  H
  H56      1.0000 0.29820  0.92610  0.86680  Biso   1.000  H
  H57      1.0000 0.29290  0.47910  0.64730  Biso   1.000  H
  H58      1.0000 0.29290  0.52090  0.14730  Biso   1.000  H
  H59      1.0000 0.79290  0.97910  0.64730  Biso   1.000  H
  H60      1.0000 0.79290  0.02090  0.14730  Biso   1.000  H
  H61      1.0000 0.70710  0.52090  0.35270  Biso   1.000  H
  H62      1.0000 0.70710  0.47910  0.85270  Biso   1.000  H
  H63      1.0000 0.20710  0.02090  0.35270  Biso   1.000  H
  H64      1.0000 0.20710  0.97910  0.85270  Biso   1.000  H
  H65      1.0000 0.40730  0.38030  0.73550  Biso   1.000  H
  H66      1.0000 0.40730  0.61970  0.23550  Biso   1.000  H
  H67      1.0000 0.90730  0.88030  0.73550  Biso   1.000  H
  H68      1.0000 0.90730  0.11970  0.23550  Biso   1.000  H
  H69      1.0000 0.59270  0.61970  0.26450  Biso   1.000  H
  H70      1.0000 0.59270  0.38030  0.76450  Biso   1.000  H
  H71      1.0000 0.09270  0.11970  0.26450  Biso   1.000  H
  H72      1.0000 0.09270  0.88030  0.76450  Biso   1.000  H
  H73      1.0000 0.35410  0.39730  0.87280  Biso   1.000  H
  H74      1.0000 0.35410  0.60270  0.37280  Biso   1.000  H
  H75      1.0000 0.85410  0.89730  0.87280  Biso   1.000  H
  H76      1.0000 0.85410  0.10270  0.37280  Biso   1.000  H
  H77      1.0000 0.64590  0.60270  0.12720  Biso   1.000  H
  H78      1.0000 0.64590  0.39730  0.62720  Biso   1.000  H
  H79      1.0000 0.14590  0.10270  0.12720  Biso   1.000  H
  H80      1.0000 0.14590  0.89730  0.62720  Biso   1.000  H
