data_image0
_cell_length_a       11.3072
_cell_length_b       17.6841
_cell_length_c       19.5718
_cell_angle_alpha    90
_cell_angle_beta     90
_cell_angle_gamma    90

_symmetry_space_group_name_H-M    "P 1"
_symmetry_int_tables_number       1

loop_
  _symmetry_equiv_pos_as_xyz
  'x, y, z'

loop_
  _atom_site_label
  _atom_site_occupancy
  _atom_site_fract_x
  _atom_site_fract_y
  _atom_site_fract_z
  _atom_site_thermal_displace_type
  _atom_site_B_iso_or_equiv
  _atom_site_type_symbol
  Cu1      1.0000 0.19987  0.25592  0.63642  Biso   1.000  Cu
  Cu2      1.0000 0.30013  0.74408  0.13642  Biso   1.000  Cu
  Cu3      1.0000 0.69987  0.24408  0.36358  Biso   1.000  Cu
  Cu4      1.0000 0.80013  0.75592  0.86358  Biso   1.000  Cu
  Cu5      1.0000 0.80013  0.74408  0.36358  Biso   1.000  Cu
  Cu6      1.0000 0.69987  0.25592  0.86358  Biso   1.000  Cu
  Cu7      1.0000 0.30013  0.75592  0.63642  Biso   1.000  Cu
  Cu8      1.0000 0.19987  0.24408  0.13642  Biso   1.000  Cu
  O1       1.0000 0.69310  0.38261  0.73967  Biso   1.000  O
  O2       1.0000 0.80690  0.61739  0.23967  Biso   1.000  O
  O3       1.0000 0.19310  0.11739  0.26033  Biso   1.000  O
  O4       1.0000 0.30690  0.88261  0.76033  Biso   1.000  O
  O5       1.0000 0.30690  0.61739  0.26033  Biso   1.000  O
  O6       1.0000 0.19310  0.38261  0.76033  Biso   1.000  O
  O7       1.0000 0.80690  0.88261  0.73967  Biso   1.000  O
  O8       1.0000 0.69310  0.11739  0.23967  Biso   1.000  O
  O9       1.0000 0.20120  0.35570  0.59383  Biso   1.000  O
  O10      1.0000 0.29880  0.64430  0.09383  Biso   1.000  O
  O11      1.0000 0.70120  0.14430  0.40617  Biso   1.000  O
  O12      1.0000 0.79880  0.85570  0.90617  Biso   1.000  O
  O13      1.0000 0.79880  0.64430  0.40617  Biso   1.000  O
  O14      1.0000 0.70120  0.35570  0.90617  Biso   1.000  O
  O15      1.0000 0.29880  0.85570  0.59383  Biso   1.000  O
  O16      1.0000 0.20120  0.14430  0.09383  Biso   1.000  O
  O17      1.0000 0.37040  0.24519  0.63200  Biso   1.000  O
  O18      1.0000 0.12960  0.75481  0.13200  Biso   1.000  O
  O19      1.0000 0.87040  0.25481  0.36800  Biso   1.000  O
  O20      1.0000 0.62960  0.74519  0.86800  Biso   1.000  O
  O21      1.0000 0.62960  0.75481  0.36800  Biso   1.000  O
  O22      1.0000 0.87040  0.24519  0.86800  Biso   1.000  O
  O23      1.0000 0.12960  0.74519  0.63200  Biso   1.000  O
  O24      1.0000 0.37040  0.25481  0.13200  Biso   1.000  O
  O25      1.0000 0.27070  0.42829  0.51214  Biso   1.000  O
  O26      1.0000 0.22930  0.57171  0.01214  Biso   1.000  O
  O27      1.0000 0.77070  0.07171  0.48786  Biso   1.000  O
  O28      1.0000 0.72930  0.92829  0.98786  Biso   1.000  O
  O29      1.0000 0.72930  0.57171  0.48786  Biso   1.000  O
  O30      1.0000 0.77070  0.42829  0.98786  Biso   1.000  O
  O31      1.0000 0.22930  0.92829  0.51214  Biso   1.000  O
  O32      1.0000 0.27070  0.07171  0.01214  Biso   1.000  O
  O33      1.0000 0.52420  0.25456  0.56415  Biso   1.000  O
  O34      1.0000 0.97580  0.74544  0.06415  Biso   1.000  O
  O35      1.0000 0.02420  0.24544  0.43585  Biso   1.000  O
  O36      1.0000 0.47580  0.75456  0.93585  Biso   1.000  O
  O37      1.0000 0.47580  0.74544  0.43585  Biso   1.000  O
  O38      1.0000 0.02420  0.25456  0.93585  Biso   1.000  O
  O39      1.0000 0.97580  0.75456  0.56415  Biso   1.000  O
  O40      1.0000 0.52420  0.24544  0.06415  Biso   1.000  O
  O41      1.0000 0.18710  0.19793  0.53262  Biso   1.000  O
  O42      1.0000 0.31290  0.80207  0.03262  Biso   1.000  O
  O43      1.0000 0.68710  0.30207  0.46738  Biso   1.000  O
  O44      1.0000 0.81290  0.69793  0.96738  Biso   1.000  O
  O45      1.0000 0.81290  0.80207  0.46738  Biso   1.000  O
  O46      1.0000 0.68710  0.19793  0.96738  Biso   1.000  O
  O47      1.0000 0.31290  0.69793  0.53262  Biso   1.000  O
  O48      1.0000 0.18710  0.30207  0.03262  Biso   1.000  O
  H1       1.0000 0.12220  0.21310  0.51030  Biso   1.000  H
  H2       1.0000 0.37780  0.78690  0.01030  Biso   1.000  H
  H3       1.0000 0.62220  0.28690  0.48970  Biso   1.000  H
  H4       1.0000 0.87780  0.71310  0.98970  Biso   1.000  H
  H5       1.0000 0.87780  0.78690  0.48970  Biso   1.000  H
  H6       1.0000 0.62220  0.21310  0.98970  Biso   1.000  H
  H7       1.0000 0.37780  0.71310  0.51030  Biso   1.000  H
  H8       1.0000 0.12220  0.28690  0.01030  Biso   1.000  H
  H9       1.0000 0.18320  0.14760  0.53760  Biso   1.000  H
  H10      1.0000 0.31680  0.85240  0.03760  Biso   1.000  H
  H11      1.0000 0.68320  0.35240  0.46240  Biso   1.000  H
  H12      1.0000 0.81680  0.64760  0.96240  Biso   1.000  H
  H13      1.0000 0.81680  0.85240  0.46240  Biso   1.000  H
  H14      1.0000 0.68320  0.14760  0.96240  Biso   1.000  H
  H15      1.0000 0.31680  0.64760  0.53760  Biso   1.000  H
  H16      1.0000 0.18320  0.35240  0.03760  Biso   1.000  H
  N1       1.0000 0.02260  0.26181  0.64114  Biso   1.000  N
  N2       1.0000 0.47740  0.73819  0.14114  Biso   1.000  N
  N3       1.0000 0.52260  0.23819  0.35886  Biso   1.000  N
  N4       1.0000 0.97740  0.76181  0.85886  Biso   1.000  N
  N5       1.0000 0.97740  0.73819  0.35886  Biso   1.000  N
  N6       1.0000 0.52260  0.26181  0.85886  Biso   1.000  N
  N7       1.0000 0.47740  0.76181  0.64114  Biso   1.000  N
  N8       1.0000 0.02260  0.23819  0.14114  Biso   1.000  N
  N9       1.0000 0.84080  0.45921  0.69841  Biso   1.000  N
  N10      1.0000 0.65920  0.54079  0.19841  Biso   1.000  N
  N11      1.0000 0.34080  0.04079  0.30159  Biso   1.000  N
  N12      1.0000 0.15920  0.95921  0.80159  Biso   1.000  N
  N13      1.0000 0.15920  0.54079  0.30159  Biso   1.000  N
  N14      1.0000 0.34080  0.45921  0.80159  Biso   1.000  N
  N15      1.0000 0.65920  0.95921  0.69841  Biso   1.000  N
  N16      1.0000 0.84080  0.04079  0.19841  Biso   1.000  N
  H17      1.0000 0.89820  0.45980  0.66800  Biso   1.000  H
  H18      1.0000 0.60180  0.54020  0.16800  Biso   1.000  H
  H19      1.0000 0.39820  0.04020  0.33200  Biso   1.000  H
  H20      1.0000 0.10180  0.95980  0.83200  Biso   1.000  H
  H21      1.0000 0.10180  0.54020  0.33200  Biso   1.000  H
  H22      1.0000 0.39820  0.45980  0.83200  Biso   1.000  H
  H23      1.0000 0.60180  0.95980  0.66800  Biso   1.000  H
  H24      1.0000 0.89820  0.04020  0.16800  Biso   1.000  H
  N17      1.0000 0.80330  0.66381  0.80386  Biso   1.000  N
  N18      1.0000 0.69670  0.33619  0.30386  Biso   1.000  N
  N19      1.0000 0.30330  0.83619  0.19614  Biso   1.000  N
  N20      1.0000 0.19670  0.16381  0.69614  Biso   1.000  N
  N21      1.0000 0.19670  0.33619  0.19614  Biso   1.000  N
  N22      1.0000 0.30330  0.66381  0.69614  Biso   1.000  N
  N23      1.0000 0.69670  0.16381  0.80386  Biso   1.000  N
  N24      1.0000 0.80330  0.83619  0.30386  Biso   1.000  N
  C1       1.0000 0.95550  0.20630  0.61436  Biso   1.000  C
  C2       1.0000 0.54450  0.79370  0.11436  Biso   1.000  C
  C3       1.0000 0.45550  0.29370  0.38564  Biso   1.000  C
  C4       1.0000 0.04450  0.70630  0.88564  Biso   1.000  C
  C5       1.0000 0.04450  0.79370  0.38564  Biso   1.000  C
  C6       1.0000 0.45550  0.20630  0.88564  Biso   1.000  C
  C7       1.0000 0.54450  0.70630  0.61436  Biso   1.000  C
  C8       1.0000 0.95550  0.29370  0.11436  Biso   1.000  C
  H25      1.0000 0.99380  0.16410  0.59400  Biso   1.000  H
  H26      1.0000 0.50620  0.83590  0.09400  Biso   1.000  H
  H27      1.0000 0.49380  0.33590  0.40600  Biso   1.000  H
  H28      1.0000 0.00620  0.66410  0.90600  Biso   1.000  H
  H29      1.0000 0.00620  0.83590  0.40600  Biso   1.000  H
  H30      1.0000 0.49380  0.16410  0.90600  Biso   1.000  H
  H31      1.0000 0.50620  0.66410  0.59400  Biso   1.000  H
  H32      1.0000 0.99380  0.33590  0.09400  Biso   1.000  H
  C9       1.0000 0.83400  0.20810  0.61520  Biso   1.000  C
  C10      1.0000 0.66600  0.79190  0.11520  Biso   1.000  C
  C11      1.0000 0.33400  0.29190  0.38480  Biso   1.000  C
  C12      1.0000 0.16600  0.70810  0.88480  Biso   1.000  C
  C13      1.0000 0.16600  0.79190  0.38480  Biso   1.000  C
  C14      1.0000 0.33400  0.20810  0.88480  Biso   1.000  C
  C15      1.0000 0.66600  0.70810  0.61520  Biso   1.000  C
  C16      1.0000 0.83400  0.29190  0.11520  Biso   1.000  C
  H33      1.0000 0.78970  0.16810  0.59530  Biso   1.000  H
  H34      1.0000 0.71030  0.83190  0.09530  Biso   1.000  H
  H35      1.0000 0.28970  0.33190  0.40470  Biso   1.000  H
  H36      1.0000 0.21030  0.66810  0.90470  Biso   1.000  H
  H37      1.0000 0.21030  0.83190  0.40470  Biso   1.000  H
  H38      1.0000 0.28970  0.16810  0.90470  Biso   1.000  H
  H39      1.0000 0.71030  0.66810  0.59530  Biso   1.000  H
  H40      1.0000 0.78970  0.33190  0.09530  Biso   1.000  H
  C17      1.0000 0.77720  0.26835  0.64517  Biso   1.000  C
  C18      1.0000 0.72280  0.73165  0.14517  Biso   1.000  C
  C19      1.0000 0.27720  0.23165  0.35483  Biso   1.000  C
  C20      1.0000 0.22280  0.76835  0.85483  Biso   1.000  C
  C21      1.0000 0.22280  0.73165  0.35483  Biso   1.000  C
  C22      1.0000 0.27720  0.26835  0.85483  Biso   1.000  C
  C23      1.0000 0.72280  0.76835  0.64517  Biso   1.000  C
  C24      1.0000 0.77720  0.23165  0.14517  Biso   1.000  C
  H41      1.0000 0.69330  0.27010  0.64710  Biso   1.000  H
  H42      1.0000 0.80670  0.72990  0.14710  Biso   1.000  H
  H43      1.0000 0.19330  0.22990  0.35290  Biso   1.000  H
  H44      1.0000 0.30670  0.77010  0.85290  Biso   1.000  H
  H45      1.0000 0.30670  0.72990  0.35290  Biso   1.000  H
  H46      1.0000 0.19330  0.27010  0.85290  Biso   1.000  H
  H47      1.0000 0.80670  0.77010  0.64710  Biso   1.000  H
  H48      1.0000 0.69330  0.22990  0.14710  Biso   1.000  H
  C25      1.0000 0.84420  0.32640  0.67249  Biso   1.000  C
  C26      1.0000 0.65580  0.67360  0.17249  Biso   1.000  C
  C27      1.0000 0.34420  0.17360  0.32751  Biso   1.000  C
  C28      1.0000 0.15580  0.82640  0.82751  Biso   1.000  C
  C29      1.0000 0.15580  0.67360  0.32751  Biso   1.000  C
  C30      1.0000 0.34420  0.32640  0.82751  Biso   1.000  C
  C31      1.0000 0.65580  0.82640  0.67249  Biso   1.000  C
  C32      1.0000 0.84420  0.17360  0.17249  Biso   1.000  C
  C33      1.0000 0.96620  0.32093  0.66990  Biso   1.000  C
  C34      1.0000 0.53380  0.67907  0.16990  Biso   1.000  C
  C35      1.0000 0.46620  0.17907  0.33010  Biso   1.000  C
  C36      1.0000 0.03380  0.82093  0.83010  Biso   1.000  C
  C37      1.0000 0.03380  0.67907  0.33010  Biso   1.000  C
  C38      1.0000 0.46620  0.32093  0.83010  Biso   1.000  C
  C39      1.0000 0.53380  0.82093  0.66990  Biso   1.000  C
  C40      1.0000 0.96620  0.17907  0.16990  Biso   1.000  C
  H49      1.0000 0.01210  0.36050  0.68920  Biso   1.000  H
  H50      1.0000 0.48790  0.63950  0.18920  Biso   1.000  H
  H51      1.0000 0.51210  0.13950  0.31080  Biso   1.000  H
  H52      1.0000 0.98790  0.86050  0.81080  Biso   1.000  H
  H53      1.0000 0.98790  0.63950  0.31080  Biso   1.000  H
  H54      1.0000 0.51210  0.36050  0.81080  Biso   1.000  H
  H55      1.0000 0.48790  0.86050  0.68920  Biso   1.000  H
  H56      1.0000 0.01210  0.13950  0.18920  Biso   1.000  H
  C41      1.0000 0.78380  0.39136  0.70677  Biso   1.000  C
  C42      1.0000 0.71620  0.60864  0.20677  Biso   1.000  C
  C43      1.0000 0.28380  0.10864  0.29323  Biso   1.000  C
  C44      1.0000 0.21620  0.89136  0.79323  Biso   1.000  C
  C45      1.0000 0.21620  0.60864  0.29323  Biso   1.000  C
  C46      1.0000 0.28380  0.39136  0.79323  Biso   1.000  C
  C47      1.0000 0.71620  0.89136  0.70677  Biso   1.000  C
  C48      1.0000 0.78380  0.10864  0.20677  Biso   1.000  C
  C49      1.0000 0.81920  0.52707  0.73201  Biso   1.000  C
  C50      1.0000 0.68080  0.47293  0.23201  Biso   1.000  C
  C51      1.0000 0.31920  0.97293  0.26799  Biso   1.000  C
  C52      1.0000 0.18080  0.02707  0.76799  Biso   1.000  C
  C53      1.0000 0.18080  0.47293  0.26799  Biso   1.000  C
  C54      1.0000 0.31920  0.52707  0.76799  Biso   1.000  C
  C55      1.0000 0.68080  0.02707  0.73201  Biso   1.000  C
  C56      1.0000 0.81920  0.97293  0.23201  Biso   1.000  C
  C57      1.0000 0.73600  0.53660  0.78370  Biso   1.000  C
  C58      1.0000 0.76400  0.46340  0.28370  Biso   1.000  C
  C59      1.0000 0.23600  0.96340  0.21630  Biso   1.000  C
  C60      1.0000 0.26400  0.03660  0.71630  Biso   1.000  C
  C61      1.0000 0.26400  0.46340  0.21630  Biso   1.000  C
  C62      1.0000 0.23600  0.53660  0.71630  Biso   1.000  C
  C63      1.0000 0.76400  0.03660  0.78370  Biso   1.000  C
  C64      1.0000 0.73600  0.96340  0.28370  Biso   1.000  C
  H57      1.0000 0.68310  0.49700  0.79560  Biso   1.000  H
  H58      1.0000 0.81690  0.50300  0.29560  Biso   1.000  H
  H59      1.0000 0.18310  0.00300  0.20440  Biso   1.000  H
  H60      1.0000 0.31690  0.99700  0.70440  Biso   1.000  H
  H61      1.0000 0.31690  0.50300  0.20440  Biso   1.000  H
  H62      1.0000 0.18310  0.49700  0.70440  Biso   1.000  H
  H63      1.0000 0.81690  0.99700  0.79560  Biso   1.000  H
  H64      1.0000 0.68310  0.00300  0.29560  Biso   1.000  H
  C65      1.0000 0.73220  0.60490  0.81726  Biso   1.000  C
  C66      1.0000 0.76780  0.39510  0.31726  Biso   1.000  C
  C67      1.0000 0.23220  0.89510  0.18274  Biso   1.000  C
  C68      1.0000 0.26780  0.10490  0.68274  Biso   1.000  C
  C69      1.0000 0.26780  0.39510  0.18274  Biso   1.000  C
  C70      1.0000 0.23220  0.60490  0.68274  Biso   1.000  C
  C71      1.0000 0.76780  0.10490  0.81726  Biso   1.000  C
  C72      1.0000 0.73220  0.89510  0.31726  Biso   1.000  C
  H65      1.0000 0.67510  0.61080  0.85250  Biso   1.000  H
  H66      1.0000 0.82490  0.38920  0.35250  Biso   1.000  H
  H67      1.0000 0.17510  0.88920  0.14750  Biso   1.000  H
  H68      1.0000 0.32490  0.11080  0.64750  Biso   1.000  H
  H69      1.0000 0.32490  0.38920  0.14750  Biso   1.000  H
  H70      1.0000 0.17510  0.61080  0.64750  Biso   1.000  H
  H71      1.0000 0.82490  0.11080  0.85250  Biso   1.000  H
  H72      1.0000 0.67510  0.88920  0.35250  Biso   1.000  H
  C73      1.0000 0.88040  0.65460  0.75133  Biso   1.000  C
  C74      1.0000 0.61960  0.34540  0.25133  Biso   1.000  C
  C75      1.0000 0.38040  0.84540  0.24867  Biso   1.000  C
  C76      1.0000 0.11960  0.15460  0.74867  Biso   1.000  C
  C77      1.0000 0.11960  0.34540  0.24867  Biso   1.000  C
  C78      1.0000 0.38040  0.65460  0.74867  Biso   1.000  C
  C79      1.0000 0.61960  0.15460  0.75133  Biso   1.000  C
  C80      1.0000 0.88040  0.84540  0.25133  Biso   1.000  C
  H73      1.0000 0.92990  0.69590  0.73920  Biso   1.000  H
  H74      1.0000 0.57010  0.30410  0.23920  Biso   1.000  H
  H75      1.0000 0.42990  0.80410  0.26080  Biso   1.000  H
  H76      1.0000 0.07010  0.19590  0.76080  Biso   1.000  H
  H77      1.0000 0.07010  0.30410  0.26080  Biso   1.000  H
  H78      1.0000 0.42990  0.69590  0.76080  Biso   1.000  H
  H79      1.0000 0.57010  0.19590  0.73920  Biso   1.000  H
  H80      1.0000 0.92990  0.80410  0.23920  Biso   1.000  H
  C81      1.0000 0.89030  0.58892  0.71503  Biso   1.000  C
  C82      1.0000 0.60970  0.41108  0.21503  Biso   1.000  C
  C83      1.0000 0.39030  0.91108  0.28497  Biso   1.000  C
  C84      1.0000 0.10970  0.08892  0.78497  Biso   1.000  C
  C85      1.0000 0.10970  0.41108  0.28497  Biso   1.000  C
  C86      1.0000 0.39030  0.58892  0.78497  Biso   1.000  C
  C87      1.0000 0.60970  0.08892  0.71503  Biso   1.000  C
  C88      1.0000 0.89030  0.91108  0.21503  Biso   1.000  C
  H81      1.0000 0.94520  0.58530  0.67840  Biso   1.000  H
  H82      1.0000 0.55480  0.41470  0.17840  Biso   1.000  H
  H83      1.0000 0.44520  0.91470  0.32160  Biso   1.000  H
  H84      1.0000 0.05480  0.08530  0.82160  Biso   1.000  H
  H85      1.0000 0.05480  0.41470  0.32160  Biso   1.000  H
  H86      1.0000 0.44520  0.58530  0.82160  Biso   1.000  H
  H87      1.0000 0.55480  0.08530  0.67840  Biso   1.000  H
  H88      1.0000 0.94520  0.91470  0.17840  Biso   1.000  H
  C89      1.0000 0.43690  0.28260  0.59240  Biso   1.000  C
  C90      1.0000 0.06310  0.71740  0.09240  Biso   1.000  C
  C91      1.0000 0.93690  0.21740  0.40760  Biso   1.000  C
  C92      1.0000 0.56310  0.78260  0.90760  Biso   1.000  C
  C93      1.0000 0.56310  0.71740  0.40760  Biso   1.000  C
  C94      1.0000 0.93690  0.28260  0.90760  Biso   1.000  C
  C95      1.0000 0.06310  0.78260  0.59240  Biso   1.000  C
  C96      1.0000 0.43690  0.21740  0.09240  Biso   1.000  C
  C97      1.0000 0.28650  0.38430  0.56070  Biso   1.000  C
  C98      1.0000 0.21350  0.61570  0.06070  Biso   1.000  C
  C99      1.0000 0.78650  0.11570  0.43930  Biso   1.000  C
  C100     1.0000 0.71350  0.88430  0.93930  Biso   1.000  C
  C101     1.0000 0.71350  0.61570  0.43930  Biso   1.000  C
  C102     1.0000 0.78650  0.38430  0.93930  Biso   1.000  C
  C103     1.0000 0.21350  0.88430  0.56070  Biso   1.000  C
  C104     1.0000 0.28650  0.11570  0.06070  Biso   1.000  C
  C105     1.0000 0.41010  0.37060  0.60030  Biso   1.000  C
  C106     1.0000 0.08990  0.62940  0.10030  Biso   1.000  C
  C107     1.0000 0.91010  0.12940  0.39970  Biso   1.000  C
  C108     1.0000 0.58990  0.87060  0.89970  Biso   1.000  C
  C109     1.0000 0.58990  0.62940  0.39970  Biso   1.000  C
  C110     1.0000 0.91010  0.37060  0.89970  Biso   1.000  C
  C111     1.0000 0.08990  0.87060  0.60030  Biso   1.000  C
  C112     1.0000 0.41010  0.12940  0.10030  Biso   1.000  C
  H89      1.0000 0.39610  0.38090  0.64990  Biso   1.000  H
  H90      1.0000 0.10390  0.61910  0.14990  Biso   1.000  H
  H91      1.0000 0.89610  0.11910  0.35010  Biso   1.000  H
  H92      1.0000 0.60390  0.88090  0.85010  Biso   1.000  H
  H93      1.0000 0.60390  0.61910  0.35010  Biso   1.000  H
  H94      1.0000 0.89610  0.38090  0.85010  Biso   1.000  H
  H95      1.0000 0.10390  0.88090  0.64990  Biso   1.000  H
  H96      1.0000 0.39610  0.11910  0.14990  Biso   1.000  H
  C113     1.0000 0.51150  0.41880  0.57800  Biso   1.000  C
  C114     1.0000 0.98850  0.58120  0.07800  Biso   1.000  C
  C115     1.0000 0.01150  0.08120  0.42200  Biso   1.000  C
  C116     1.0000 0.48850  0.91880  0.92200  Biso   1.000  C
  C117     1.0000 0.48850  0.58120  0.42200  Biso   1.000  C
  C118     1.0000 0.01150  0.41880  0.92200  Biso   1.000  C
  C119     1.0000 0.98850  0.91880  0.57800  Biso   1.000  C
  C120     1.0000 0.51150  0.08120  0.07800  Biso   1.000  C
  H97      1.0000 0.51510  0.41780  0.52740  Biso   1.000  H
  H98      1.0000 0.98490  0.58220  0.02740  Biso   1.000  H
  H99      1.0000 0.01510  0.08220  0.47260  Biso   1.000  H
  H100     1.0000 0.48490  0.91780  0.97260  Biso   1.000  H
  H101     1.0000 0.48490  0.58220  0.47260  Biso   1.000  H
  H102     1.0000 0.01510  0.41780  0.97260  Biso   1.000  H
  H103     1.0000 0.98490  0.91780  0.52740  Biso   1.000  H
  H104     1.0000 0.51510  0.08220  0.02740  Biso   1.000  H
  H105     1.0000 0.58550  0.39570  0.59520  Biso   1.000  H
  H106     1.0000 0.91450  0.60430  0.09520  Biso   1.000  H
  H107     1.0000 0.08550  0.10430  0.40480  Biso   1.000  H
  H108     1.0000 0.41450  0.89570  0.90480  Biso   1.000  H
  H109     1.0000 0.41450  0.60430  0.40480  Biso   1.000  H
  H110     1.0000 0.08550  0.39570  0.90480  Biso   1.000  H
  H111     1.0000 0.91450  0.89570  0.59520  Biso   1.000  H
  H112     1.0000 0.58550  0.10430  0.09520  Biso   1.000  H
  C121     1.0000 0.50800  0.49980  0.60080  Biso   1.000  C
  C122     1.0000 0.99200  0.50020  0.10080  Biso   1.000  C
  C123     1.0000 0.00800  0.00020  0.39920  Biso   1.000  C
  C124     1.0000 0.49200  0.99980  0.89920  Biso   1.000  C
  C125     1.0000 0.49200  0.50020  0.39920  Biso   1.000  C
  C126     1.0000 0.00800  0.49980  0.89920  Biso   1.000  C
  C127     1.0000 0.99200  0.99980  0.60080  Biso   1.000  C
  C128     1.0000 0.50800  0.00020  0.10080  Biso   1.000  C
  H113     1.0000 0.52940  0.50280  0.64920  Biso   1.000  H
  H114     1.0000 0.97060  0.49720  0.14920  Biso   1.000  H
  H115     1.0000 0.02940  0.99720  0.35080  Biso   1.000  H
  H116     1.0000 0.47060  0.00280  0.85080  Biso   1.000  H
  H117     1.0000 0.47060  0.49720  0.35080  Biso   1.000  H
  H118     1.0000 0.02940  0.50280  0.85080  Biso   1.000  H
  H119     1.0000 0.97060  0.00280  0.64920  Biso   1.000  H
  H120     1.0000 0.52940  0.99720  0.14920  Biso   1.000  H
  H121     1.0000 0.42780  0.51980  0.59440  Biso   1.000  H
  H122     1.0000 0.07220  0.48020  0.09440  Biso   1.000  H
  H123     1.0000 0.92780  0.98020  0.40560  Biso   1.000  H
  H124     1.0000 0.57220  0.01980  0.90560  Biso   1.000  H
  H125     1.0000 0.57220  0.48020  0.40560  Biso   1.000  H
  H126     1.0000 0.92780  0.51980  0.90560  Biso   1.000  H
  H127     1.0000 0.07220  0.01980  0.59440  Biso   1.000  H
  H128     1.0000 0.42780  0.98020  0.09440  Biso   1.000  H
  H129     1.0000 0.56380  0.52950  0.57370  Biso   1.000  H
  H130     1.0000 0.93620  0.47050  0.07370  Biso   1.000  H
  H131     1.0000 0.06380  0.97050  0.42630  Biso   1.000  H
  H132     1.0000 0.43620  0.02950  0.92630  Biso   1.000  H
  H133     1.0000 0.43620  0.47050  0.42630  Biso   1.000  H
  H134     1.0000 0.06380  0.52950  0.92630  Biso   1.000  H
  H135     1.0000 0.93620  0.02950  0.57370  Biso   1.000  H
  H136     1.0000 0.56380  0.97050  0.07370  Biso   1.000  H
  C129     1.0000 0.41290  0.36200  0.56680  Biso   1.000  C
  C130     1.0000 0.08710  0.63800  0.06680  Biso   1.000  C
  C131     1.0000 0.91290  0.13800  0.43320  Biso   1.000  C
  C132     1.0000 0.58710  0.86200  0.93320  Biso   1.000  C
  C133     1.0000 0.58710  0.63800  0.43320  Biso   1.000  C
  C134     1.0000 0.91290  0.36200  0.93320  Biso   1.000  C
  C135     1.0000 0.08710  0.86200  0.56680  Biso   1.000  C
  C136     1.0000 0.41290  0.13800  0.06680  Biso   1.000  C
  H137     1.0000 0.45760  0.37290  0.52380  Biso   1.000  H
  H138     1.0000 0.04240  0.62710  0.02380  Biso   1.000  H
  H139     1.0000 0.95760  0.12710  0.47620  Biso   1.000  H
  H140     1.0000 0.54240  0.87290  0.97620  Biso   1.000  H
  H141     1.0000 0.54240  0.62710  0.47620  Biso   1.000  H
  H142     1.0000 0.95760  0.37290  0.97620  Biso   1.000  H
  H143     1.0000 0.04240  0.87290  0.52380  Biso   1.000  H
  H144     1.0000 0.45760  0.12710  0.02380  Biso   1.000  H
  C137     1.0000 0.45870  0.41170  0.62810  Biso   1.000  C
  C138     1.0000 0.04130  0.58830  0.12810  Biso   1.000  C
  C139     1.0000 0.95870  0.08830  0.37190  Biso   1.000  C
  C140     1.0000 0.54130  0.91170  0.87190  Biso   1.000  C
  C141     1.0000 0.54130  0.58830  0.37190  Biso   1.000  C
  C142     1.0000 0.95870  0.41170  0.87190  Biso   1.000  C
  C143     1.0000 0.04130  0.91170  0.62810  Biso   1.000  C
  C144     1.0000 0.45870  0.08830  0.12810  Biso   1.000  C
  H145     1.0000 0.40120  0.40800  0.66610  Biso   1.000  H
  H146     1.0000 0.09880  0.59200  0.16610  Biso   1.000  H
  H147     1.0000 0.90120  0.09200  0.33390  Biso   1.000  H
  H148     1.0000 0.59880  0.90800  0.83390  Biso   1.000  H
  H149     1.0000 0.59880  0.59200  0.33390  Biso   1.000  H
  H150     1.0000 0.90120  0.40800  0.83390  Biso   1.000  H
  H151     1.0000 0.09880  0.90800  0.66610  Biso   1.000  H
  H152     1.0000 0.40120  0.09200  0.16610  Biso   1.000  H
  H153     1.0000 0.53460  0.39040  0.64450  Biso   1.000  H
  H154     1.0000 0.96540  0.60960  0.14450  Biso   1.000  H
  H155     1.0000 0.03460  0.10960  0.35550  Biso   1.000  H
  H156     1.0000 0.46540  0.89040  0.85550  Biso   1.000  H
  H157     1.0000 0.46540  0.60960  0.35550  Biso   1.000  H
  H158     1.0000 0.03460  0.39040  0.85550  Biso   1.000  H
  H159     1.0000 0.96540  0.89040  0.64450  Biso   1.000  H
  H160     1.0000 0.53460  0.10960  0.14450  Biso   1.000  H
  C145     1.0000 0.47700  0.49370  0.61120  Biso   1.000  C
  C146     1.0000 0.02300  0.50630  0.11120  Biso   1.000  C
  C147     1.0000 0.97700  0.00630  0.38880  Biso   1.000  C
  C148     1.0000 0.52300  0.99370  0.88880  Biso   1.000  C
  C149     1.0000 0.52300  0.50630  0.38880  Biso   1.000  C
  C150     1.0000 0.97700  0.49370  0.88880  Biso   1.000  C
  C151     1.0000 0.02300  0.99370  0.61120  Biso   1.000  C
  C152     1.0000 0.47700  0.00630  0.11120  Biso   1.000  C
  H161     1.0000 0.49420  0.52190  0.65310  Biso   1.000  H
  H162     1.0000 0.00580  0.47810  0.15310  Biso   1.000  H
  H163     1.0000 0.99420  0.97810  0.34690  Biso   1.000  H
  H164     1.0000 0.50580  0.02190  0.84690  Biso   1.000  H
  H165     1.0000 0.50580  0.47810  0.34690  Biso   1.000  H
  H166     1.0000 0.99420  0.52190  0.84690  Biso   1.000  H
  H167     1.0000 0.00580  0.02190  0.65310  Biso   1.000  H
  H168     1.0000 0.49420  0.97810  0.15310  Biso   1.000  H
  H169     1.0000 0.40510  0.51400  0.59000  Biso   1.000  H
  H170     1.0000 0.09490  0.48600  0.09000  Biso   1.000  H
  H171     1.0000 0.90510  0.98600  0.41000  Biso   1.000  H
  H172     1.0000 0.59490  0.01400  0.91000  Biso   1.000  H
  H173     1.0000 0.59490  0.48600  0.41000  Biso   1.000  H
  H174     1.0000 0.90510  0.51400  0.91000  Biso   1.000  H
  H175     1.0000 0.09490  0.01400  0.59000  Biso   1.000  H
  H176     1.0000 0.40510  0.98600  0.09000  Biso   1.000  H
  H177     1.0000 0.54340  0.49880  0.57930  Biso   1.000  H
  H178     1.0000 0.95660  0.50120  0.07930  Biso   1.000  H
  H179     1.0000 0.04340  0.00120  0.42070  Biso   1.000  H
  H180     1.0000 0.45660  0.99880  0.92070  Biso   1.000  H
  H181     1.0000 0.45660  0.50120  0.42070  Biso   1.000  H
  H182     1.0000 0.04340  0.49880  0.92070  Biso   1.000  H
  H183     1.0000 0.95660  0.99880  0.57930  Biso   1.000  H
  H184     1.0000 0.54340  0.00120  0.07930  Biso   1.000  H
  O49      1.0000 0.03130  0.39817  0.46378  Biso   1.000  O
  O50      1.0000 0.46870  0.60183  0.96378  Biso   1.000  O
  O51      1.0000 0.53130  0.10183  0.53622  Biso   1.000  O
  O52      1.0000 0.96870  0.89817  0.03622  Biso   1.000  O
  O53      1.0000 0.96870  0.60183  0.53622  Biso   1.000  O
  O54      1.0000 0.53130  0.39817  0.03622  Biso   1.000  O
  O55      1.0000 0.46870  0.89817  0.46378  Biso   1.000  O
  O56      1.0000 0.03130  0.10183  0.96378  Biso   1.000  O
  H185     1.0000 0.10220  0.40410  0.48030  Biso   1.000  H
  H186     1.0000 0.39780  0.59590  0.98030  Biso   1.000  H
  H187     1.0000 0.60220  0.09590  0.51970  Biso   1.000  H
  H188     1.0000 0.89780  0.90410  0.01970  Biso   1.000  H
  H189     1.0000 0.89780  0.59590  0.51970  Biso   1.000  H
  H190     1.0000 0.60220  0.40410  0.01970  Biso   1.000  H
  H191     1.0000 0.39780  0.90410  0.48030  Biso   1.000  H
  H192     1.0000 0.10220  0.09590  0.98030  Biso   1.000  H
  H193     1.0000 0.02010  0.35070  0.45400  Biso   1.000  H
  H194     1.0000 0.47990  0.64930  0.95400  Biso   1.000  H
  H195     1.0000 0.52010  0.14930  0.54600  Biso   1.000  H
  H196     1.0000 0.97990  0.85070  0.04600  Biso   1.000  H
  H197     1.0000 0.97990  0.64930  0.54600  Biso   1.000  H
  H198     1.0000 0.52010  0.35070  0.04600  Biso   1.000  H
  H199     1.0000 0.47990  0.85070  0.45400  Biso   1.000  H
  H200     1.0000 0.02010  0.14930  0.95400  Biso   1.000  H
  O57      1.0000 0.20060  0.57764  0.47503  Biso   1.000  O
  O58      1.0000 0.29940  0.42236  0.97503  Biso   1.000  O
  O59      1.0000 0.70060  0.92236  0.52497  Biso   1.000  O
  O60      1.0000 0.79940  0.07764  0.02497  Biso   1.000  O
  O61      1.0000 0.79940  0.42236  0.52497  Biso   1.000  O
  O62      1.0000 0.70060  0.57764  0.02497  Biso   1.000  O
  O63      1.0000 0.29940  0.07764  0.47503  Biso   1.000  O
  O64      1.0000 0.20060  0.92236  0.97503  Biso   1.000  O
  H201     1.0000 0.13180  0.58760  0.49270  Biso   1.000  H
  H202     1.0000 0.36820  0.41240  0.99270  Biso   1.000  H
  H203     1.0000 0.63180  0.91240  0.50730  Biso   1.000  H
  H204     1.0000 0.86820  0.08760  0.00730  Biso   1.000  H
  H205     1.0000 0.86820  0.41240  0.50730  Biso   1.000  H
  H206     1.0000 0.63180  0.58760  0.00730  Biso   1.000  H
  H207     1.0000 0.36820  0.08760  0.49270  Biso   1.000  H
  H208     1.0000 0.13180  0.91240  0.99270  Biso   1.000  H
  H209     1.0000 0.22140  0.53180  0.48560  Biso   1.000  H
  H210     1.0000 0.27860  0.46820  0.98560  Biso   1.000  H
  H211     1.0000 0.72140  0.96820  0.51440  Biso   1.000  H
  H212     1.0000 0.77860  0.03180  0.01440  Biso   1.000  H
  H213     1.0000 0.77860  0.46820  0.51440  Biso   1.000  H
  H214     1.0000 0.72140  0.53180  0.01440  Biso   1.000  H
  H215     1.0000 0.27860  0.03180  0.48560  Biso   1.000  H
  H216     1.0000 0.22140  0.96820  0.98560  Biso   1.000  H
  O65      1.0000 0.03500  0.47825  0.61137  Biso   1.000  O
  O66      1.0000 0.46500  0.52175  0.11137  Biso   1.000  O
  O67      1.0000 0.53500  0.02175  0.38863  Biso   1.000  O
  O68      1.0000 0.96500  0.97825  0.88863  Biso   1.000  O
  O69      1.0000 0.96500  0.52175  0.38863  Biso   1.000  O
  O70      1.0000 0.53500  0.47825  0.88863  Biso   1.000  O
  O71      1.0000 0.46500  0.97825  0.61137  Biso   1.000  O
  O72      1.0000 0.03500  0.02175  0.11137  Biso   1.000  O
  H217     1.0000 0.02370  0.51560  0.58320  Biso   1.000  H
  H218     1.0000 0.47630  0.48440  0.08320  Biso   1.000  H
  H219     1.0000 0.52370  0.98440  0.41680  Biso   1.000  H
  H220     1.0000 0.97630  0.01560  0.91680  Biso   1.000  H
  H221     1.0000 0.97630  0.48440  0.41680  Biso   1.000  H
  H222     1.0000 0.52370  0.51560  0.91680  Biso   1.000  H
  H223     1.0000 0.47630  0.01560  0.58320  Biso   1.000  H
  H224     1.0000 0.02370  0.98440  0.08320  Biso   1.000  H
  H225     1.0000 0.07750  0.44360  0.59150  Biso   1.000  H
  H226     1.0000 0.42250  0.55640  0.09150  Biso   1.000  H
  H227     1.0000 0.57750  0.05640  0.40850  Biso   1.000  H
  H228     1.0000 0.92250  0.94360  0.90850  Biso   1.000  H
  H229     1.0000 0.92250  0.55640  0.40850  Biso   1.000  H
  H230     1.0000 0.57750  0.44360  0.90850  Biso   1.000  H
  H231     1.0000 0.42250  0.94360  0.59150  Biso   1.000  H
  H232     1.0000 0.07750  0.05640  0.09150  Biso   1.000  H
