data_image0
_cell_length_a       11.7155
_cell_length_b       11.3774
_cell_length_c       12.223
_cell_angle_alpha    90
_cell_angle_beta     95.29
_cell_angle_gamma    90

_symmetry_space_group_name_H-M    "P 1"
_symmetry_int_tables_number       1

loop_
  _symmetry_equiv_pos_as_xyz
  'x, y, z'

loop_
  _atom_site_label
  _atom_site_occupancy
  _atom_site_fract_x
  _atom_site_fract_y
  _atom_site_fract_z
  _atom_site_thermal_displace_type
  _atom_site_B_iso_or_equiv
  _atom_site_type_symbol
  Cu1      1.0000 0.56745  0.86458  0.18028  Biso   1.000  Cu
  Cu2      1.0000 0.43255  0.36458  0.31972  Biso   1.000  Cu
  Cu3      1.0000 0.43255  0.13542  0.81972  Biso   1.000  Cu
  Cu4      1.0000 0.56745  0.63542  0.68028  Biso   1.000  Cu
  O1       1.0000 0.43290  0.94940  0.21910  Biso   1.000  O
  O2       1.0000 0.56710  0.44940  0.28090  Biso   1.000  O
  O3       1.0000 0.56710  0.05060  0.78090  Biso   1.000  O
  O4       1.0000 0.43290  0.55060  0.71910  Biso   1.000  O
  O5       1.0000 0.25020  0.99550  0.19190  Biso   1.000  O
  O6       1.0000 0.74980  0.49550  0.30810  Biso   1.000  O
  O7       1.0000 0.74980  0.00450  0.80810  Biso   1.000  O
  O8       1.0000 0.25020  0.50450  0.69190  Biso   1.000  O
  O9       1.0000 0.50170  0.84200  0.03080  Biso   1.000  O
  O10      1.0000 0.49830  0.34200  0.46920  Biso   1.000  O
  O11      1.0000 0.49830  0.15800  0.96920  Biso   1.000  O
  O12      1.0000 0.50170  0.65800  0.53080  Biso   1.000  O
  O13      1.0000 0.35550  0.82130  0.90570  Biso   1.000  O
  O14      1.0000 0.64450  0.32130  0.59430  Biso   1.000  O
  O15      1.0000 0.64450  0.17870  0.09430  Biso   1.000  O
  O16      1.0000 0.35550  0.67870  0.40570  Biso   1.000  O
  O17      1.0000 0.97600  0.13010  0.56970  Biso   1.000  O
  O18      1.0000 0.02400  0.63010  0.93030  Biso   1.000  O
  O19      1.0000 0.02400  0.86990  0.43030  Biso   1.000  O
  O20      1.0000 0.97600  0.36990  0.06970  Biso   1.000  O
  O21      1.0000 0.51410  0.69190  0.25340  Biso   1.000  O
  O22      1.0000 0.48590  0.19190  0.24660  Biso   1.000  O
  O23      1.0000 0.48590  0.30810  0.74660  Biso   1.000  O
  O24      1.0000 0.51410  0.80810  0.75340  Biso   1.000  O
  H1       1.0000 0.47920  0.70560  0.31190  Biso   1.000  H
  H2       1.0000 0.52080  0.20560  0.18810  Biso   1.000  H
  H3       1.0000 0.52080  0.29440  0.68810  Biso   1.000  H
  H4       1.0000 0.47920  0.79440  0.81190  Biso   1.000  H
  H5       1.0000 0.57500  0.64970  0.27090  Biso   1.000  H
  H6       1.0000 0.42500  0.14970  0.22910  Biso   1.000  H
  H7       1.0000 0.42500  0.35030  0.72910  Biso   1.000  H
  H8       1.0000 0.57500  0.85030  0.77090  Biso   1.000  H
  N1       1.0000 0.65040  0.92950  0.32020  Biso   1.000  N
  N2       1.0000 0.34960  0.42950  0.17980  Biso   1.000  N
  N3       1.0000 0.34960  0.07050  0.67980  Biso   1.000  N
  N4       1.0000 0.65040  0.57050  0.82020  Biso   1.000  N
  N5       1.0000 0.89630  0.11620  0.39460  Biso   1.000  N
  N6       1.0000 0.10370  0.61620  0.10540  Biso   1.000  N
  N7       1.0000 0.10370  0.88380  0.60540  Biso   1.000  N
  N8       1.0000 0.89630  0.38380  0.89460  Biso   1.000  N
  H9       1.0000 0.90350  0.14060  0.32730  Biso   1.000  H
  H10      1.0000 0.09650  0.64060  0.17270  Biso   1.000  H
  H11      1.0000 0.09650  0.85940  0.67270  Biso   1.000  H
  H12      1.0000 0.90350  0.35940  0.82730  Biso   1.000  H
  N9       1.0000 0.28350  0.30310  0.36730  Biso   1.000  N
  N10      1.0000 0.71650  0.80310  0.13270  Biso   1.000  N
  N11      1.0000 0.71650  0.69690  0.63270  Biso   1.000  N
  N12      1.0000 0.28350  0.19690  0.86730  Biso   1.000  N
  C1       1.0000 0.33060  0.93310  0.17270  Biso   1.000  C
  C2       1.0000 0.66940  0.43310  0.32730  Biso   1.000  C
  C3       1.0000 0.66940  0.06690  0.82730  Biso   1.000  C
  C4       1.0000 0.33060  0.56690  0.67270  Biso   1.000  C
  C5       1.0000 0.31280  0.83340  0.09240  Biso   1.000  C
  C6       1.0000 0.68720  0.33340  0.40760  Biso   1.000  C
  C7       1.0000 0.68720  0.16660  0.90760  Biso   1.000  C
  C8       1.0000 0.31280  0.66660  0.59240  Biso   1.000  C
  H13      1.0000 0.23340  0.83740  0.05710  Biso   1.000  H
  H14      1.0000 0.76660  0.33740  0.44290  Biso   1.000  H
  H15      1.0000 0.76660  0.16260  0.94290  Biso   1.000  H
  H16      1.0000 0.23340  0.66260  0.55710  Biso   1.000  H
  H17      1.0000 0.32080  0.75840  0.13350  Biso   1.000  H
  H18      1.0000 0.67920  0.25840  0.36650  Biso   1.000  H
  H19      1.0000 0.67920  0.24160  0.86650  Biso   1.000  H
  H20      1.0000 0.32080  0.74160  0.63350  Biso   1.000  H
  C9       1.0000 0.39470  0.83200  0.00330  Biso   1.000  C
  C10      1.0000 0.60530  0.33200  0.49670  Biso   1.000  C
  C11      1.0000 0.60530  0.16800  0.99670  Biso   1.000  C
  C12      1.0000 0.39470  0.66800  0.50330  Biso   1.000  C
  C13      1.0000 0.74490  0.99330  0.31810  Biso   1.000  C
  C14      1.0000 0.25510  0.49330  0.18190  Biso   1.000  C
  C15      1.0000 0.25510  0.00670  0.68190  Biso   1.000  C
  C16      1.0000 0.74490  0.50670  0.81810  Biso   1.000  C
  H21      1.0000 0.77770  0.00160  0.25030  Biso   1.000  H
  H22      1.0000 0.22230  0.50160  0.24970  Biso   1.000  H
  H23      1.0000 0.22230  0.99840  0.74970  Biso   1.000  H
  H24      1.0000 0.77770  0.49840  0.75030  Biso   1.000  H
  C17      1.0000 0.79820  0.04850  0.41040  Biso   1.000  C
  C18      1.0000 0.20180  0.54850  0.08960  Biso   1.000  C
  C19      1.0000 0.20180  0.95150  0.58960  Biso   1.000  C
  C20      1.0000 0.79820  0.45150  0.91040  Biso   1.000  C
  C21      1.0000 0.75090  0.03660  0.51010  Biso   1.000  C
  C22      1.0000 0.24910  0.53660  0.98990  Biso   1.000  C
  C23      1.0000 0.24910  0.96340  0.48990  Biso   1.000  C
  C24      1.0000 0.75090  0.46340  0.01010  Biso   1.000  C
  H25      1.0000 0.78440  0.07390  0.57480  Biso   1.000  H
  H26      1.0000 0.21560  0.57390  0.92520  Biso   1.000  H
  H27      1.0000 0.21560  0.92610  0.42520  Biso   1.000  H
  H28      1.0000 0.78440  0.42610  0.07480  Biso   1.000  H
  C25      1.0000 0.65250  0.96770  0.51170  Biso   1.000  C
  C26      1.0000 0.34750  0.46770  0.98830  Biso   1.000  C
  C27      1.0000 0.34750  0.03230  0.48830  Biso   1.000  C
  C28      1.0000 0.65250  0.53230  0.01170  Biso   1.000  C
  H29      1.0000 0.61880  0.95660  0.57870  Biso   1.000  H
  H30      1.0000 0.38120  0.45660  0.92130  Biso   1.000  H
  H31      1.0000 0.38120  0.04340  0.42130  Biso   1.000  H
  H32      1.0000 0.61880  0.54340  0.07870  Biso   1.000  H
  C29      1.0000 0.60470  0.91660  0.41820  Biso   1.000  C
  C30      1.0000 0.39530  0.41660  0.08180  Biso   1.000  C
  C31      1.0000 0.39530  0.08340  0.58180  Biso   1.000  C
  C32      1.0000 0.60470  0.58340  0.91820  Biso   1.000  C
  H33      1.0000 0.53750  0.87040  0.42100  Biso   1.000  H
  H34      1.0000 0.46250  0.37040  0.07900  Biso   1.000  H
  H35      1.0000 0.46250  0.12960  0.57900  Biso   1.000  H
  H36      1.0000 0.53750  0.62960  0.92100  Biso   1.000  H
  C33      1.0000 0.97880  0.14680  0.47120  Biso   1.000  C
  C34      1.0000 0.02120  0.64680  0.02880  Biso   1.000  C
  C35      1.0000 0.02120  0.85320  0.52880  Biso   1.000  C
  C36      1.0000 0.97880  0.35320  0.97120  Biso   1.000  C
  C37      1.0000 0.08300  0.20530  0.42940  Biso   1.000  C
  C38      1.0000 0.91700  0.70530  0.07060  Biso   1.000  C
  C39      1.0000 0.91700  0.79470  0.57060  Biso   1.000  C
  C40      1.0000 0.08300  0.29470  0.92940  Biso   1.000  C
  C41      1.0000 0.12110  0.17940  0.32830  Biso   1.000  C
  C42      1.0000 0.87890  0.67940  0.17170  Biso   1.000  C
  C43      1.0000 0.87890  0.82060  0.67170  Biso   1.000  C
  C44      1.0000 0.12110  0.32060  0.82830  Biso   1.000  C
  H37      1.0000 0.07930  0.12730  0.27880  Biso   1.000  H
  H38      1.0000 0.92070  0.62730  0.22120  Biso   1.000  H
  H39      1.0000 0.92070  0.87270  0.72120  Biso   1.000  H
  H40      1.0000 0.07930  0.37270  0.77880  Biso   1.000  H
  C45      1.0000 0.22010  0.23040  0.30170  Biso   1.000  C
  C46      1.0000 0.77990  0.73040  0.19830  Biso   1.000  C
  C47      1.0000 0.77990  0.76960  0.69830  Biso   1.000  C
  C48      1.0000 0.22010  0.26960  0.80170  Biso   1.000  C
  H41      1.0000 0.24540  0.21300  0.23180  Biso   1.000  H
  H42      1.0000 0.75460  0.71300  0.26820  Biso   1.000  H
  H43      1.0000 0.75460  0.78700  0.76820  Biso   1.000  H
  H44      1.0000 0.24540  0.28700  0.73180  Biso   1.000  H
  C49      1.0000 0.24690  0.32900  0.46510  Biso   1.000  C
  C50      1.0000 0.75310  0.82900  0.03490  Biso   1.000  C
  C51      1.0000 0.75310  0.67100  0.53490  Biso   1.000  C
  C52      1.0000 0.24690  0.17100  0.96510  Biso   1.000  C
  H45      1.0000 0.29070  0.38130  0.51280  Biso   1.000  H
  H46      1.0000 0.70930  0.88130  0.98720  Biso   1.000  H
  H47      1.0000 0.70930  0.61870  0.48720  Biso   1.000  H
  H48      1.0000 0.29070  0.11870  0.01280  Biso   1.000  H
  C53      1.0000 0.14750  0.28190  0.49830  Biso   1.000  C
  C54      1.0000 0.85250  0.78190  0.00170  Biso   1.000  C
  C55      1.0000 0.85250  0.71810  0.50170  Biso   1.000  C
  C56      1.0000 0.14750  0.21810  0.99830  Biso   1.000  C
  H49      1.0000 0.12330  0.30170  0.56800  Biso   1.000  H
  H50      1.0000 0.87670  0.80170  0.93200  Biso   1.000  H
  H51      1.0000 0.87670  0.69830  0.43200  Biso   1.000  H
  H52      1.0000 0.12330  0.19830  0.06800  Biso   1.000  H
  O25      1.0000 0.87020  0.18110  0.17410  Biso   1.000  O
  O26      1.0000 0.12980  0.68110  0.32590  Biso   1.000  O
  O27      1.0000 0.12980  0.81890  0.82590  Biso   1.000  O
  O28      1.0000 0.87020  0.31890  0.67410  Biso   1.000  O
  H53      1.0000 0.90140  0.24480  0.15110  Biso   1.000  H
  H54      1.0000 0.09860  0.74480  0.34890  Biso   1.000  H
  H55      1.0000 0.09860  0.75520  0.84890  Biso   1.000  H
  H56      1.0000 0.90140  0.25520  0.65110  Biso   1.000  H
  H57      1.0000 0.79630  0.18420  0.15810  Biso   1.000  H
  H58      1.0000 0.20370  0.68420  0.34190  Biso   1.000  H
  H59      1.0000 0.20370  0.81580  0.84190  Biso   1.000  H
  H60      1.0000 0.79630  0.31580  0.65810  Biso   1.000  H
  O29      1.0000 0.97150  0.01700  0.93800  Biso   1.000  O
  O30      1.0000 0.02850  0.51700  0.56200  Biso   1.000  O
  O31      1.0000 0.02850  0.98300  0.06200  Biso   1.000  O
  O32      1.0000 0.97150  0.48300  0.43800  Biso   1.000  O
  H61      1.0000 0.90000  0.00210  0.94710  Biso   1.000  H
  H62      1.0000 0.10000  0.50210  0.55290  Biso   1.000  H
  H63      1.0000 0.10000  0.99790  0.05290  Biso   1.000  H
  H64      1.0000 0.90000  0.49790  0.44710  Biso   1.000  H
  H65      1.0000 0.99890  0.96180  0.89930  Biso   1.000  H
  H66      1.0000 0.00110  0.46180  0.60070  Biso   1.000  H
  H67      1.0000 0.00110  0.03820  0.10070  Biso   1.000  H
  H68      1.0000 0.99890  0.53820  0.39930  Biso   1.000  H
  O33      1.0000 0.97460  0.06100  0.81500  Biso   1.000  O
  O34      1.0000 0.02540  0.56100  0.68500  Biso   1.000  O
  O35      1.0000 0.02540  0.93900  0.18500  Biso   1.000  O
  O36      1.0000 0.97460  0.43900  0.31500  Biso   1.000  O
  H69      1.0000 0.99160  0.06800  0.74750  Biso   1.000  H
  H70      1.0000 0.00840  0.56800  0.75250  Biso   1.000  H
  H71      1.0000 0.00840  0.93200  0.25250  Biso   1.000  H
  H72      1.0000 0.99160  0.43200  0.24750  Biso   1.000  H
  H73      1.0000 0.90240  0.04340  0.81530  Biso   1.000  H
  H74      1.0000 0.09760  0.54340  0.68470  Biso   1.000  H
  H75      1.0000 0.09760  0.95660  0.18470  Biso   1.000  H
  H76      1.0000 0.90240  0.45660  0.31530  Biso   1.000  H
