data_image0
_cell_length_a       6.47031
_cell_length_b       18.5905
_cell_length_c       20.3177
_cell_angle_alpha    90
_cell_angle_beta     97.597
_cell_angle_gamma    90

_symmetry_space_group_name_H-M    "P 1"
_symmetry_int_tables_number       1

loop_
  _symmetry_equiv_pos_as_xyz
  'x, y, z'

loop_
  _atom_site_label
  _atom_site_occupancy
  _atom_site_fract_x
  _atom_site_fract_y
  _atom_site_fract_z
  _atom_site_thermal_displace_type
  _atom_site_B_iso_or_equiv
  _atom_site_type_symbol
  Cu1      1.0000 0.29890  0.92396  0.15841  Biso   1.000  Cu
  Cu2      1.0000 0.70110  0.42396  0.34159  Biso   1.000  Cu
  Cu3      1.0000 0.70110  0.07604  0.84159  Biso   1.000  Cu
  Cu4      1.0000 0.29890  0.57604  0.65841  Biso   1.000  Cu
  Cu5      1.0000 0.78878  0.05900  0.23500  Biso   1.000  Cu
  Cu6      1.0000 0.21122  0.55900  0.26500  Biso   1.000  Cu
  Cu7      1.0000 0.21122  0.94100  0.76500  Biso   1.000  Cu
  Cu8      1.0000 0.78878  0.44100  0.73500  Biso   1.000  Cu
  Cl1      1.0000 0.31264  0.82789  0.09947  Biso   1.000  Cl
  Cl2      1.0000 0.68736  0.32789  0.40053  Biso   1.000  Cl
  Cl3      1.0000 0.68736  0.17211  0.90053  Biso   1.000  Cl
  Cl4      1.0000 0.31264  0.67211  0.59947  Biso   1.000  Cl
  Cl5      1.0000 0.71396  0.94414  0.20484  Biso   1.000  Cl
  Cl6      1.0000 0.28604  0.44414  0.29516  Biso   1.000  Cl
  Cl7      1.0000 0.28604  0.05586  0.79516  Biso   1.000  Cl
  Cl8      1.0000 0.71396  0.55586  0.70484  Biso   1.000  Cl
  Cl9      1.0000 0.72106  0.10504  0.13409  Biso   1.000  Cl
  Cl10     1.0000 0.27894  0.60504  0.36591  Biso   1.000  Cl
  Cl11     1.0000 0.27894  0.89496  0.86591  Biso   1.000  Cl
  Cl12     1.0000 0.72106  0.39496  0.63409  Biso   1.000  Cl
  Cl13     1.0000 0.70155  0.05524  0.33598  Biso   1.000  Cl
  Cl14     1.0000 0.29845  0.55524  0.16402  Biso   1.000  Cl
  Cl15     1.0000 0.29845  0.94476  0.66402  Biso   1.000  Cl
  Cl16     1.0000 0.70155  0.44476  0.83598  Biso   1.000  Cl
  O1       1.0000 0.26970  0.87545  0.24697  Biso   1.000  O
  O2       1.0000 0.73030  0.37545  0.25303  Biso   1.000  O
  O3       1.0000 0.73030  0.12455  0.75303  Biso   1.000  O
  O4       1.0000 0.26970  0.62455  0.74697  Biso   1.000  O
  N1       1.0000 0.25980  0.00197  0.08936  Biso   1.000  N
  N2       1.0000 0.74020  0.50197  0.41064  Biso   1.000  N
  N3       1.0000 0.74020  0.99803  0.91064  Biso   1.000  N
  N4       1.0000 0.25980  0.49803  0.58936  Biso   1.000  N
  N5       1.0000 0.24020  0.00559  0.21218  Biso   1.000  N
  N6       1.0000 0.75980  0.50559  0.28782  Biso   1.000  N
  N7       1.0000 0.75980  0.99441  0.78782  Biso   1.000  N
  N8       1.0000 0.24020  0.49441  0.71218  Biso   1.000  N
  N9       1.0000 0.23490  0.99022  0.27773  Biso   1.000  N
  N10      1.0000 0.76510  0.49022  0.22227  Biso   1.000  N
  N11      1.0000 0.76510  0.00978  0.72227  Biso   1.000  N
  N12      1.0000 0.23490  0.50978  0.77773  Biso   1.000  N
  H1       1.0000 0.25500  0.02100  0.30350  Biso   1.000  H
  H2       1.0000 0.74500  0.52100  0.19650  Biso   1.000  H
  H3       1.0000 0.74500  0.97900  0.69650  Biso   1.000  H
  H4       1.0000 0.25500  0.47900  0.80350  Biso   1.000  H
  N13      1.0000 0.02140  0.13448  0.25842  Biso   1.000  N
  N14      1.0000 0.97860  0.63448  0.24158  Biso   1.000  N
  N15      1.0000 0.97860  0.86552  0.74158  Biso   1.000  N
  N16      1.0000 0.02140  0.36552  0.75842  Biso   1.000  N
  C1       1.0000 0.25450  0.91883  0.29214  Biso   1.000  C
  C2       1.0000 0.74550  0.41883  0.20786  Biso   1.000  C
  C3       1.0000 0.74550  0.08117  0.70786  Biso   1.000  C
  C4       1.0000 0.25450  0.58117  0.79214  Biso   1.000  C
  C5       1.0000 0.21860  0.06867  0.18644  Biso   1.000  C
  C6       1.0000 0.78140  0.56867  0.31356  Biso   1.000  C
  C7       1.0000 0.78140  0.93133  0.81356  Biso   1.000  C
  C8       1.0000 0.21860  0.43133  0.68644  Biso   1.000  C
  C9       1.0000 0.22660  0.06810  0.11360  Biso   1.000  C
  C10      1.0000 0.77340  0.56810  0.38640  Biso   1.000  C
  C11      1.0000 0.77340  0.93190  0.88640  Biso   1.000  C
  C12      1.0000 0.22660  0.43190  0.61360  Biso   1.000  C
  C13      1.0000 0.19920  0.12769  0.07396  Biso   1.000  C
  C14      1.0000 0.80080  0.62769  0.42604  Biso   1.000  C
  C15      1.0000 0.80080  0.87231  0.92604  Biso   1.000  C
  C16      1.0000 0.19920  0.37231  0.57396  Biso   1.000  C
  H5       1.0000 0.17530  0.17250  0.09180  Biso   1.000  H
  H6       1.0000 0.82470  0.67250  0.40820  Biso   1.000  H
  H7       1.0000 0.82470  0.82750  0.90820  Biso   1.000  H
  H8       1.0000 0.17530  0.32750  0.59180  Biso   1.000  H
  C17      1.0000 0.20800  0.11980  0.00630  Biso   1.000  C
  C18      1.0000 0.79200  0.61980  0.49370  Biso   1.000  C
  C19      1.0000 0.79200  0.88020  0.99370  Biso   1.000  C
  C20      1.0000 0.20800  0.38020  0.50630  Biso   1.000  C
  H9       1.0000 0.19090  0.15950  0.97820  Biso   1.000  H
  H10      1.0000 0.80910  0.65950  0.52180  Biso   1.000  H
  H11      1.0000 0.80910  0.84050  0.02180  Biso   1.000  H
  H12      1.0000 0.19090  0.34050  0.47820  Biso   1.000  H
  C21      1.0000 0.24200  0.05320  0.98169  Biso   1.000  C
  C22      1.0000 0.75800  0.55320  0.51831  Biso   1.000  C
  C23      1.0000 0.75800  0.94680  0.01831  Biso   1.000  C
  C24      1.0000 0.24200  0.44680  0.48169  Biso   1.000  C
  H13      1.0000 0.24920  0.04720  0.93660  Biso   1.000  H
  H14      1.0000 0.75080  0.54720  0.56340  Biso   1.000  H
  H15      1.0000 0.75080  0.95280  0.06340  Biso   1.000  H
  H16      1.0000 0.24920  0.45280  0.43660  Biso   1.000  H
  C25      1.0000 0.26560  0.99480  0.02395  Biso   1.000  C
  C26      1.0000 0.73440  0.49480  0.47605  Biso   1.000  C
  C27      1.0000 0.73440  0.00520  0.97605  Biso   1.000  C
  C28      1.0000 0.26560  0.50520  0.52395  Biso   1.000  C
  H17      1.0000 0.28610  0.94940  0.00670  Biso   1.000  H
  H18      1.0000 0.71390  0.44940  0.49330  Biso   1.000  H
  H19      1.0000 0.71390  0.05060  0.99330  Biso   1.000  H
  H20      1.0000 0.28610  0.55060  0.50670  Biso   1.000  H
  C29      1.0000 0.18820  0.13471  0.22552  Biso   1.000  C
  C30      1.0000 0.81180  0.63471  0.27448  Biso   1.000  C
  C31      1.0000 0.81180  0.86529  0.77448  Biso   1.000  C
  C32      1.0000 0.18820  0.36529  0.72552  Biso   1.000  C
  C33      1.0000 0.32900  0.19052  0.22957  Biso   1.000  C
  C34      1.0000 0.67100  0.69052  0.27043  Biso   1.000  C
  C35      1.0000 0.67100  0.80948  0.77043  Biso   1.000  C
  C36      1.0000 0.32900  0.30948  0.72957  Biso   1.000  C
  H21      1.0000 0.44250  0.18910  0.20590  Biso   1.000  H
  H22      1.0000 0.55750  0.68910  0.29410  Biso   1.000  H
  H23      1.0000 0.55750  0.81090  0.79410  Biso   1.000  H
  H24      1.0000 0.44250  0.31090  0.70590  Biso   1.000  H
  C37      1.0000 0.29870  0.24853  0.26940  Biso   1.000  C
  C38      1.0000 0.70130  0.74853  0.23060  Biso   1.000  C
  C39      1.0000 0.70130  0.75147  0.73060  Biso   1.000  C
  C40      1.0000 0.29870  0.25147  0.76940  Biso   1.000  C
  H25      1.0000 0.39180  0.28690  0.27320  Biso   1.000  H
  H26      1.0000 0.60820  0.78690  0.22680  Biso   1.000  H
  H27      1.0000 0.60820  0.71310  0.72680  Biso   1.000  H
  H28      1.0000 0.39180  0.21310  0.77320  Biso   1.000  H
  C41      1.0000 0.12980  0.24882  0.30320  Biso   1.000  C
  C42      1.0000 0.87020  0.74882  0.19680  Biso   1.000  C
  C43      1.0000 0.87020  0.75118  0.69680  Biso   1.000  C
  C44      1.0000 0.12980  0.25118  0.80320  Biso   1.000  C
  H29      1.0000 0.10660  0.28740  0.33040  Biso   1.000  H
  H30      1.0000 0.89340  0.78740  0.16960  Biso   1.000  H
  H31      1.0000 0.89340  0.71260  0.66960  Biso   1.000  H
  H32      1.0000 0.10660  0.21260  0.83040  Biso   1.000  H
  C45      1.0000 0.99360  0.19111  0.29658  Biso   1.000  C
  C46      1.0000 0.00640  0.69111  0.20342  Biso   1.000  C
  C47      1.0000 0.00640  0.80889  0.70342  Biso   1.000  C
  C48      1.0000 0.99360  0.30889  0.79658  Biso   1.000  C
  H33      1.0000 0.87850  0.19180  0.31960  Biso   1.000  H
  H34      1.0000 0.12150  0.69180  0.18040  Biso   1.000  H
  H35      1.0000 0.12150  0.80820  0.68040  Biso   1.000  H
  H36      1.0000 0.87850  0.30820  0.81960  Biso   1.000  H
  C49      1.0000 0.24630  0.89541  0.36271  Biso   1.000  C
  C50      1.0000 0.75370  0.39541  0.13729  Biso   1.000  C
  C51      1.0000 0.75370  0.10459  0.63729  Biso   1.000  C
  C52      1.0000 0.24630  0.60459  0.86271  Biso   1.000  C
  C53      1.0000 0.27680  0.95689  0.41337  Biso   1.000  C
  C54      1.0000 0.72320  0.45689  0.08663  Biso   1.000  C
  C55      1.0000 0.72320  0.04311  0.58663  Biso   1.000  C
  C56      1.0000 0.27680  0.54311  0.91337  Biso   1.000  C
  H37      1.0000 0.16970  0.99310  0.40240  Biso   1.000  H
  H38      1.0000 0.83030  0.49310  0.09760  Biso   1.000  H
  H39      1.0000 0.83030  0.00690  0.59760  Biso   1.000  H
  H40      1.0000 0.16970  0.50690  0.90240  Biso   1.000  H
  H41      1.0000 0.41150  0.97930  0.41200  Biso   1.000  H
  H42      1.0000 0.58850  0.47930  0.08800  Biso   1.000  H
  H43      1.0000 0.58850  0.02070  0.58800  Biso   1.000  H
  H44      1.0000 0.41150  0.52070  0.91200  Biso   1.000  H
  C57      1.0000 0.02890  0.86183  0.36483  Biso   1.000  C
  C58      1.0000 0.97110  0.36183  0.13517  Biso   1.000  C
  C59      1.0000 0.97110  0.13817  0.63517  Biso   1.000  C
  C60      1.0000 0.02890  0.63817  0.86483  Biso   1.000  C
  H45      1.0000 0.92150  0.89780  0.35340  Biso   1.000  H
  H46      1.0000 0.07850  0.39780  0.14660  Biso   1.000  H
  H47      1.0000 0.07850  0.10220  0.64660  Biso   1.000  H
  H48      1.0000 0.92150  0.60220  0.85340  Biso   1.000  H
  H49      1.0000 0.00620  0.82290  0.33290  Biso   1.000  H
  H50      1.0000 0.99380  0.32290  0.16710  Biso   1.000  H
  H51      1.0000 0.99380  0.17710  0.66710  Biso   1.000  H
  H52      1.0000 0.00620  0.67710  0.83290  Biso   1.000  H
  C61      1.0000 0.41320  0.83770  0.38062  Biso   1.000  C
  C62      1.0000 0.58680  0.33770  0.11938  Biso   1.000  C
  C63      1.0000 0.58680  0.16230  0.61938  Biso   1.000  C
  C64      1.0000 0.41320  0.66230  0.88062  Biso   1.000  C
  H53      1.0000 0.55050  0.85810  0.37910  Biso   1.000  H
  H54      1.0000 0.44950  0.35810  0.12090  Biso   1.000  H
  H55      1.0000 0.44950  0.14190  0.62090  Biso   1.000  H
  H56      1.0000 0.55050  0.64190  0.87910  Biso   1.000  H
  H57      1.0000 0.39330  0.79860  0.34880  Biso   1.000  H
  H58      1.0000 0.60670  0.29860  0.15120  Biso   1.000  H
  H59      1.0000 0.60670  0.20140  0.65120  Biso   1.000  H
  H60      1.0000 0.39330  0.70140  0.84880  Biso   1.000  H
  C65      1.0000 0.26410  0.92724  0.48327  Biso   1.000  C
  C66      1.0000 0.73590  0.42724  0.01673  Biso   1.000  C
  C67      1.0000 0.73590  0.07276  0.51673  Biso   1.000  C
  C68      1.0000 0.26410  0.57276  0.98327  Biso   1.000  C
  H61      1.0000 0.28540  0.96640  0.51570  Biso   1.000  H
  H62      1.0000 0.71460  0.46640  0.98430  Biso   1.000  H
  H63      1.0000 0.71460  0.03360  0.48430  Biso   1.000  H
  H64      1.0000 0.28540  0.53360  0.01570  Biso   1.000  H
  C69      1.0000 0.05060  0.89420  0.48472  Biso   1.000  C
  C70      1.0000 0.94940  0.39420  0.01528  Biso   1.000  C
  C71      1.0000 0.94940  0.10580  0.51528  Biso   1.000  C
  C72      1.0000 0.05060  0.60580  0.98472  Biso   1.000  C
  H65      1.0000 0.03950  0.87620  0.52890  Biso   1.000  H
  H66      1.0000 0.96050  0.37620  0.97110  Biso   1.000  H
  H67      1.0000 0.96050  0.12380  0.47110  Biso   1.000  H
  H68      1.0000 0.03950  0.62380  0.02890  Biso   1.000  H
  H69      1.0000 0.94380  0.93050  0.47390  Biso   1.000  H
  H70      1.0000 0.05620  0.43050  0.02610  Biso   1.000  H
  H71      1.0000 0.05620  0.06950  0.52610  Biso   1.000  H
  H72      1.0000 0.94380  0.56950  0.97390  Biso   1.000  H
  C73      1.0000 0.01770  0.83320  0.43496  Biso   1.000  C
  C74      1.0000 0.98230  0.33320  0.06504  Biso   1.000  C
  C75      1.0000 0.98230  0.16680  0.56504  Biso   1.000  C
  C76      1.0000 0.01770  0.66680  0.93496  Biso   1.000  C
  H73      1.0000 0.88000  0.81190  0.43660  Biso   1.000  H
  H74      1.0000 0.12000  0.31190  0.06340  Biso   1.000  H
  H75      1.0000 0.12000  0.18810  0.56340  Biso   1.000  H
  H76      1.0000 0.88000  0.68810  0.93660  Biso   1.000  H
  C77      1.0000 0.18330  0.77610  0.45153  Biso   1.000  C
  C78      1.0000 0.81670  0.27610  0.04847  Biso   1.000  C
  C79      1.0000 0.81670  0.22390  0.54847  Biso   1.000  C
  C80      1.0000 0.18330  0.72390  0.95153  Biso   1.000  C
  H77      1.0000 0.16220  0.73740  0.41940  Biso   1.000  H
  H78      1.0000 0.83780  0.23740  0.08060  Biso   1.000  H
  H79      1.0000 0.83780  0.26260  0.58060  Biso   1.000  H
  H80      1.0000 0.16220  0.76260  0.91940  Biso   1.000  H
  H81      1.0000 0.17310  0.75620  0.49510  Biso   1.000  H
  H82      1.0000 0.82690  0.25620  0.00490  Biso   1.000  H
  H83      1.0000 0.82690  0.24380  0.50490  Biso   1.000  H
  H84      1.0000 0.17310  0.74380  0.99510  Biso   1.000  H
  C81      1.0000 0.39730  0.80900  0.45056  Biso   1.000  C
  C82      1.0000 0.60270  0.30900  0.04944  Biso   1.000  C
  C83      1.0000 0.60270  0.19100  0.54944  Biso   1.000  C
  C84      1.0000 0.39730  0.69100  0.95056  Biso   1.000  C
  H85      1.0000 0.50420  0.77210  0.46200  Biso   1.000  H
  H86      1.0000 0.49580  0.27210  0.03800  Biso   1.000  H
  H87      1.0000 0.49580  0.22790  0.53800  Biso   1.000  H
  H88      1.0000 0.50420  0.72790  0.96200  Biso   1.000  H
  C85      1.0000 0.43100  0.87020  0.50012  Biso   1.000  C
  C86      1.0000 0.56900  0.37020  0.99988  Biso   1.000  C
  C87      1.0000 0.56900  0.12980  0.49988  Biso   1.000  C
  C88      1.0000 0.43100  0.62980  0.00012  Biso   1.000  C
  H89      1.0000 0.56780  0.89110  0.49900  Biso   1.000  H
  H90      1.0000 0.43220  0.39110  0.00100  Biso   1.000  H
  H91      1.0000 0.43220  0.10890  0.50100  Biso   1.000  H
  H92      1.0000 0.56780  0.60890  0.99900  Biso   1.000  H
  H93      1.0000 0.42480  0.85200  0.54460  Biso   1.000  H
  H94      1.0000 0.57520  0.35200  0.95540  Biso   1.000  H
  H95      1.0000 0.57520  0.14800  0.45540  Biso   1.000  H
  H96      1.0000 0.42480  0.64800  0.04460  Biso   1.000  H
