data_image0
_cell_length_a       9.783
_cell_length_b       10.472
_cell_length_c       11.413
_cell_angle_alpha    115.656
_cell_angle_beta     95.56
_cell_angle_gamma    104.489

_symmetry_space_group_name_H-M    "P 1"
_symmetry_int_tables_number       1

loop_
  _symmetry_equiv_pos_as_xyz
  'x, y, z'

loop_
  _atom_site_label
  _atom_site_occupancy
  _atom_site_fract_x
  _atom_site_fract_y
  _atom_site_fract_z
  _atom_site_thermal_displace_type
  _atom_site_B_iso_or_equiv
  _atom_site_type_symbol
  Cu1      1.0000 0.51262  0.53821  0.65884  Biso   1.000  Cu
  Cu2      1.0000 0.48738  0.46179  0.34116  Biso   1.000  Cu
  O1       1.0000 0.62276  0.45083  0.53127  Biso   1.000  O
  O2       1.0000 0.37724  0.54917  0.46873  Biso   1.000  O
  N1       1.0000 0.36770  0.34820  0.63577  Biso   1.000  N
  N2       1.0000 0.63230  0.65180  0.36423  Biso   1.000  N
  N3       1.0000 0.37370  0.62740  0.75614  Biso   1.000  N
  N4       1.0000 0.62630  0.37260  0.24386  Biso   1.000  N
  O3       1.0000 0.32722  0.27250  0.26023  Biso   1.000  O
  O4       1.0000 0.67278  0.72750  0.73977  Biso   1.000  O
  C1       1.0000 0.85980  0.43950  0.51000  Biso   1.000  C
  C2       1.0000 0.14020  0.56050  0.49000  Biso   1.000  C
  C3       1.0000 0.02140  0.44790  0.80750  Biso   1.000  C
  C4       1.0000 0.97860  0.55210  0.19250  Biso   1.000  C
  N5       1.0000 0.91410  0.48570  0.85980  Biso   1.000  N
  N6       1.0000 0.08590  0.51430  0.14020  Biso   1.000  N
  N7       1.0000 0.90900  0.18450  0.73230  Biso   1.000  N
  N8       1.0000 0.09100  0.81550  0.26770  Biso   1.000  N
  C5       1.0000 0.25470  0.37300  0.69170  Biso   1.000  C
  C6       1.0000 0.74530  0.62700  0.30830  Biso   1.000  C
  O5       1.0000 0.67740  0.25050  0.51860  Biso   1.000  O
  O6       1.0000 0.32260  0.74950  0.48140  Biso   1.000  O
  C7       1.0000 0.79710  0.22160  0.78280  Biso   1.000  C
  C8       1.0000 0.20290  0.77840  0.21720  Biso   1.000  C
  C9       1.0000 0.07300  0.07230  0.93690  Biso   1.000  C
  C10      1.0000 0.92700  0.92770  0.06310  Biso   1.000  C
  H1       1.0000 0.12190  0.12120  0.89430  Biso   1.000  H
  H2       1.0000 0.87810  0.87880  0.10570  Biso   1.000  H
  O7       1.0000 0.33980  0.29330  0.07630  Biso   1.000  O
  O8       1.0000 0.66020  0.70670  0.92370  Biso   1.000  O
  C11      1.0000 0.27810  0.23510  0.13830  Biso   1.000  C
  C12      1.0000 0.72190  0.76490  0.86170  Biso   1.000  C
  C13      1.0000 0.13380  0.11200  0.06710  Biso   1.000  C
  C14      1.0000 0.86620  0.88800  0.93290  Biso   1.000  C
  C15      1.0000 0.70920  0.37300  0.52200  Biso   1.000  C
  C16      1.0000 0.29080  0.62700  0.47800  Biso   1.000  C
  C17      1.0000 0.94010  0.96070  0.86910  Biso   1.000  C
  C18      1.0000 0.05990  0.03930  0.13090  Biso   1.000  C
  H3       1.0000 0.09960  0.06570  0.21880  Biso   1.000  H
  H4       1.0000 0.90040  0.93430  0.78120  Biso   1.000  H
  C19      1.0000 0.25690  0.52740  0.75610  Biso   1.000  C
  C20      1.0000 0.74310  0.47260  0.24390  Biso   1.000  C
  C21      1.0000 0.01980  0.29640  0.74440  Biso   1.000  C
  C22      1.0000 0.98020  0.70360  0.25560  Biso   1.000  C
  C23      1.0000 0.37240  0.20850  0.57820  Biso   1.000  C
  C24      1.0000 0.62760  0.79150  0.42180  Biso   1.000  C
  H5       1.0000 0.44920  0.19000  0.53910  Biso   1.000  H
  H6       1.0000 0.55080  0.81000  0.46090  Biso   1.000  H
  C25      1.0000 0.15080  0.11420  0.62910  Biso   1.000  C
  C26      1.0000 0.84920  0.88580  0.37090  Biso   1.000  C
  H7       1.0000 0.07870  0.03520  0.62650  Biso   1.000  H
  H8       1.0000 0.92130  0.96480  0.37350  Biso   1.000  H
  C27      1.0000 0.91750  0.59260  0.55250  Biso   1.000  C
  C28      1.0000 0.08250  0.40740  0.44750  Biso   1.000  C
  H9       1.0000 0.86280  0.65500  0.58800  Biso   1.000  H
  H10      1.0000 0.13720  0.34500  0.41200  Biso   1.000  H
  C29      1.0000 0.14200  0.25970  0.68870  Biso   1.000  C
  C30      1.0000 0.85800  0.74030  0.31130  Biso   1.000  C
  C31      1.0000 0.67180  0.10560  0.76740  Biso   1.000  C
  C32      1.0000 0.32820  0.89440  0.23260  Biso   1.000  C
  H11      1.0000 0.66750  0.00580  0.72400  Biso   1.000  H
  H12      1.0000 0.33250  0.99420  0.27600  Biso   1.000  H
  C33      1.0000 0.80030  0.37310  0.84800  Biso   1.000  C
  C34      1.0000 0.19970  0.62690  0.15200  Biso   1.000  C
  C35      1.0000 0.94330  0.34800  0.45820  Biso   1.000  C
  C36      1.0000 0.05670  0.65200  0.54180  Biso   1.000  C
  H13      1.0000 0.90560  0.24600  0.43040  Biso   1.000  H
  H14      1.0000 0.09440  0.75400  0.56960  Biso   1.000  H
  C37      1.0000 0.15710  0.71790  0.87560  Biso   1.000  C
  C38      1.0000 0.84290  0.28210  0.12440  Biso   1.000  C
  H15      1.0000 0.08510  0.74950  0.91600  Biso   1.000  H
  H16      1.0000 0.91490  0.25050  0.08400  Biso   1.000  H
  C39      1.0000 0.26660  0.08980  0.57490  Biso   1.000  C
  C40      1.0000 0.73340  0.91020  0.42510  Biso   1.000  C
  H17      1.0000 0.27420  0.99420  0.53600  Biso   1.000  H
  H18      1.0000 0.72580  0.00580  0.46400  Biso   1.000  H
  C41      1.0000 0.27690  0.81990  0.87570  Biso   1.000  C
  C42      1.0000 0.72310  0.18010  0.12430  Biso   1.000  C
  H19      1.0000 0.28660  0.92120  0.91610  Biso   1.000  H
  H20      1.0000 0.71340  0.07880  0.08390  Biso   1.000  H
  C43      1.0000 0.14450  0.56580  0.81390  Biso   1.000  C
  C44      1.0000 0.85550  0.43420  0.18610  Biso   1.000  C
  C45      1.0000 0.38270  0.77110  0.81550  Biso   1.000  C
  C46      1.0000 0.61730  0.22890  0.18450  Biso   1.000  C
  H21      1.0000 0.46340  0.84130  0.81640  Biso   1.000  H
  H22      1.0000 0.53660  0.15870  0.18360  Biso   1.000  H
  C47      1.0000 0.68110  0.40640  0.90090  Biso   1.000  C
  C48      1.0000 0.31890  0.59360  0.09910  Biso   1.000  C
  H23      1.0000 0.68320  0.50530  0.94640  Biso   1.000  H
  H24      1.0000 0.31680  0.49470  0.05360  Biso   1.000  H
  C49      1.0000 0.55900  0.14370  0.81720  Biso   1.000  C
  C50      1.0000 0.44100  0.85630  0.18280  Biso   1.000  C
  H25      1.0000 0.47630  0.06840  0.80580  Biso   1.000  H
  H26      1.0000 0.52370  0.93160  0.19420  Biso   1.000  H
  C51      1.0000 0.56380  0.29370  0.88520  Biso   1.000  C
  C52      1.0000 0.43620  0.70630  0.11480  Biso   1.000  C
  H27      1.0000 0.48560  0.31600  0.92000  Biso   1.000  H
  H28      1.0000 0.51440  0.68400  0.08000  Biso   1.000  H
