data_image0
_cell_length_a       10.175
_cell_length_b       7.352
_cell_length_c       12.757
_cell_angle_alpha    90
_cell_angle_beta     105.206
_cell_angle_gamma    90

_symmetry_space_group_name_H-M    "P 1"
_symmetry_int_tables_number       1

loop_
  _symmetry_equiv_pos_as_xyz
  'x, y, z'

loop_
  _atom_site_label
  _atom_site_occupancy
  _atom_site_fract_x
  _atom_site_fract_y
  _atom_site_fract_z
  _atom_site_thermal_displace_type
  _atom_site_B_iso_or_equiv
  _atom_site_type_symbol
  Cu1      1.0000 0.48831  0.08346  0.37535  Biso   1.000  Cu
  Cu2      1.0000 0.48831  0.41654  0.87535  Biso   1.000  Cu
  Cu3      1.0000 0.51169  0.91654  0.62465  Biso   1.000  Cu
  Cu4      1.0000 0.51169  0.58346  0.12465  Biso   1.000  Cu
  O1       1.0000 0.47280  0.86000  0.29440  Biso   1.000  O
  O2       1.0000 0.47280  0.64000  0.79440  Biso   1.000  O
  O3       1.0000 0.52720  0.14000  0.70560  Biso   1.000  O
  O4       1.0000 0.52720  0.36000  0.20560  Biso   1.000  O
  O5       1.0000 0.35320  0.00500  0.44570  Biso   1.000  O
  O6       1.0000 0.35320  0.49500  0.94570  Biso   1.000  O
  O7       1.0000 0.64680  0.99500  0.55430  Biso   1.000  O
  O8       1.0000 0.64680  0.50500  0.05430  Biso   1.000  O
  O9       1.0000 0.36250  0.63980  0.19030  Biso   1.000  O
  O10      1.0000 0.36250  0.86020  0.69030  Biso   1.000  O
  O11      1.0000 0.63750  0.36020  0.80970  Biso   1.000  O
  O12      1.0000 0.63750  0.13980  0.30970  Biso   1.000  O
  O13      1.0000 0.28970  0.20600  0.21800  Biso   1.000  O
  O14      1.0000 0.28970  0.29400  0.71800  Biso   1.000  O
  O15      1.0000 0.71030  0.79400  0.78200  Biso   1.000  O
  O16      1.0000 0.71030  0.70600  0.28200  Biso   1.000  O
  N1       1.0000 0.49470  0.33410  0.44650  Biso   1.000  N
  N2       1.0000 0.49470  0.16590  0.94650  Biso   1.000  N
  N3       1.0000 0.50530  0.66590  0.55350  Biso   1.000  N
  N4       1.0000 0.50530  0.83410  0.05350  Biso   1.000  N
  C1       1.0000 0.25430  0.88840  0.40360  Biso   1.000  C
  C2       1.0000 0.25430  0.61160  0.90360  Biso   1.000  C
  C3       1.0000 0.74570  0.11160  0.59640  Biso   1.000  C
  C4       1.0000 0.74570  0.38840  0.09640  Biso   1.000  C
  C5       1.0000 0.14530  0.87550  0.45110  Biso   1.000  C
  C6       1.0000 0.14530  0.62450  0.95110  Biso   1.000  C
  C7       1.0000 0.85470  0.12450  0.54890  Biso   1.000  C
  C8       1.0000 0.85470  0.37550  0.04890  Biso   1.000  C
  C9       1.0000 0.04250  0.75190  0.41660  Biso   1.000  C
  C10      1.0000 0.04250  0.74810  0.91660  Biso   1.000  C
  C11      1.0000 0.95750  0.24810  0.58340  Biso   1.000  C
  C12      1.0000 0.95750  0.25190  0.08340  Biso   1.000  C
  C13      1.0000 0.04160  0.63700  0.33010  Biso   1.000  C
  C14      1.0000 0.04160  0.86300  0.83010  Biso   1.000  C
  C15      1.0000 0.95840  0.36300  0.66990  Biso   1.000  C
  C16      1.0000 0.95840  0.13700  0.16990  Biso   1.000  C
  C17      1.0000 0.14470  0.64630  0.27970  Biso   1.000  C
  C18      1.0000 0.14470  0.85370  0.77970  Biso   1.000  C
  C19      1.0000 0.85530  0.35370  0.72030  Biso   1.000  C
  C20      1.0000 0.85530  0.14630  0.22030  Biso   1.000  C
  C21      1.0000 0.25410  0.76810  0.31560  Biso   1.000  C
  C22      1.0000 0.25410  0.73190  0.81560  Biso   1.000  C
  C23      1.0000 0.74590  0.23190  0.68440  Biso   1.000  C
  C24      1.0000 0.74590  0.26810  0.18440  Biso   1.000  C
  C25      1.0000 0.36930  0.75690  0.26450  Biso   1.000  C
  C26      1.0000 0.36930  0.74310  0.76450  Biso   1.000  C
  C27      1.0000 0.63070  0.24310  0.73550  Biso   1.000  C
  C28      1.0000 0.63070  0.25690  0.23550  Biso   1.000  C
  C29      1.0000 0.39390  0.38910  0.48880  Biso   1.000  C
  C30      1.0000 0.39390  0.11090  0.98880  Biso   1.000  C
  C31      1.0000 0.60610  0.61090  0.51120  Biso   1.000  C
  C32      1.0000 0.60610  0.88910  0.01120  Biso   1.000  C
  C33      1.0000 0.60110  0.44790  0.45830  Biso   1.000  C
  C34      1.0000 0.60110  0.05210  0.95830  Biso   1.000  C
  C35      1.0000 0.39890  0.55210  0.54170  Biso   1.000  C
  C36      1.0000 0.39890  0.94790  0.04170  Biso   1.000  C
  H1       1.0000 0.15700  0.94900  0.51400  Biso   1.000  H
  H2       1.0000 0.15700  0.55100  0.01400  Biso   1.000  H
  H3       1.0000 0.84300  0.05100  0.48600  Biso   1.000  H
  H4       1.0000 0.84300  0.44900  0.98600  Biso   1.000  H
  H5       1.0000 0.96700  0.74900  0.45500  Biso   1.000  H
  H6       1.0000 0.96700  0.75100  0.95500  Biso   1.000  H
  H7       1.0000 0.03300  0.25100  0.54500  Biso   1.000  H
  H8       1.0000 0.03300  0.24900  0.04500  Biso   1.000  H
  H9       1.0000 0.98600  0.57900  0.30700  Biso   1.000  H
  H10      1.0000 0.98600  0.92100  0.80700  Biso   1.000  H
  H11      1.0000 0.01400  0.42100  0.69300  Biso   1.000  H
  H12      1.0000 0.01400  0.07900  0.19300  Biso   1.000  H
  H13      1.0000 0.13800  0.57300  0.20300  Biso   1.000  H
  H14      1.0000 0.13800  0.92700  0.70300  Biso   1.000  H
  H15      1.0000 0.86200  0.42700  0.79700  Biso   1.000  H
  H16      1.0000 0.86200  0.07300  0.29700  Biso   1.000  H
  H17      1.0000 0.31200  0.31400  0.48200  Biso   1.000  H
  H18      1.0000 0.31200  0.18600  0.98200  Biso   1.000  H
  H19      1.0000 0.68800  0.68600  0.51800  Biso   1.000  H
  H20      1.0000 0.68800  0.81400  0.01800  Biso   1.000  H
  H21      1.0000 0.67700  0.40700  0.43900  Biso   1.000  H
  H22      1.0000 0.67700  0.09300  0.93900  Biso   1.000  H
  H23      1.0000 0.32300  0.59300  0.56100  Biso   1.000  H
  H24      1.0000 0.32300  0.90700  0.06100  Biso   1.000  H
  H25      1.0000 0.21310  0.25310  0.26990  Biso   1.000  H
  H26      1.0000 0.21310  0.24690  0.76990  Biso   1.000  H
  H27      1.0000 0.78690  0.74690  0.73010  Biso   1.000  H
  H28      1.0000 0.78690  0.75310  0.23010  Biso   1.000  H
  H29      1.0000 0.24390  0.34210  0.15450  Biso   1.000  H
  H30      1.0000 0.24390  0.15790  0.65450  Biso   1.000  H
  H31      1.0000 0.75610  0.65790  0.84550  Biso   1.000  H
  H32      1.0000 0.75610  0.84210  0.34550  Biso   1.000  H
