data_image0
_cell_length_a       7.4854
_cell_length_b       10.8225
_cell_length_c       13.166
_cell_angle_alpha    110.057
_cell_angle_beta     92.554
_cell_angle_gamma    96.682

_symmetry_space_group_name_H-M    "P 1"
_symmetry_int_tables_number       1

loop_
  _symmetry_equiv_pos_as_xyz
  'x, y, z'

loop_
  _atom_site_label
  _atom_site_occupancy
  _atom_site_fract_x
  _atom_site_fract_y
  _atom_site_fract_z
  _atom_site_thermal_displace_type
  _atom_site_B_iso_or_equiv
  _atom_site_type_symbol
  Cu1      1.0000 0.00000  0.50000  0.50000  Biso   1.000  Cu
  C1       1.0000 0.01440  0.75870  0.55080  Biso   1.000  C
  C2       1.0000 0.98560  0.24130  0.44920  Biso   1.000  C
  C3       1.0000 0.01450  0.88700  0.52800  Biso   1.000  C
  C4       1.0000 0.98550  0.11300  0.47200  Biso   1.000  C
  C5       1.0000 0.85590  0.90140  0.47760  Biso   1.000  C
  C6       1.0000 0.14410  0.09860  0.52240  Biso   1.000  C
  H1       1.0000 0.75720  0.83510  0.46270  Biso   1.000  H
  H2       1.0000 0.24280  0.16490  0.53730  Biso   1.000  H
  C7       1.0000 0.16020  0.98820  0.55120  Biso   1.000  C
  C8       1.0000 0.83980  0.01180  0.44880  Biso   1.000  C
  C9       1.0000 0.32840  0.98180  0.61390  Biso   1.000  C
  C10      1.0000 0.67160  0.01820  0.38610  Biso   1.000  C
  C11      1.0000 0.38430  0.59780  0.59520  Biso   1.000  C
  C12      1.0000 0.61570  0.40220  0.40480  Biso   1.000  C
  H3       1.0000 0.38350  0.64860  0.55080  Biso   1.000  H
  H4       1.0000 0.61650  0.35140  0.44920  Biso   1.000  H
  C13      1.0000 0.54210  0.60550  0.65640  Biso   1.000  C
  C14      1.0000 0.45790  0.39450  0.34360  Biso   1.000  C
  H5       1.0000 0.64550  0.65950  0.65220  Biso   1.000  H
  H6       1.0000 0.35450  0.34050  0.34780  Biso   1.000  H
  C15      1.0000 0.54550  0.53230  0.72420  Biso   1.000  C
  C16      1.0000 0.45450  0.46770  0.27580  Biso   1.000  C
  H7       1.0000 0.65080  0.53590  0.76590  Biso   1.000  H
  H8       1.0000 0.34920  0.46410  0.23410  Biso   1.000  H
  C17      1.0000 0.38870  0.45370  0.72840  Biso   1.000  C
  C18      1.0000 0.61130  0.54630  0.27160  Biso   1.000  C
  C19      1.0000 0.23570  0.45170  0.66430  Biso   1.000  C
  C20      1.0000 0.76430  0.54830  0.33570  Biso   1.000  C
  H9       1.0000 0.12990  0.39990  0.66830  Biso   1.000  H
  H10      1.0000 0.87010  0.60010  0.33170  Biso   1.000  H
  C21      1.0000 0.37510  0.37130  0.79790  Biso   1.000  C
  C22      1.0000 0.62490  0.62870  0.20210  Biso   1.000  C
  C23      1.0000 0.49160  0.29690  0.92320  Biso   1.000  C
  C24      1.0000 0.50840  0.70310  0.07680  Biso   1.000  C
  C25      1.0000 0.20560  0.21880  0.84700  Biso   1.000  C
  C26      1.0000 0.79440  0.78120  0.15300  Biso   1.000  C
  C27      1.0000 0.03380  0.13080  0.83240  Biso   1.000  C
  C28      1.0000 0.96620  0.86920  0.16760  Biso   1.000  C
  C29      1.0000 0.01020  0.03230  0.87760  Biso   1.000  C
  C30      1.0000 0.98980  0.96770  0.12240  Biso   1.000  C
  H11      1.0000 0.10420  0.02050  0.92050  Biso   1.000  H
  H12      1.0000 0.89580  0.97950  0.07950  Biso   1.000  H
  C31      1.0000 0.84670  0.95210  0.85840  Biso   1.000  C
  C32      1.0000 0.15330  0.04790  0.14160  Biso   1.000  C
  H13      1.0000 0.82910  0.88550  0.88810  Biso   1.000  H
  H14      1.0000 0.17090  0.11450  0.11190  Biso   1.000  H
  C33      1.0000 0.71010  0.97130  0.79510  Biso   1.000  C
  C34      1.0000 0.28990  0.02870  0.20490  Biso   1.000  C
  H15      1.0000 0.59960  0.91700  0.78290  Biso   1.000  H
  H16      1.0000 0.40040  0.08300  0.21710  Biso   1.000  H
  C35      1.0000 0.88740  0.14140  0.76850  Biso   1.000  C
  C36      1.0000 0.11260  0.85860  0.23150  Biso   1.000  C
  H17      1.0000 0.90100  0.20620  0.73670  Biso   1.000  H
  H18      1.0000 0.09900  0.79380  0.26330  Biso   1.000  H
  C37      1.0000 0.64230  0.30040  0.00140  Biso   1.000  C
  C38      1.0000 0.35770  0.69960  0.99860  Biso   1.000  C
  C39      1.0000 0.62420  0.22540  0.06800  Biso   1.000  C
  C40      1.0000 0.37580  0.77460  0.93200  Biso   1.000  C
  H19      1.0000 0.51810  0.16850  0.06230  Biso   1.000  H
  H20      1.0000 0.48190  0.83150  0.93770  Biso   1.000  H
  C41      1.0000 0.76560  0.23630  0.14300  Biso   1.000  C
  C42      1.0000 0.23440  0.76370  0.85700  Biso   1.000  C
  H21      1.0000 0.75620  0.18810  0.18940  Biso   1.000  H
  H22      1.0000 0.24380  0.81190  0.81060  Biso   1.000  H
  C43      1.0000 0.92000  0.31980  0.14730  Biso   1.000  C
  C44      1.0000 0.08000  0.68020  0.85270  Biso   1.000  C
  H23      1.0000 0.01410  0.32720  0.19850  Biso   1.000  H
  H24      1.0000 0.98590  0.67280  0.80150  Biso   1.000  H
  C45      1.0000 0.80560  0.38050  0.01210  Biso   1.000  C
  C46      1.0000 0.19440  0.61950  0.98790  Biso   1.000  C
  H25      1.0000 0.81930  0.43010  0.96690  Biso   1.000  H
  H26      1.0000 0.18070  0.56990  0.03310  Biso   1.000  H
  N1       1.0000 0.23130  0.52030  0.59691  Biso   1.000  N
  N2       1.0000 0.76870  0.47970  0.40309  Biso   1.000  N
  N3       1.0000 0.21630  0.29610  0.78760  Biso   1.000  N
  N4       1.0000 0.78370  0.70390  0.21240  Biso   1.000  N
  N5       1.0000 0.33880  0.21530  0.91710  Biso   1.000  N
  N6       1.0000 0.66120  0.78470  0.08290  Biso   1.000  N
  N7       1.0000 0.51700  0.37570  0.86440  Biso   1.000  N
  N8       1.0000 0.48300  0.62430  0.13560  Biso   1.000  N
  N9       1.0000 0.72970  0.06460  0.75050  Biso   1.000  N
  N10      1.0000 0.27030  0.93540  0.24950  Biso   1.000  N
  N11      1.0000 0.94480  0.39120  0.08330  Biso   1.000  N
  N12      1.0000 0.05520  0.60880  0.91670  Biso   1.000  N
  O1       1.0000 0.08350  0.66733  0.48039  Biso   1.000  O
  O2       1.0000 0.91650  0.33267  0.51961  Biso   1.000  O
  O3       1.0000 0.93580  0.74240  0.62613  Biso   1.000  O
  O4       1.0000 0.06420  0.25760  0.37387  Biso   1.000  O
  O5       1.0000 0.45640  0.08120  0.62740  Biso   1.000  O
  O6       1.0000 0.54360  0.91880  0.37260  Biso   1.000  O
  H27      1.0000 0.54390  0.07400  0.66360  Biso   1.000  H
  H28      1.0000 0.45610  0.92600  0.33640  Biso   1.000  H
  O7       1.0000 0.34040  0.89530  0.65120  Biso   1.000  O
  O8       1.0000 0.65960  0.10470  0.34880  Biso   1.000  O
