data_image0
_cell_length_a       7.5425
_cell_length_b       13.254
_cell_length_c       15.96
_cell_angle_alpha    79.307
_cell_angle_beta     82.857
_cell_angle_gamma    87.395

_symmetry_space_group_name_H-M    "P 1"
_symmetry_int_tables_number       1

loop_
  _symmetry_equiv_pos_as_xyz
  'x, y, z'

loop_
  _atom_site_label
  _atom_site_occupancy
  _atom_site_fract_x
  _atom_site_fract_y
  _atom_site_fract_z
  _atom_site_thermal_displace_type
  _atom_site_B_iso_or_equiv
  _atom_site_type_symbol
  Cu1      1.0000 0.00000  0.00000  0.50000  Biso   1.000  Cu
  Cu2      1.0000 0.52196  0.75451  0.80874  Biso   1.000  Cu
  Cu3      1.0000 0.47804  0.24549  0.19126  Biso   1.000  Cu
  C1       1.0000 0.02840  0.21260  0.39890  Biso   1.000  C
  C2       1.0000 0.97160  0.78740  0.60110  Biso   1.000  C
  H1       1.0000 0.99410  0.18370  0.35480  Biso   1.000  H
  H2       1.0000 0.00590  0.81630  0.64520  Biso   1.000  H
  C3       1.0000 0.06080  0.31680  0.38380  Biso   1.000  C
  C4       1.0000 0.93920  0.68320  0.61620  Biso   1.000  C
  H3       1.0000 0.04680  0.35700  0.33060  Biso   1.000  H
  H4       1.0000 0.95320  0.64300  0.66940  Biso   1.000  H
  C5       1.0000 0.11380  0.36020  0.44790  Biso   1.000  C
  C6       1.0000 0.88620  0.63980  0.55210  Biso   1.000  C
  H5       1.0000 0.13780  0.42990  0.43840  Biso   1.000  H
  H6       1.0000 0.86220  0.57010  0.56160  Biso   1.000  H
  C7       1.0000 0.13120  0.29880  0.52720  Biso   1.000  C
  C8       1.0000 0.86880  0.70120  0.47280  Biso   1.000  C
  C9       1.0000 0.09440  0.19530  0.53780  Biso   1.000  C
  C10      1.0000 0.90560  0.80470  0.46220  Biso   1.000  C
  H7       1.0000 0.10460  0.15400  0.59100  Biso   1.000  H
  H8       1.0000 0.89540  0.84600  0.40900  Biso   1.000  H
  C11      1.0000 0.19060  0.33710  0.59980  Biso   1.000  C
  C12      1.0000 0.80940  0.66290  0.40020  Biso   1.000  C
  C13      1.0000 0.23000  0.31050  0.73980  Biso   1.000  C
  C14      1.0000 0.77000  0.68950  0.26020  Biso   1.000  C
  C15      1.0000 0.30500  0.46120  0.65470  Biso   1.000  C
  C16      1.0000 0.69500  0.53880  0.34530  Biso   1.000  C
  C17      1.0000 0.37510  0.56660  0.64180  Biso   1.000  C
  C18      1.0000 0.62490  0.43340  0.35820  Biso   1.000  C
  C19      1.0000 0.38570  0.63130  0.56200  Biso   1.000  C
  C20      1.0000 0.61430  0.36870  0.43800  Biso   1.000  C
  H9       1.0000 0.35500  0.60810  0.51430  Biso   1.000  H
  H10      1.0000 0.64500  0.39190  0.48570  Biso   1.000  H
  C21      1.0000 0.44250  0.73020  0.55480  Biso   1.000  C
  C22      1.0000 0.55750  0.26980  0.44520  Biso   1.000  C
  H11      1.0000 0.45120  0.77450  0.50210  Biso   1.000  H
  H12      1.0000 0.54880  0.22550  0.49790  Biso   1.000  H
  C23      1.0000 0.48610  0.76270  0.62660  Biso   1.000  C
  C24      1.0000 0.51390  0.23730  0.37340  Biso   1.000  C
  H13      1.0000 0.52310  0.82980  0.62130  Biso   1.000  H
  H14      1.0000 0.47690  0.17020  0.37870  Biso   1.000  H
  C25      1.0000 0.42400  0.60450  0.71030  Biso   1.000  C
  C26      1.0000 0.57600  0.39550  0.28970  Biso   1.000  C
  H15      1.0000 0.41980  0.56110  0.76340  Biso   1.000  H
  H16      1.0000 0.58020  0.43890  0.23660  Biso   1.000  H
  C27      1.0000 0.21350  0.24070  0.82480  Biso   1.000  C
  C28      1.0000 0.78650  0.75930  0.17520  Biso   1.000  C
  C29      1.0000 0.22450  0.27900  0.89880  Biso   1.000  C
  C30      1.0000 0.77550  0.72100  0.10120  Biso   1.000  C
  H17      1.0000 0.24080  0.34880  0.89570  Biso   1.000  H
  H18      1.0000 0.75920  0.65120  0.10430  Biso   1.000  H
  C31      1.0000 0.18500  0.11610  0.98300  Biso   1.000  C
  C32      1.0000 0.81500  0.88390  0.01700  Biso   1.000  C
  H19      1.0000 0.17340  0.07520  0.03730  Biso   1.000  H
  H20      1.0000 0.82660  0.92480  0.96270  Biso   1.000  H
  C33      1.0000 0.17450  0.07330  0.91190  Biso   1.000  C
  C34      1.0000 0.82550  0.92670  0.08810  Biso   1.000  C
  H21      1.0000 0.15950  0.00300  0.91720  Biso   1.000  H
  H22      1.0000 0.84050  0.99700  0.08280  Biso   1.000  H
  C35      1.0000 0.18670  0.13650  0.83260  Biso   1.000  C
  C36      1.0000 0.81330  0.86350  0.16740  Biso   1.000  C
  H23      1.0000 0.17680  0.10900  0.78390  Biso   1.000  H
  H24      1.0000 0.82320  0.89100  0.21610  Biso   1.000  H
  C37      1.0000 0.28450  0.95050  0.36990  Biso   1.000  C
  C38      1.0000 0.71550  0.04950  0.63010  Biso   1.000  C
  C39      1.0000 0.31100  0.90250  0.29020  Biso   1.000  C
  C40      1.0000 0.68900  0.09750  0.70980  Biso   1.000  C
  C41      1.0000 0.36100  0.95610  0.20700  Biso   1.000  C
  C42      1.0000 0.63900  0.04390  0.79300  Biso   1.000  C
  C43      1.0000 0.36210  0.90540  0.13780  Biso   1.000  C
  C44      1.0000 0.63790  0.09460  0.86220  Biso   1.000  C
  H25      1.0000 0.39670  0.94090  0.08260  Biso   1.000  H
  H26      1.0000 0.60330  0.05910  0.91740  Biso   1.000  H
  C45      1.0000 0.31340  0.80390  0.14850  Biso   1.000  C
  C46      1.0000 0.68660  0.19610  0.85150  Biso   1.000  C
  C47      1.0000 0.27400  0.74850  0.23210  Biso   1.000  C
  C48      1.0000 0.72600  0.25150  0.76790  Biso   1.000  C
  C49      1.0000 0.27500  0.79900  0.30040  Biso   1.000  C
  C50      1.0000 0.72500  0.20100  0.69960  Biso   1.000  C
  H27      1.0000 0.25030  0.76180  0.35580  Biso   1.000  H
  H28      1.0000 0.74970  0.23820  0.64420  Biso   1.000  H
  C51      1.0000 0.41460  0.06580  0.19050  Biso   1.000  C
  C52      1.0000 0.58540  0.93420  0.80950  Biso   1.000  C
  C53      1.0000 0.29540  0.76410  0.06760  Biso   1.000  C
  C54      1.0000 0.70460  0.23590  0.93240  Biso   1.000  C
  C55      1.0000 0.22870  0.63790  0.25280  Biso   1.000  C
  C56      1.0000 0.77130  0.36210  0.74720  Biso   1.000  C
  C57      1.0000 0.20010  0.65870  0.87990  Biso   1.000  C
  C58      1.0000 0.79990  0.34130  0.12010  Biso   1.000  C
  C59      1.0000 0.09650  0.57620  0.94140  Biso   1.000  C
  C60      1.0000 0.90350  0.42380  0.05860  Biso   1.000  C
  C61      1.0000 0.17780  0.51170  0.00490  Biso   1.000  C
  C62      1.0000 0.82220  0.48830  0.99510  Biso   1.000  C
  H29      1.0000 0.29840  0.51950  0.00860  Biso   1.000  H
  H30      1.0000 0.70160  0.48050  0.99140  Biso   1.000  H
  C63      1.0000 0.91560  0.56440  0.93660  Biso   1.000  C
  C64      1.0000 0.08440  0.43560  0.06340  Biso   1.000  C
  C65      1.0000 0.80880  0.62680  0.87030  Biso   1.000  C
  C66      1.0000 0.19120  0.37320  0.12970  Biso   1.000  C
  N1       1.0000 0.04480  0.15200  0.47480  Biso   1.000  N
  N2       1.0000 0.95520  0.84800  0.52520  Biso   1.000  N
  N3       1.0000 0.25400  0.43170  0.58600  Biso   1.000  N
  N4       1.0000 0.74600  0.56830  0.41400  Biso   1.000  N
  N5       1.0000 0.29410  0.40400  0.73390  Biso   1.000  N
  N6       1.0000 0.70590  0.59600  0.26610  Biso   1.000  N
  N7       1.0000 0.17760  0.27280  0.67570  Biso   1.000  N
  N8       1.0000 0.82240  0.72720  0.32430  Biso   1.000  N
  N9       1.0000 0.47730  0.70130  0.70360  Biso   1.000  N
  N10      1.0000 0.52270  0.29870  0.29640  Biso   1.000  N
  N11      1.0000 0.21170  0.21620  0.97420  Biso   1.000  N
  N12      1.0000 0.78830  0.78380  0.02580  Biso   1.000  N
  H31      1.0000 0.22100  0.24130  0.01940  Biso   1.000  H
  H32      1.0000 0.77900  0.75870  0.98060  Biso   1.000  H
  O1       1.0000 0.12740  0.98380  0.38667  Biso   1.000  O
  O2       1.0000 0.87260  0.01620  0.61333  Biso   1.000  O
  O3       1.0000 0.40840  0.94630  0.41443  Biso   1.000  O
  O4       1.0000 0.59160  0.05370  0.58557  Biso   1.000  O
  O5       1.0000 0.37990  0.11630  0.25155  Biso   1.000  O
  O6       1.0000 0.62010  0.88370  0.74845  Biso   1.000  O
  O7       1.0000 0.49190  0.10700  0.11985  Biso   1.000  O
  O8       1.0000 0.50810  0.89300  0.88015  Biso   1.000  O
  O9       1.0000 0.42670  0.70050  0.04616  Biso   1.000  O
  O10      1.0000 0.57330  0.29950  0.95384  Biso   1.000  O
  H33      1.0000 0.41840  0.68900  0.99810  Biso   1.000  H
  H34      1.0000 0.58160  0.31100  0.00190  Biso   1.000  H
  O11      1.0000 0.17750  0.79230  0.02450  Biso   1.000  O
  O12      1.0000 0.82250  0.20770  0.97550  Biso   1.000  O
  O13      1.0000 0.23930  0.58540  0.32180  Biso   1.000  O
  O14      1.0000 0.76070  0.41460  0.67820  Biso   1.000  O
  O15      1.0000 0.17320  0.60500  0.18778  Biso   1.000  O
  O16      1.0000 0.82680  0.39500  0.81222  Biso   1.000  O
  H35      1.0000 0.17930  0.54200  0.19610  Biso   1.000  H
  H36      1.0000 0.82070  0.45800  0.80390  Biso   1.000  H
  O17      1.0000 0.36930  0.66097  0.88974  Biso   1.000  O
  O18      1.0000 0.63070  0.33903  0.11026  Biso   1.000  O
  O19      1.0000 0.12880  0.71550  0.82406  Biso   1.000  O
  O20      1.0000 0.87120  0.28450  0.17594  Biso   1.000  O
  O21      1.0000 0.78650  0.58940  0.80630  Biso   1.000  O
  O22      1.0000 0.21350  0.41060  0.19370  Biso   1.000  O
  O23      1.0000 0.73270  0.70880  0.88675  Biso   1.000  O
  O24      1.0000 0.26730  0.29120  0.11325  Biso   1.000  O
  O25      1.0000 0.05000  0.93340  0.78010  Biso   1.000  O
  O26      1.0000 0.95000  0.06660  0.21990  Biso   1.000  O
  H37      1.0000 0.05440  0.86870  0.79700  Biso   1.000  H
  H38      1.0000 0.94560  0.13130  0.20300  Biso   1.000  H
  H39      1.0000 0.16260  0.92800  0.76770  Biso   1.000  H
  H40      1.0000 0.83740  0.07200  0.23230  Biso   1.000  H
  O27      1.0000 0.74510  0.03140  0.41730  Biso   1.000  O
  O28      1.0000 0.25490  0.96860  0.58270  Biso   1.000  O
  H41      1.0000 0.69450  0.99260  0.39110  Biso   1.000  H
  H42      1.0000 0.30550  0.00740  0.60890  Biso   1.000  H
  H43      1.0000 0.67890  0.03530  0.46380  Biso   1.000  H
  H44      1.0000 0.32110  0.96470  0.53620  Biso   1.000  H
