data_image0
_cell_length_a       10.825
_cell_length_b       11.059
_cell_length_c       29.01
_cell_angle_alpha    90
_cell_angle_beta     93.728
_cell_angle_gamma    90

_symmetry_space_group_name_H-M    "P 1"
_symmetry_int_tables_number       1

loop_
  _symmetry_equiv_pos_as_xyz
  'x, y, z'

loop_
  _atom_site_label
  _atom_site_occupancy
  _atom_site_fract_x
  _atom_site_fract_y
  _atom_site_fract_z
  _atom_site_thermal_displace_type
  _atom_site_B_iso_or_equiv
  _atom_site_type_symbol
  Cu1      1.0000 0.90112  0.87753  0.01950  Biso   1.000  Cu
  Cu2      1.0000 0.09888  0.87753  0.48050  Biso   1.000  Cu
  Cu3      1.0000 0.09888  0.12247  0.98050  Biso   1.000  Cu
  Cu4      1.0000 0.90112  0.12247  0.51950  Biso   1.000  Cu
  C1       1.0000 0.87600  0.65660  0.96091  Biso   1.000  C
  C2       1.0000 0.12400  0.65660  0.53909  Biso   1.000  C
  C3       1.0000 0.12400  0.34340  0.03909  Biso   1.000  C
  C4       1.0000 0.87600  0.34340  0.46091  Biso   1.000  C
  H1       1.0000 0.90220  0.61720  0.98810  Biso   1.000  H
  H2       1.0000 0.09780  0.61720  0.51190  Biso   1.000  H
  H3       1.0000 0.09780  0.38280  0.01190  Biso   1.000  H
  H4       1.0000 0.90220  0.38280  0.48810  Biso   1.000  H
  C5       1.0000 0.83610  0.58790  0.92339  Biso   1.000  C
  C6       1.0000 0.16390  0.58790  0.57661  Biso   1.000  C
  C7       1.0000 0.16390  0.41210  0.07661  Biso   1.000  C
  C8       1.0000 0.83610  0.41210  0.42339  Biso   1.000  C
  H5       1.0000 0.83490  0.50410  0.92550  Biso   1.000  H
  H6       1.0000 0.16510  0.50410  0.57450  Biso   1.000  H
  H7       1.0000 0.16510  0.49590  0.07450  Biso   1.000  H
  H8       1.0000 0.83490  0.49590  0.42550  Biso   1.000  H
  C9       1.0000 0.79790  0.64440  0.88239  Biso   1.000  C
  C10      1.0000 0.20210  0.64440  0.61761  Biso   1.000  C
  C11      1.0000 0.20210  0.35560  0.11761  Biso   1.000  C
  C12      1.0000 0.79790  0.35560  0.38239  Biso   1.000  C
  C13      1.0000 0.80400  0.76980  0.88120  Biso   1.000  C
  C14      1.0000 0.19600  0.76980  0.61880  Biso   1.000  C
  C15      1.0000 0.19600  0.23020  0.11880  Biso   1.000  C
  C16      1.0000 0.80400  0.23020  0.38120  Biso   1.000  C
  H9       1.0000 0.78070  0.81150  0.85420  Biso   1.000  H
  H10      1.0000 0.21930  0.81150  0.64580  Biso   1.000  H
  H11      1.0000 0.21930  0.18850  0.14580  Biso   1.000  H
  H12      1.0000 0.78070  0.18850  0.35420  Biso   1.000  H
  C17      1.0000 0.84470  0.83120  0.92013  Biso   1.000  C
  C18      1.0000 0.15530  0.83120  0.57987  Biso   1.000  C
  C19      1.0000 0.15530  0.16880  0.07987  Biso   1.000  C
  C20      1.0000 0.84470  0.16880  0.42013  Biso   1.000  C
  H13      1.0000 0.84870  0.91520  0.91870  Biso   1.000  H
  H14      1.0000 0.15130  0.91520  0.58130  Biso   1.000  H
  H15      1.0000 0.15130  0.08480  0.08130  Biso   1.000  H
  H16      1.0000 0.84870  0.08480  0.41870  Biso   1.000  H
  C21      1.0000 0.75280  0.57600  0.84020  Biso   1.000  C
  C22      1.0000 0.24720  0.57600  0.65980  Biso   1.000  C
  C23      1.0000 0.24720  0.42400  0.15980  Biso   1.000  C
  C24      1.0000 0.75280  0.42400  0.34020  Biso   1.000  C
  C25      1.0000 0.70700  0.40090  0.80393  Biso   1.000  C
  C26      1.0000 0.29300  0.40090  0.69607  Biso   1.000  C
  C27      1.0000 0.29300  0.59910  0.19607  Biso   1.000  C
  C28      1.0000 0.70700  0.59910  0.30393  Biso   1.000  C
  C29      1.0000 0.68340  0.57610  0.76584  Biso   1.000  C
  C30      1.0000 0.31660  0.57610  0.73416  Biso   1.000  C
  C31      1.0000 0.31660  0.42390  0.23416  Biso   1.000  C
  C32      1.0000 0.68340  0.42390  0.26584  Biso   1.000  C
  C33      1.0000 0.64550  0.64160  0.72261  Biso   1.000  C
  C34      1.0000 0.35450  0.64160  0.77739  Biso   1.000  C
  C35      1.0000 0.35450  0.35840  0.27739  Biso   1.000  C
  C36      1.0000 0.64550  0.35840  0.22261  Biso   1.000  C
  C37      1.0000 0.61580  0.57820  0.68193  Biso   1.000  C
  C38      1.0000 0.38420  0.57820  0.81807  Biso   1.000  C
  C39      1.0000 0.38420  0.42180  0.31807  Biso   1.000  C
  C40      1.0000 0.61580  0.42180  0.18193  Biso   1.000  C
  H17      1.0000 0.62090  0.49430  0.68130  Biso   1.000  H
  H18      1.0000 0.37910  0.49430  0.81870  Biso   1.000  H
  H19      1.0000 0.37910  0.50570  0.31870  Biso   1.000  H
  H20      1.0000 0.62090  0.50570  0.18130  Biso   1.000  H
  C41      1.0000 0.57890  0.64150  0.64294  Biso   1.000  C
  C42      1.0000 0.42110  0.64150  0.85706  Biso   1.000  C
  C43      1.0000 0.42110  0.35850  0.35706  Biso   1.000  C
  C44      1.0000 0.57890  0.35850  0.14294  Biso   1.000  C
  H21      1.0000 0.56080  0.59860  0.61580  Biso   1.000  H
  H22      1.0000 0.43920  0.59860  0.88420  Biso   1.000  H
  H23      1.0000 0.43920  0.40140  0.38420  Biso   1.000  H
  H24      1.0000 0.56080  0.40140  0.11580  Biso   1.000  H
  C45      1.0000 0.59760  0.81990  0.68100  Biso   1.000  C
  C46      1.0000 0.40240  0.81990  0.81900  Biso   1.000  C
  C47      1.0000 0.40240  0.18010  0.31900  Biso   1.000  C
  C48      1.0000 0.59760  0.18010  0.18100  Biso   1.000  C
  H25      1.0000 0.59220  0.90380  0.68060  Biso   1.000  H
  H26      1.0000 0.40780  0.90380  0.81940  Biso   1.000  H
  H27      1.0000 0.40780  0.09620  0.31940  Biso   1.000  H
  H28      1.0000 0.59220  0.09620  0.18060  Biso   1.000  H
  C49      1.0000 0.63610  0.76540  0.72189  Biso   1.000  C
  C50      1.0000 0.36390  0.76540  0.77811  Biso   1.000  C
  C51      1.0000 0.36390  0.23460  0.27811  Biso   1.000  C
  C52      1.0000 0.63610  0.23460  0.22189  Biso   1.000  C
  H29      1.0000 0.65510  0.81090  0.74830  Biso   1.000  H
  H30      1.0000 0.34490  0.81090  0.75170  Biso   1.000  H
  H31      1.0000 0.34490  0.18910  0.25170  Biso   1.000  H
  H32      1.0000 0.65510  0.18910  0.24830  Biso   1.000  H
  C53      1.0000 0.70050  0.26620  0.80285  Biso   1.000  C
  C54      1.0000 0.29950  0.26620  0.69715  Biso   1.000  C
  C55      1.0000 0.29950  0.73380  0.19715  Biso   1.000  C
  C56      1.0000 0.70050  0.73380  0.30285  Biso   1.000  C
  C57      1.0000 0.70050  0.19800  0.84205  Biso   1.000  C
  C58      1.0000 0.29950  0.19800  0.65795  Biso   1.000  C
  C59      1.0000 0.29950  0.80200  0.15795  Biso   1.000  C
  C60      1.0000 0.70050  0.80200  0.34205  Biso   1.000  C
  H33      1.0000 0.70600  0.23380  0.87110  Biso   1.000  H
  H34      1.0000 0.29400  0.23380  0.62890  Biso   1.000  H
  H35      1.0000 0.29400  0.76620  0.12890  Biso   1.000  H
  H36      1.0000 0.70600  0.76620  0.37110  Biso   1.000  H
  C61      1.0000 0.69200  0.07420  0.83712  Biso   1.000  C
  C62      1.0000 0.30800  0.07420  0.66288  Biso   1.000  C
  C63      1.0000 0.30800  0.92580  0.16288  Biso   1.000  C
  C64      1.0000 0.69200  0.92580  0.33712  Biso   1.000  C
  H37      1.0000 0.68940  0.02870  0.86400  Biso   1.000  H
  H38      1.0000 0.31060  0.02870  0.63600  Biso   1.000  H
  H39      1.0000 0.31060  0.97130  0.13600  Biso   1.000  H
  H40      1.0000 0.68940  0.97130  0.36400  Biso   1.000  H
  C65      1.0000 0.69290  0.08320  0.76070  Biso   1.000  C
  C66      1.0000 0.30710  0.08320  0.73930  Biso   1.000  C
  C67      1.0000 0.30710  0.91680  0.23930  Biso   1.000  C
  C68      1.0000 0.69290  0.91680  0.26070  Biso   1.000  C
  H41      1.0000 0.69330  0.04410  0.73230  Biso   1.000  H
  H42      1.0000 0.30670  0.04410  0.76770  Biso   1.000  H
  H43      1.0000 0.30670  0.95590  0.26770  Biso   1.000  H
  H44      1.0000 0.69330  0.95590  0.23230  Biso   1.000  H
  C69      1.0000 0.69800  0.20770  0.76072  Biso   1.000  C
  C70      1.0000 0.30200  0.20770  0.73928  Biso   1.000  C
  C71      1.0000 0.30200  0.79230  0.23928  Biso   1.000  C
  C72      1.0000 0.69800  0.79230  0.26072  Biso   1.000  C
  H45      1.0000 0.69980  0.25090  0.73330  Biso   1.000  H
  H46      1.0000 0.30020  0.25090  0.76670  Biso   1.000  H
  H47      1.0000 0.30020  0.74910  0.26670  Biso   1.000  H
  H48      1.0000 0.69980  0.74910  0.23330  Biso   1.000  H
  C73      1.0000 0.86870  0.06200  0.08960  Biso   1.000  C
  C74      1.0000 0.13130  0.06200  0.41040  Biso   1.000  C
  C75      1.0000 0.13130  0.93800  0.91040  Biso   1.000  C
  C76      1.0000 0.86870  0.93800  0.58960  Biso   1.000  C
  H49      1.0000 0.82560  0.10030  0.06490  Biso   1.000  H
  H50      1.0000 0.17440  0.10030  0.43510  Biso   1.000  H
  H51      1.0000 0.17440  0.89970  0.93510  Biso   1.000  H
  H52      1.0000 0.82560  0.89970  0.56490  Biso   1.000  H
  C77      1.0000 0.88540  0.12220  0.13052  Biso   1.000  C
  C78      1.0000 0.11460  0.12220  0.36948  Biso   1.000  C
  C79      1.0000 0.11460  0.87780  0.86948  Biso   1.000  C
  C80      1.0000 0.88540  0.87780  0.63052  Biso   1.000  C
  H53      1.0000 0.85760  0.20130  0.13310  Biso   1.000  H
  H54      1.0000 0.14240  0.20130  0.36690  Biso   1.000  H
  H55      1.0000 0.14240  0.79870  0.86690  Biso   1.000  H
  H56      1.0000 0.85760  0.79870  0.63310  Biso   1.000  H
  C81      1.0000 0.94390  0.06500  0.16815  Biso   1.000  C
  C82      1.0000 0.05610  0.06500  0.33185  Biso   1.000  C
  C83      1.0000 0.05610  0.93500  0.83185  Biso   1.000  C
  C84      1.0000 0.94390  0.93500  0.66815  Biso   1.000  C
  C85      1.0000 0.98110  0.94600  0.16294  Biso   1.000  C
  C86      1.0000 0.01890  0.94600  0.33706  Biso   1.000  C
  C87      1.0000 0.01890  0.05400  0.83706  Biso   1.000  C
  C88      1.0000 0.98110  0.05400  0.66294  Biso   1.000  C
  H57      1.0000 0.01600  0.90270  0.18800  Biso   1.000  H
  H58      1.0000 0.98400  0.90270  0.31200  Biso   1.000  H
  H59      1.0000 0.98400  0.09730  0.81200  Biso   1.000  H
  H60      1.0000 0.01600  0.09730  0.68800  Biso   1.000  H
  C89      1.0000 0.96570  0.89350  0.12019  Biso   1.000  C
  C90      1.0000 0.03430  0.89350  0.37981  Biso   1.000  C
  C91      1.0000 0.03430  0.10650  0.87981  Biso   1.000  C
  C92      1.0000 0.96570  0.10650  0.62019  Biso   1.000  C
  H61      1.0000 0.99390  0.81490  0.11650  Biso   1.000  H
  H62      1.0000 0.00610  0.81490  0.38350  Biso   1.000  H
  H63      1.0000 0.00610  0.18510  0.88350  Biso   1.000  H
  H64      1.0000 0.99390  0.18510  0.61650  Biso   1.000  H
  C93      1.0000 0.97140  0.13030  0.21210  Biso   1.000  C
  C94      1.0000 0.02860  0.13030  0.28790  Biso   1.000  C
  C95      1.0000 0.02860  0.86970  0.78790  Biso   1.000  C
  C96      1.0000 0.97140  0.86970  0.71210  Biso   1.000  C
  C97      1.0000 0.00000  0.30650  0.25000  Biso   1.000  C
  C98      1.0000 0.00000  0.69350  0.75000  Biso   1.000  C
  C99      1.0000 0.00000  0.44030  0.25000  Biso   1.000  C
  C100     1.0000 0.00000  0.55970  0.75000  Biso   1.000  C
  C101     1.0000 0.96310  0.50410  0.21088  Biso   1.000  C
  C102     1.0000 0.03690  0.50410  0.28912  Biso   1.000  C
  C103     1.0000 0.03690  0.49590  0.78912  Biso   1.000  C
  C104     1.0000 0.96310  0.49590  0.71088  Biso   1.000  C
  H65      1.0000 0.93780  0.46400  0.18370  Biso   1.000  H
  H66      1.0000 0.06220  0.46400  0.31630  Biso   1.000  H
  H67      1.0000 0.06220  0.53600  0.81630  Biso   1.000  H
  H68      1.0000 0.93780  0.53600  0.68370  Biso   1.000  H
  C105     1.0000 0.96420  0.62860  0.21270  Biso   1.000  C
  C106     1.0000 0.03580  0.62860  0.28730  Biso   1.000  C
  C107     1.0000 0.03580  0.37140  0.78730  Biso   1.000  C
  C108     1.0000 0.96420  0.37140  0.71270  Biso   1.000  C
  H69      1.0000 0.93810  0.67090  0.18620  Biso   1.000  H
  H70      1.0000 0.06190  0.67090  0.31380  Biso   1.000  H
  H71      1.0000 0.06190  0.32910  0.81380  Biso   1.000  H
  H72      1.0000 0.93810  0.32910  0.68620  Biso   1.000  H
  C109     1.0000 0.67360  0.79770  0.03482  Biso   1.000  C
  C110     1.0000 0.32640  0.79770  0.46518  Biso   1.000  C
  C111     1.0000 0.32640  0.20230  0.96518  Biso   1.000  C
  C112     1.0000 0.67360  0.20230  0.53482  Biso   1.000  C
  C113     1.0000 0.53430  0.79920  0.03229  Biso   1.000  C
  C114     1.0000 0.46570  0.79920  0.46771  Biso   1.000  C
  C115     1.0000 0.46570  0.20080  0.96771  Biso   1.000  C
  C116     1.0000 0.53430  0.20080  0.53229  Biso   1.000  C
  C117     1.0000 0.46940  0.70800  0.00896  Biso   1.000  C
  C118     1.0000 0.53060  0.70800  0.49104  Biso   1.000  C
  C119     1.0000 0.53060  0.29200  0.99104  Biso   1.000  C
  C120     1.0000 0.46940  0.29200  0.50896  Biso   1.000  C
  H73      1.0000 0.51290  0.64510  0.99620  Biso   1.000  H
  H74      1.0000 0.48710  0.64510  0.50380  Biso   1.000  H
  H75      1.0000 0.48710  0.35490  0.00380  Biso   1.000  H
  H76      1.0000 0.51290  0.35490  0.49620  Biso   1.000  H
  C121     1.0000 0.34090  0.70780  0.00397  Biso   1.000  C
  C122     1.0000 0.65910  0.70780  0.49603  Biso   1.000  C
  C123     1.0000 0.65910  0.29220  0.99603  Biso   1.000  C
  C124     1.0000 0.34090  0.29220  0.50397  Biso   1.000  C
  C125     1.0000 0.27450  0.80240  0.02264  Biso   1.000  C
  C126     1.0000 0.72550  0.80240  0.47736  Biso   1.000  C
  C127     1.0000 0.72550  0.19760  0.97736  Biso   1.000  C
  C128     1.0000 0.27450  0.19760  0.52264  Biso   1.000  C
  C129     1.0000 0.34090  0.89670  0.04383  Biso   1.000  C
  C130     1.0000 0.65910  0.89670  0.45617  Biso   1.000  C
  C131     1.0000 0.65910  0.10330  0.95617  Biso   1.000  C
  C132     1.0000 0.34090  0.10330  0.54383  Biso   1.000  C
  H77      1.0000 0.29800  0.96310  0.05430  Biso   1.000  H
  H78      1.0000 0.70200  0.96310  0.44570  Biso   1.000  H
  H79      1.0000 0.70200  0.03690  0.94570  Biso   1.000  H
  H80      1.0000 0.29800  0.03690  0.55430  Biso   1.000  H
  C133     1.0000 0.46820  0.89510  0.04991  Biso   1.000  C
  C134     1.0000 0.53180  0.89510  0.45009  Biso   1.000  C
  C135     1.0000 0.53180  0.10490  0.95009  Biso   1.000  C
  C136     1.0000 0.46820  0.10490  0.54991  Biso   1.000  C
  C137     1.0000 0.53210  0.98810  0.08035  Biso   1.000  C
  C138     1.0000 0.46790  0.98810  0.41965  Biso   1.000  C
  C139     1.0000 0.46790  0.01190  0.91965  Biso   1.000  C
  C140     1.0000 0.53210  0.01190  0.58035  Biso   1.000  C
  C141     1.0000 0.13650  0.80190  0.02593  Biso   1.000  C
  C142     1.0000 0.86350  0.80190  0.47407  Biso   1.000  C
  C143     1.0000 0.86350  0.19810  0.97407  Biso   1.000  C
  C144     1.0000 0.13650  0.19810  0.52593  Biso   1.000  C
  C145     1.0000 0.27720  0.61050  0.97640  Biso   1.000  C
  C146     1.0000 0.72280  0.61050  0.52360  Biso   1.000  C
  C147     1.0000 0.72280  0.38950  0.02360  Biso   1.000  C
  C148     1.0000 0.27720  0.38950  0.47640  Biso   1.000  C
  N1       1.0000 0.87890  0.77690  0.96012  Biso   1.000  N
  N2       1.0000 0.12110  0.77690  0.53988  Biso   1.000  N
  N3       1.0000 0.12110  0.22310  0.03988  Biso   1.000  N
  N4       1.0000 0.87890  0.22310  0.46012  Biso   1.000  N
  N5       1.0000 0.74550  0.45520  0.84349  Biso   1.000  N
  N6       1.0000 0.25450  0.45520  0.65651  Biso   1.000  N
  N7       1.0000 0.25450  0.54480  0.15651  Biso   1.000  N
  N8       1.0000 0.74550  0.54480  0.34349  Biso   1.000  N
  N9       1.0000 0.67470  0.45610  0.76458  Biso   1.000  N
  N10      1.0000 0.32530  0.45610  0.73542  Biso   1.000  N
  N11      1.0000 0.32530  0.54390  0.23542  Biso   1.000  N
  N12      1.0000 0.67470  0.54390  0.26458  Biso   1.000  N
  N13      1.0000 0.72250  0.63980  0.80259  Biso   1.000  N
  N14      1.0000 0.27750  0.63980  0.69741  Biso   1.000  N
  N15      1.0000 0.27750  0.36020  0.19741  Biso   1.000  N
  N16      1.0000 0.72250  0.36020  0.30259  Biso   1.000  N
  N17      1.0000 0.56750  0.76130  0.64182  Biso   1.000  N
  N18      1.0000 0.43250  0.76130  0.85818  Biso   1.000  N
  N19      1.0000 0.43250  0.23870  0.35818  Biso   1.000  N
  N20      1.0000 0.56750  0.23870  0.14182  Biso   1.000  N
  N21      1.0000 0.68740  0.01520  0.79793  Biso   1.000  N
  N22      1.0000 0.31260  0.01520  0.70207  Biso   1.000  N
  N23      1.0000 0.31260  0.98480  0.20207  Biso   1.000  N
  N24      1.0000 0.68740  0.98480  0.29793  Biso   1.000  N
  N25      1.0000 0.91150  0.95060  0.08349  Biso   1.000  N
  N26      1.0000 0.08850  0.95060  0.41651  Biso   1.000  N
  N27      1.0000 0.08850  0.04940  0.91651  Biso   1.000  N
  N28      1.0000 0.91150  0.04940  0.58349  Biso   1.000  N
  N29      1.0000 0.96760  0.25090  0.21020  Biso   1.000  N
  N30      1.0000 0.03240  0.25090  0.28980  Biso   1.000  N
  N31      1.0000 0.03240  0.74910  0.78980  Biso   1.000  N
  N32      1.0000 0.96760  0.74910  0.71020  Biso   1.000  N
  N33      1.0000 0.00000  0.06580  0.25000  Biso   1.000  N
  N34      1.0000 0.00000  0.93420  0.75000  Biso   1.000  N
  N35      1.0000 0.00000  0.69200  0.25000  Biso   1.000  N
  N36      1.0000 0.00000  0.30800  0.75000  Biso   1.000  N
  O1       1.0000 0.72410  0.88910  0.01850  Biso   1.000  O
  O2       1.0000 0.27590  0.88910  0.48150  Biso   1.000  O
  O3       1.0000 0.27590  0.11090  0.98150  Biso   1.000  O
  O4       1.0000 0.72410  0.11090  0.51850  Biso   1.000  O
  O5       1.0000 0.73220  0.70960  0.05046  Biso   1.000  O
  O6       1.0000 0.26780  0.70960  0.44954  Biso   1.000  O
  O7       1.0000 0.26780  0.29040  0.94954  Biso   1.000  O
  O8       1.0000 0.73220  0.29040  0.55046  Biso   1.000  O
  O9       1.0000 0.61540  0.96140  0.10847  Biso   1.000  O
  O10      1.0000 0.38460  0.96140  0.39153  Biso   1.000  O
  O11      1.0000 0.38460  0.03860  0.89153  Biso   1.000  O
  O12      1.0000 0.61540  0.03860  0.60847  Biso   1.000  O
  O13      1.0000 0.48200  0.09430  0.07553  Biso   1.000  O
  O14      1.0000 0.51800  0.09430  0.42447  Biso   1.000  O
  O15      1.0000 0.51800  0.90570  0.92447  Biso   1.000  O
  O16      1.0000 0.48200  0.90570  0.57553  Biso   1.000  O
  H81      1.0000 0.50990  0.13880  0.09630  Biso   1.000  H
  H82      1.0000 0.49010  0.13880  0.40370  Biso   1.000  H
  H83      1.0000 0.49010  0.86120  0.90370  Biso   1.000  H
  H84      1.0000 0.50990  0.86120  0.59630  Biso   1.000  H
  O17      1.0000 0.07950  0.89940  0.01459  Biso   1.000  O
  O18      1.0000 0.92050  0.89940  0.48541  Biso   1.000  O
  O19      1.0000 0.92050  0.10060  0.98541  Biso   1.000  O
  O20      1.0000 0.07950  0.10060  0.51459  Biso   1.000  O
  O21      1.0000 0.08540  0.71260  0.04111  Biso   1.000  O
  O22      1.0000 0.91460  0.71260  0.45889  Biso   1.000  O
  O23      1.0000 0.91460  0.28740  0.95889  Biso   1.000  O
  O24      1.0000 0.08540  0.28740  0.54111  Biso   1.000  O
  O25      1.0000 0.18210  0.62820  0.95244  Biso   1.000  O
  O26      1.0000 0.81790  0.62820  0.54756  Biso   1.000  O
  O27      1.0000 0.81790  0.37180  0.04756  Biso   1.000  O
  O28      1.0000 0.18210  0.37180  0.45244  Biso   1.000  O
  O29      1.0000 0.33410  0.50950  0.97980  Biso   1.000  O
  O30      1.0000 0.66590  0.50950  0.52020  Biso   1.000  O
  O31      1.0000 0.66590  0.49050  0.02020  Biso   1.000  O
  O32      1.0000 0.33410  0.49050  0.47980  Biso   1.000  O
  H85      1.0000 0.29360  0.45760  0.96530  Biso   1.000  H
  H86      1.0000 0.70640  0.45760  0.53470  Biso   1.000  H
  H87      1.0000 0.70640  0.54240  0.03470  Biso   1.000  H
  H88      1.0000 0.29360  0.54240  0.46530  Biso   1.000  H
  O33      1.0000 0.08040  0.43410  0.90320  Biso   1.000  O
  O34      1.0000 0.91960  0.43410  0.59680  Biso   1.000  O
  O35      1.0000 0.91960  0.56590  0.09680  Biso   1.000  O
  O36      1.0000 0.08040  0.56590  0.40320  Biso   1.000  O
  H89      1.0000 0.13940  0.43710  0.88530  Biso   1.000  H
  H90      1.0000 0.86060  0.43710  0.61470  Biso   1.000  H
  H91      1.0000 0.86060  0.56290  0.11470  Biso   1.000  H
  H92      1.0000 0.13940  0.56290  0.38530  Biso   1.000  H
  H93      1.0000 0.15890  0.42950  0.90420  Biso   1.000  H
  H94      1.0000 0.84110  0.42950  0.59580  Biso   1.000  H
  H95      1.0000 0.84110  0.57050  0.09580  Biso   1.000  H
  H96      1.0000 0.15890  0.57050  0.40420  Biso   1.000  H
  O37      1.0000 0.66200  0.71320  0.14756  Biso   1.000  O
  O38      1.0000 0.33800  0.71320  0.35244  Biso   1.000  O
  O39      1.0000 0.33800  0.28680  0.85244  Biso   1.000  O
  O40      1.0000 0.66200  0.28680  0.64756  Biso   1.000  O
  H97      1.0000 0.73340  0.68140  0.15120  Biso   1.000  H
  H98      1.0000 0.26660  0.68140  0.34880  Biso   1.000  H
  H99      1.0000 0.26660  0.31860  0.84880  Biso   1.000  H
  H100     1.0000 0.73340  0.31860  0.65120  Biso   1.000  H
  H101     1.0000 0.69610  0.78240  0.14980  Biso   1.000  H
  H102     1.0000 0.30390  0.78240  0.35020  Biso   1.000  H
  H103     1.0000 0.30390  0.21760  0.85020  Biso   1.000  H
  H104     1.0000 0.69610  0.21760  0.64980  Biso   1.000  H
