data_image0
_cell_length_a       14.179
_cell_length_b       14.399
_cell_length_c       15.965
_cell_angle_alpha    111.376
_cell_angle_beta     113.923
_cell_angle_gamma    94.462

_symmetry_space_group_name_H-M    "P 1"
_symmetry_int_tables_number       1

loop_
  _symmetry_equiv_pos_as_xyz
  'x, y, z'

loop_
  _atom_site_label
  _atom_site_occupancy
  _atom_site_fract_x
  _atom_site_fract_y
  _atom_site_fract_z
  _atom_site_thermal_displace_type
  _atom_site_B_iso_or_equiv
  _atom_site_type_symbol
  Cu1      1.0000 0.00758  0.67660  0.00544  Biso   1.000  Cu
  Cu2      1.0000 0.99242  0.32340  0.99456  Biso   1.000  Cu
  Cu3      1.0000 0.52943  0.61966  0.49978  Biso   1.000  Cu
  Cu4      1.0000 0.47057  0.38034  0.50022  Biso   1.000  Cu
  Cu5      1.0000 0.02627  0.12167  0.49901  Biso   1.000  Cu
  Cu6      1.0000 0.97373  0.87833  0.50099  Biso   1.000  Cu
  C1       1.0000 0.87280  0.58510  0.78290  Biso   1.000  C
  C2       1.0000 0.12720  0.41490  0.21710  Biso   1.000  C
  C3       1.0000 0.87090  0.51960  0.68500  Biso   1.000  C
  C4       1.0000 0.12910  0.48040  0.31500  Biso   1.000  C
  C5       1.0000 0.80020  0.51640  0.59240  Biso   1.000  C
  C6       1.0000 0.19980  0.48360  0.40760  Biso   1.000  C
  C7       1.0000 0.80840  0.46150  0.50660  Biso   1.000  C
  C8       1.0000 0.19160  0.53850  0.49340  Biso   1.000  C
  H1       1.0000 0.76250  0.46220  0.44570  Biso   1.000  H
  H2       1.0000 0.23750  0.53780  0.55430  Biso   1.000  H
  C9       1.0000 0.88390  0.40430  0.50780  Biso   1.000  C
  C10      1.0000 0.11610  0.59570  0.49220  Biso   1.000  C
  C11      1.0000 0.95220  0.40340  0.59920  Biso   1.000  C
  C12      1.0000 0.04780  0.59660  0.40080  Biso   1.000  C
  C13      1.0000 0.94570  0.46160  0.68490  Biso   1.000  C
  C14      1.0000 0.05430  0.53840  0.31510  Biso   1.000  C
  H3       1.0000 0.99340  0.46290  0.74630  Biso   1.000  H
  H4       1.0000 0.00660  0.53710  0.25370  Biso   1.000  H
  C15      1.0000 0.71710  0.57800  0.58150  Biso   1.000  C
  C16      1.0000 0.28290  0.42200  0.41850  Biso   1.000  C
  C17      1.0000 0.89030  0.34920  0.41140  Biso   1.000  C
  C18      1.0000 0.10970  0.65080  0.58860  Biso   1.000  C
  C19      1.0000 0.02810  0.33500  0.60580  Biso   1.000  C
  C20      1.0000 0.97190  0.66500  0.39420  Biso   1.000  C
  C21      1.0000 0.44230  0.70290  0.63720  Biso   1.000  C
  C22      1.0000 0.55770  0.29710  0.36280  Biso   1.000  C
  H5       1.0000 0.37960  0.67190  0.57570  Biso   1.000  H
  H6       1.0000 0.62040  0.32810  0.42430  Biso   1.000  H
  C23      1.0000 0.43410  0.74970  0.72530  Biso   1.000  C
  C24      1.0000 0.56590  0.25030  0.27470  Biso   1.000  C
  H7       1.0000 0.36770  0.74790  0.72370  Biso   1.000  H
  H8       1.0000 0.63230  0.25210  0.27630  Biso   1.000  H
  C25      1.0000 0.52770  0.79950  0.81610  Biso   1.000  C
  C26      1.0000 0.47230  0.20050  0.18390  Biso   1.000  C
  C27      1.0000 0.62470  0.80130  0.81510  Biso   1.000  C
  C28      1.0000 0.37530  0.19870  0.18490  Biso   1.000  C
  H9       1.0000 0.68850  0.83710  0.87500  Biso   1.000  H
  H10      1.0000 0.31150  0.16290  0.12500  Biso   1.000  H
  C29      1.0000 0.62520  0.74900  0.72350  Biso   1.000  C
  C30      1.0000 0.37480  0.25100  0.27650  Biso   1.000  C
  H11      1.0000 0.69070  0.74830  0.72330  Biso   1.000  H
  H12      1.0000 0.30930  0.25170  0.27670  Biso   1.000  H
  C31      1.0000 0.52420  0.84650  0.91490  Biso   1.000  C
  C32      1.0000 0.47580  0.15350  0.08510  Biso   1.000  C
  C33      1.0000 0.42830  0.86150  0.00020  Biso   1.000  C
  C34      1.0000 0.57170  0.13850  0.99980  Biso   1.000  C
  C35      1.0000 0.60430  0.93820  0.08370  Biso   1.000  C
  C36      1.0000 0.39570  0.06180  0.91630  Biso   1.000  C
  C37      1.0000 0.32670  0.83030  0.00100  Biso   1.000  C
  C38      1.0000 0.67330  0.16970  0.99900  Biso   1.000  C
  C39      1.0000 0.23640  0.76420  0.91350  Biso   1.000  C
  C40      1.0000 0.76360  0.23580  0.08650  Biso   1.000  C
  H13      1.0000 0.23590  0.74460  0.85100  Biso   1.000  H
  H14      1.0000 0.76410  0.25540  0.14900  Biso   1.000  H
  C41      1.0000 0.14710  0.72710  0.91710  Biso   1.000  C
  C42      1.0000 0.85290  0.27290  0.08290  Biso   1.000  C
  H15      1.0000 0.08790  0.68170  0.85630  Biso   1.000  H
  H16      1.0000 0.91210  0.31830  0.14370  Biso   1.000  H
  C43      1.0000 0.22750  0.81950  0.08880  Biso   1.000  C
  C44      1.0000 0.77250  0.18050  0.91120  Biso   1.000  C
  H17      1.0000 0.22570  0.83980  0.15040  Biso   1.000  H
  H18      1.0000 0.77430  0.16020  0.84960  Biso   1.000  H
  C45      1.0000 0.31950  0.85940  0.08910  Biso   1.000  C
  C46      1.0000 0.68050  0.14060  0.91090  Biso   1.000  C
  H19      1.0000 0.37720  0.90680  0.15010  Biso   1.000  H
  H20      1.0000 0.62280  0.09320  0.84990  Biso   1.000  H
  C47      1.0000 0.70500  0.99460  0.18180  Biso   1.000  C
  C48      1.0000 0.29500  0.00540  0.81820  Biso   1.000  C
  C49      1.0000 0.70430  0.04020  0.27440  Biso   1.000  C
  C50      1.0000 0.29570  0.95980  0.72560  Biso   1.000  C
  H21      1.0000 0.64000  0.04340  0.27630  Biso   1.000  H
  H22      1.0000 0.36000  0.95660  0.72370  Biso   1.000  H
  C51      1.0000 0.79960  0.08080  0.36360  Biso   1.000  C
  C52      1.0000 0.20040  0.91920  0.63640  Biso   1.000  C
  H23      1.0000 0.79830  0.11090  0.42540  Biso   1.000  H
  H24      1.0000 0.20170  0.88910  0.57460  Biso   1.000  H
  C53      1.0000 0.89550  0.03810  0.27520  Biso   1.000  C
  C54      1.0000 0.10450  0.96190  0.72480  Biso   1.000  C
  H25      1.0000 0.96120  0.03670  0.27570  Biso   1.000  H
  H26      1.0000 0.03880  0.96330  0.72430  Biso   1.000  H
  C55      1.0000 0.80330  0.99880  0.18220  Biso   1.000  C
  C56      1.0000 0.19670  0.00120  0.81780  Biso   1.000  C
  H27      1.0000 0.80740  0.97580  0.12150  Biso   1.000  H
  H28      1.0000 0.19260  0.02420  0.87850  Biso   1.000  H
  C57      1.0000 0.09130  0.80920  0.22590  Biso   1.000  C
  C58      1.0000 0.90870  0.19080  0.77410  Biso   1.000  C
  C59      1.0000 0.18880  0.84580  0.32650  Biso   1.000  C
  C60      1.0000 0.81120  0.15420  0.67350  Biso   1.000  C
  C61      1.0000 0.20580  0.93810  0.40830  Biso   1.000  C
  C62      1.0000 0.79420  0.06190  0.59170  Biso   1.000  C
  C63      1.0000 0.30270  0.97590  0.49570  Biso   1.000  C
  C64      1.0000 0.69730  0.02410  0.50430  Biso   1.000  C
  H29      1.0000 0.31510  0.03860  0.54910  Biso   1.000  H
  H30      1.0000 0.68490  0.96140  0.45090  Biso   1.000  H
  C65      1.0000 0.38270  0.92440  0.50720  Biso   1.000  C
  C66      1.0000 0.61730  0.07560  0.49280  Biso   1.000  C
  C67      1.0000 0.36400  0.83050  0.42780  Biso   1.000  C
  C68      1.0000 0.63600  0.16950  0.57220  Biso   1.000  C
  C69      1.0000 0.26750  0.79270  0.33940  Biso   1.000  C
  C70      1.0000 0.73250  0.20730  0.66060  Biso   1.000  C
  H31      1.0000 0.25480  0.72940  0.28660  Biso   1.000  H
  H32      1.0000 0.74520  0.27060  0.71340  Biso   1.000  H
  C71      1.0000 0.44720  0.76950  0.43480  Biso   1.000  C
  C72      1.0000 0.55280  0.23050  0.56520  Biso   1.000  C
  C73      1.0000 0.48460  0.96890  0.60690  Biso   1.000  C
  C74      1.0000 0.51540  0.03110  0.39310  Biso   1.000  C
  C75      1.0000 0.13060  0.00600  0.41100  Biso   1.000  C
  C76      1.0000 0.86940  0.99400  0.58900  Biso   1.000  C
  C77      1.0000 0.16500  0.18500  0.71580  Biso   1.000  C
  C78      1.0000 0.83500  0.81500  0.28420  Biso   1.000  C
  H33      1.0000 0.10060  0.16220  0.71370  Biso   1.000  H
  H34      1.0000 0.89940  0.83780  0.28630  Biso   1.000  H
  C79      1.0000 0.25560  0.23010  0.80850  Biso   1.000  C
  C80      1.0000 0.74440  0.76990  0.19150  Biso   1.000  C
  H35      1.0000 0.25240  0.23710  0.86750  Biso   1.000  H
  H36      1.0000 0.74760  0.76290  0.13250  Biso   1.000  H
  C81      1.0000 0.35220  0.26500  0.81230  Biso   1.000  C
  C82      1.0000 0.64780  0.73500  0.18770  Biso   1.000  C
  C83      1.0000 0.35270  0.24910  0.72120  Biso   1.000  C
  C84      1.0000 0.64730  0.75090  0.27880  Biso   1.000  C
  H37      1.0000 0.41670  0.26810  0.72090  Biso   1.000  H
  H38      1.0000 0.58330  0.73190  0.27910  Biso   1.000  H
  C85      1.0000 0.25960  0.20560  0.63250  Biso   1.000  C
  C86      1.0000 0.74040  0.79440  0.36750  Biso   1.000  C
  H39      1.0000 0.26100  0.19850  0.57280  Biso   1.000  H
  H40      1.0000 0.73900  0.80150  0.42720  Biso   1.000  H
  C87      1.0000 0.45130  0.32280  0.91050  Biso   1.000  C
  C88      1.0000 0.54870  0.67720  0.08950  Biso   1.000  C
  C89      1.0000 0.62490  0.41370  0.99600  Biso   1.000  C
  C90      1.0000 0.37510  0.58630  0.00400  Biso   1.000  C
  C91      1.0000 0.53100  0.41140  0.08040  Biso   1.000  C
  C92      1.0000 0.46900  0.58860  0.91960  Biso   1.000  C
  C93      1.0000 0.52860  0.45410  0.17980  Biso   1.000  C
  C94      1.0000 0.47140  0.54590  0.82020  Biso   1.000  C
  C95      1.0000 0.43480  0.43800  0.18740  Biso   1.000  C
  C96      1.0000 0.56520  0.56200  0.81260  Biso   1.000  C
  H41      1.0000 0.37120  0.39460  0.13020  Biso   1.000  H
  H42      1.0000 0.62880  0.60540  0.86980  Biso   1.000  H
  C97      1.0000 0.43730  0.48670  0.28010  Biso   1.000  C
  C98      1.0000 0.56270  0.51330  0.71990  Biso   1.000  C
  H43      1.0000 0.37420  0.47580  0.28440  Biso   1.000  H
  H44      1.0000 0.62580  0.52420  0.71560  Biso   1.000  H
  C99      1.0000 0.61820  0.56400  0.35820  Biso   1.000  C
  C100     1.0000 0.38180  0.43600  0.64180  Biso   1.000  C
  H45      1.0000 0.68100  0.60700  0.41660  Biso   1.000  H
  H46      1.0000 0.31900  0.39300  0.58340  Biso   1.000  H
  C101     1.0000 0.62250  0.51700  0.26700  Biso   1.000  C
  C102     1.0000 0.37750  0.48300  0.73300  Biso   1.000  C
  H47      1.0000 0.68680  0.52760  0.26480  Biso   1.000  H
  H48      1.0000 0.31320  0.47240  0.73520  Biso   1.000  H
  C103     1.0000 0.72310  0.46020  0.99930  Biso   1.000  C
  C104     1.0000 0.27690  0.53980  0.00070  Biso   1.000  C
  C105     1.0000 0.79810  0.54110  0.08720  Biso   1.000  C
  C106     1.0000 0.20190  0.45890  0.91280  Biso   1.000  C
  H49      1.0000 0.79180  0.56120  0.14660  Biso   1.000  H
  H50      1.0000 0.20820  0.43880  0.85340  Biso   1.000  H
  C107     1.0000 0.88390  0.59270  0.08600  Biso   1.000  C
  C108     1.0000 0.11610  0.40730  0.91400  Biso   1.000  C
  H51      1.0000 0.93360  0.64860  0.14600  Biso   1.000  H
  H52      1.0000 0.06640  0.35140  0.85400  Biso   1.000  H
  C109     1.0000 0.82970  0.48380  0.92050  Biso   1.000  C
  C110     1.0000 0.17030  0.51620  0.07950  Biso   1.000  C
  H53      1.0000 0.84180  0.46150  0.86420  Biso   1.000  H
  H54      1.0000 0.15820  0.53850  0.13580  Biso   1.000  H
  C111     1.0000 0.74000  0.42930  0.91360  Biso   1.000  C
  C112     1.0000 0.26000  0.57070  0.08640  Biso   1.000  C
  H55      1.0000 0.69170  0.37300  0.85310  Biso   1.000  H
  H56      1.0000 0.30830  0.62700  0.14690  Biso   1.000  H
  N1       1.0000 0.53530  0.69950  0.63520  Biso   1.000  N
  N2       1.0000 0.46470  0.30050  0.36480  Biso   1.000  N
  N3       1.0000 0.42920  0.82230  0.91090  Biso   1.000  N
  N4       1.0000 0.57080  0.17770  0.08910  Biso   1.000  N
  N5       1.0000 0.51450  0.91990  0.08950  Biso   1.000  N
  N6       1.0000 0.48550  0.08010  0.91050  Biso   1.000  N
  N7       1.0000 0.61430  0.90550  0.99940  Biso   1.000  N
  N8       1.0000 0.38570  0.09450  0.00060  Biso   1.000  N
  N9       1.0000 0.14060  0.75250  0.00340  Biso   1.000  N
  N10      1.0000 0.85940  0.24750  0.99660  Biso   1.000  N
  N11      1.0000 0.89300  0.07790  0.36360  Biso   1.000  N
  N12      1.0000 0.10700  0.92210  0.63640  Biso   1.000  N
  N13      1.0000 0.16470  0.17230  0.62800  Biso   1.000  N
  N14      1.0000 0.83530  0.82770  0.37200  Biso   1.000  N
  N15      1.0000 0.54020  0.35280  0.90620  Biso   1.000  N
  N16      1.0000 0.45980  0.64720  0.09380  Biso   1.000  N
  N17      1.0000 0.44160  0.34910  0.99580  Biso   1.000  N
  N18      1.0000 0.55840  0.65090  0.00420  Biso   1.000  N
  N19      1.0000 0.62300  0.44490  0.08420  Biso   1.000  N
  N20      1.0000 0.37700  0.55510  0.91580  Biso   1.000  N
  N21      1.0000 0.52780  0.55010  0.36580  Biso   1.000  N
  N22      1.0000 0.47220  0.44990  0.63420  Biso   1.000  N
  N23      1.0000 0.90030  0.56790  0.00540  Biso   1.000  N
  N24      1.0000 0.09970  0.43210  0.99460  Biso   1.000  N
  O1       1.0000 0.95520  0.59350  0.86360  Biso   1.000  O
  O2       1.0000 0.04480  0.40650  0.13640  Biso   1.000  O
  O3       1.0000 0.80130  0.62750  0.78310  Biso   1.000  O
  O4       1.0000 0.19870  0.37250  0.21690  Biso   1.000  O
  O5       1.0000 0.74380  0.66880  0.59430  Biso   1.000  O
  O6       1.0000 0.25620  0.33120  0.40570  Biso   1.000  O
  O7       1.0000 0.62040  0.53140  0.54730  Biso   1.000  O
  O8       1.0000 0.37960  0.46860  0.45270  Biso   1.000  O
  O9       1.0000 0.81560  0.31070  0.32920  Biso   1.000  O
  O10      1.0000 0.18440  0.68930  0.67080  Biso   1.000  O
  O11      1.0000 0.98900  0.34780  0.42750  Biso   1.000  O
  O12      1.0000 0.01100  0.65220  0.57250  Biso   1.000  O
  H57      1.0000 0.98820  0.31190  0.37380  Biso   1.000  H
  H58      1.0000 0.01180  0.68810  0.62620  Biso   1.000  H
  O13      1.0000 0.97880  0.23980  0.55000  Biso   1.000  O
  O14      1.0000 0.02120  0.76020  0.45000  Biso   1.000  O
  O15      1.0000 0.12420  0.37250  0.66280  Biso   1.000  O
  O16      1.0000 0.87580  0.62750  0.33720  Biso   1.000  O
  O17      1.0000 0.09150  0.73260  0.15280  Biso   1.000  O
  O18      1.0000 0.90850  0.26740  0.84720  Biso   1.000  O
  O19      1.0000 0.02000  0.85510  0.21800  Biso   1.000  O
  O20      1.0000 0.98000  0.14490  0.78200  Biso   1.000  O
  O21      1.0000 0.06700  0.99120  0.44650  Biso   1.000  O
  O22      1.0000 0.93300  0.00880  0.55350  Biso   1.000  O
  O23      1.0000 0.14140  0.08000  0.39030  Biso   1.000  O
  O24      1.0000 0.85860  0.92000  0.60970  Biso   1.000  O
  O25      1.0000 0.51810  0.07170  0.65840  Biso   1.000  O
  O26      1.0000 0.48190  0.92830  0.34160  Biso   1.000  O
  H59      1.0000 0.49120  0.09790  0.61950  Biso   1.000  H
  H60      1.0000 0.50880  0.90210  0.38050  Biso   1.000  H
  O27      1.0000 0.53350  0.91700  0.64070  Biso   1.000  O
  O28      1.0000 0.46650  0.08300  0.35930  Biso   1.000  O
  O29      1.0000 0.52660  0.80190  0.42820  Biso   1.000  O
  O30      1.0000 0.47340  0.19810  0.57180  Biso   1.000  O
  O31      1.0000 0.42650  0.68980  0.44530  Biso   1.000  O
  O32      1.0000 0.57350  0.31020  0.55470  Biso   1.000  O
  O33      1.0000 0.90250  0.78170  0.00220  Biso   1.000  O
  O34      1.0000 0.09750  0.21830  0.99780  Biso   1.000  O
  H61      1.0000 0.93770  0.84050  0.04570  Biso   1.000  H
  H62      1.0000 0.06230  0.15950  0.95430  Biso   1.000  H
  H63      1.0000 0.89030  0.77070  0.94210  Biso   1.000  H
  H64      1.0000 0.10970  0.22930  0.05790  Biso   1.000  H
  O35      1.0000 0.23080  0.04600  0.25430  Biso   1.000  O
  O36      1.0000 0.76920  0.95400  0.74570  Biso   1.000  O
  H65      1.0000 0.20420  0.08280  0.28910  Biso   1.000  H
  H66      1.0000 0.79580  0.91720  0.71090  Biso   1.000  H
  H67      1.0000 0.21540  0.98200  0.21190  Biso   1.000  H
  H68      1.0000 0.78460  0.01800  0.78810  Biso   1.000  H
  O37      1.0000 0.04290  0.23400  0.28770  Biso   1.000  O
  O38      1.0000 0.95710  0.76600  0.71230  Biso   1.000  O
  H69      1.0000 0.02490  0.19580  0.22500  Biso   1.000  H
  H70      1.0000 0.97510  0.80420  0.77500  Biso   1.000  H
  H71      1.0000 0.10930  0.25900  0.32020  Biso   1.000  H
  H72      1.0000 0.89070  0.74100  0.67980  Biso   1.000  H
  O39      1.0000 0.93380  0.91920  0.89960  Biso   1.000  O
  O40      1.0000 0.06620  0.08080  0.10040  Biso   1.000  O
  H73      1.0000 0.90260  0.94760  0.93390  Biso   1.000  H
  H74      1.0000 0.09740  0.05240  0.06610  Biso   1.000  H
  H75      1.0000 0.89440  0.85790  0.87110  Biso   1.000  H
  H76      1.0000 0.10560  0.14210  0.12890  Biso   1.000  H
