data_image0
_cell_length_a       9.4815
_cell_length_b       10.1256
_cell_length_c       10.928
_cell_angle_alpha    116.115
_cell_angle_beta     95.023
_cell_angle_gamma    100.395

_symmetry_space_group_name_H-M    "P 1"
_symmetry_int_tables_number       1

loop_
  _symmetry_equiv_pos_as_xyz
  'x, y, z'

loop_
  _atom_site_label
  _atom_site_occupancy
  _atom_site_fract_x
  _atom_site_fract_y
  _atom_site_fract_z
  _atom_site_thermal_displace_type
  _atom_site_B_iso_or_equiv
  _atom_site_type_symbol
  Cu1      1.0000 0.50000  0.50000  0.50000  Biso   1.000  Cu
  O1       1.0000 0.32042  0.41810  0.28051  Biso   1.000  O
  O2       1.0000 0.67958  0.58190  0.71949  Biso   1.000  O
  O3       1.0000 0.33340  0.45340  0.09470  Biso   1.000  O
  O4       1.0000 0.66660  0.54660  0.90530  Biso   1.000  O
  H1       1.0000 0.41800  0.44770  0.10850  Biso   1.000  H
  H2       1.0000 0.58200  0.55230  0.89150  Biso   1.000  H
  O5       1.0000 0.25791  0.72990  0.32410  Biso   1.000  O
  O6       1.0000 0.74209  0.27010  0.67590  Biso   1.000  O
  O7       1.0000 0.05324  0.80175  0.31490  Biso   1.000  O
  O8       1.0000 0.94676  0.19825  0.68510  Biso   1.000  O
  H3       1.0000 0.10820  0.88670  0.35850  Biso   1.000  H
  H4       1.0000 0.89180  0.11330  0.64150  Biso   1.000  H
  O9       1.0000 0.60012  0.47170  0.13570  Biso   1.000  O
  O10      1.0000 0.39988  0.52830  0.86430  Biso   1.000  O
  O11      1.0000 0.54840  0.23910  0.97060  Biso   1.000  O
  O12      1.0000 0.45160  0.76090  0.02940  Biso   1.000  O
  O13      1.0000 0.66270  0.03530  0.86890  Biso   1.000  O
  O14      1.0000 0.33730  0.96470  0.13110  Biso   1.000  O
  H5       1.0000 0.62590  0.10720  0.90580  Biso   1.000  H
  H6       1.0000 0.37410  0.89280  0.09420  Biso   1.000  H
  O15      1.0000 0.87820  0.99180  0.87670  Biso   1.000  O
  O16      1.0000 0.12180  0.00820  0.12330  Biso   1.000  O
  N1       1.0000 0.74310  0.20070  0.29203  Biso   1.000  N
  N2       1.0000 0.25690  0.79930  0.70797  Biso   1.000  N
  N3       1.0000 0.85770  0.31560  0.38270  Biso   1.000  N
  N4       1.0000 0.14230  0.68440  0.61730  Biso   1.000  N
  N5       1.0000 0.64659  0.38479  0.41020  Biso   1.000  N
  N6       1.0000 0.35341  0.61521  0.58980  Biso   1.000  N
  N7       1.0000 0.66110  0.85840  0.42871  Biso   1.000  N
  N8       1.0000 0.33890  0.14160  0.57129  Biso   1.000  N
  N9       1.0000 0.76840  0.90010  0.53860  Biso   1.000  N
  N10      1.0000 0.23160  0.09990  0.46140  Biso   1.000  N
  N11      1.0000 0.61237  0.68476  0.49370  Biso   1.000  N
  N12      1.0000 0.38763  0.31524  0.50630  Biso   1.000  N
  C1       1.0000 0.79440  0.42420  0.45080  Biso   1.000  C
  C2       1.0000 0.20560  0.57580  0.54920  Biso   1.000  C
  H7       1.0000 0.84570  0.51940  0.52040  Biso   1.000  H
  H8       1.0000 0.15430  0.48060  0.47960  Biso   1.000  H
  C3       1.0000 0.61980  0.24360  0.31010  Biso   1.000  C
  C4       1.0000 0.38020  0.75640  0.68990  Biso   1.000  C
  H9       1.0000 0.52770  0.18340  0.25980  Biso   1.000  H
  H10      1.0000 0.47230  0.81660  0.74020  Biso   1.000  H
  C5       1.0000 0.76450  0.04930  0.20490  Biso   1.000  C
  C6       1.0000 0.23550  0.95070  0.79510  Biso   1.000  C
  H11      1.0000 0.85120  0.05930  0.16550  Biso   1.000  H
  H12      1.0000 0.14880  0.94070  0.83450  Biso   1.000  H
  H13      1.0000 0.68160  0.99180  0.12900  Biso   1.000  H
  H14      1.0000 0.31840  0.00820  0.87100  Biso   1.000  H
  C7       1.0000 0.78110  0.96360  0.28800  Biso   1.000  C
  C8       1.0000 0.21890  0.03640  0.71200  Biso   1.000  C
  H15      1.0000 0.79010  0.86260  0.22660  Biso   1.000  H
  H16      1.0000 0.20990  0.13740  0.77340  Biso   1.000  H
  H17      1.0000 0.86980  0.01570  0.35780  Biso   1.000  H
  H18      1.0000 0.13020  0.98430  0.64220  Biso   1.000  H
  C9       1.0000 0.65250  0.95130  0.35810  Biso   1.000  C
  C10      1.0000 0.34750  0.04870  0.64190  Biso   1.000  C
  H19      1.0000 0.64850  0.05210  0.42510  Biso   1.000  H
  H20      1.0000 0.35150  0.94790  0.57490  Biso   1.000  H
  H21      1.0000 0.56310  0.90710  0.28910  Biso   1.000  H
  H22      1.0000 0.43690  0.09290  0.71090  Biso   1.000  H
  C11      1.0000 0.73470  0.79170  0.57400  Biso   1.000  C
  C12      1.0000 0.26530  0.20830  0.42600  Biso   1.000  C
  H23      1.0000 0.78980  0.78890  0.64720  Biso   1.000  H
  H24      1.0000 0.21020  0.21110  0.35280  Biso   1.000  H
  C13      1.0000 0.56970  0.73130  0.40390  Biso   1.000  C
  C14      1.0000 0.43030  0.26870  0.59610  Biso   1.000  C
  H25      1.0000 0.48740  0.68150  0.33370  Biso   1.000  H
  H26      1.0000 0.51260  0.31850  0.66630  Biso   1.000  H
  C15      1.0000 0.10460  0.41830  0.15000  Biso   1.000  C
  C16      1.0000 0.89540  0.58170  0.85000  Biso   1.000  C
  C17      1.0000 0.03850  0.53980  0.19840  Biso   1.000  C
  C18      1.0000 0.96150  0.46020  0.80160  Biso   1.000  C
  C19      1.0000 0.88870  0.51100  0.16270  Biso   1.000  C
  C20      1.0000 0.11130  0.48900  0.83730  Biso   1.000  C
  H27      1.0000 0.84460  0.59170  0.19800  Biso   1.000  H
  H28      1.0000 0.15540  0.40830  0.80200  Biso   1.000  H
  C21      1.0000 0.80100  0.36620  0.07600  Biso   1.000  C
  C22      1.0000 0.19900  0.63380  0.92400  Biso   1.000  C
  C23      1.0000 0.86900  0.24510  0.01920  Biso   1.000  C
  C24      1.0000 0.13100  0.75490  0.98080  Biso   1.000  C
  C25      1.0000 0.01910  0.27390  0.06050  Biso   1.000  C
  C26      1.0000 0.98090  0.72610  0.93950  Biso   1.000  C
  H29      1.0000 0.06370  0.19350  0.02690  Biso   1.000  H
  H30      1.0000 0.93630  0.80650  0.97310  Biso   1.000  H
  C27      1.0000 0.26550  0.43200  0.18400  Biso   1.000  C
  C28      1.0000 0.73450  0.56800  0.81600  Biso   1.000  C
  C29      1.0000 0.12920  0.69980  0.28650  Biso   1.000  C
  C30      1.0000 0.87080  0.30020  0.71350  Biso   1.000  C
  C31      1.0000 0.63840  0.35760  0.05800  Biso   1.000  C
  C32      1.0000 0.36160  0.64240  0.94200  Biso   1.000  C
  C33      1.0000 0.79940  0.07810  0.91380  Biso   1.000  C
  C34      1.0000 0.20060  0.92190  0.08620  Biso   1.000  C
