data_image0
_cell_length_a       18.6717
_cell_length_b       12.5822
_cell_length_c       12.0263
_cell_angle_alpha    90
_cell_angle_beta     90
_cell_angle_gamma    90

_symmetry_space_group_name_H-M    "P 1"
_symmetry_int_tables_number       1

loop_
  _symmetry_equiv_pos_as_xyz
  'x, y, z'

loop_
  _atom_site_label
  _atom_site_occupancy
  _atom_site_fract_x
  _atom_site_fract_y
  _atom_site_fract_z
  _atom_site_thermal_displace_type
  _atom_site_B_iso_or_equiv
  _atom_site_type_symbol
  Cu1      1.0000 0.70256  0.73551  0.27797  Biso   1.000  Cu
  Cu2      1.0000 0.29744  0.26449  0.77797  Biso   1.000  Cu
  Cu3      1.0000 0.79744  0.23551  0.77797  Biso   1.000  Cu
  Cu4      1.0000 0.20256  0.76449  0.27797  Biso   1.000  Cu
  O1       1.0000 0.82600  0.73020  0.26020  Biso   1.000  O
  O2       1.0000 0.17400  0.26980  0.76020  Biso   1.000  O
  O3       1.0000 0.67400  0.23020  0.76020  Biso   1.000  O
  O4       1.0000 0.32600  0.76980  0.26020  Biso   1.000  O
  H1       1.0000 0.84300  0.74340  0.32700  Biso   1.000  H
  H2       1.0000 0.15700  0.25660  0.82700  Biso   1.000  H
  H3       1.0000 0.65700  0.24340  0.82700  Biso   1.000  H
  H4       1.0000 0.34300  0.75660  0.32700  Biso   1.000  H
  N1       1.0000 0.68380  0.67840  0.61480  Biso   1.000  N
  N2       1.0000 0.31620  0.32160  0.11480  Biso   1.000  N
  N3       1.0000 0.81620  0.17840  0.11480  Biso   1.000  N
  N4       1.0000 0.18380  0.82160  0.61480  Biso   1.000  N
  N5       1.0000 0.73940  0.61380  0.59690  Biso   1.000  N
  N6       1.0000 0.26060  0.38620  0.09690  Biso   1.000  N
  N7       1.0000 0.76060  0.11380  0.09690  Biso   1.000  N
  N8       1.0000 0.23940  0.88620  0.59690  Biso   1.000  N
  N9       1.0000 0.70720  0.69630  0.43930  Biso   1.000  N
  N10      1.0000 0.29280  0.30370  0.93930  Biso   1.000  N
  N11      1.0000 0.79280  0.19630  0.93930  Biso   1.000  N
  N12      1.0000 0.20720  0.80370  0.43930  Biso   1.000  N
  N13      1.0000 0.64880  0.80500  0.95490  Biso   1.000  N
  N14      1.0000 0.35120  0.19500  0.45490  Biso   1.000  N
  N15      1.0000 0.85120  0.30500  0.45490  Biso   1.000  N
  N16      1.0000 0.14880  0.69500  0.95490  Biso   1.000  N
  N17      1.0000 0.71110  0.86280  0.95700  Biso   1.000  N
  N18      1.0000 0.28890  0.13720  0.45700  Biso   1.000  N
  N19      1.0000 0.78890  0.36280  0.45700  Biso   1.000  N
  N20      1.0000 0.21110  0.63720  0.95700  Biso   1.000  N
  N21      1.0000 0.69370  0.77580  0.11620  Biso   1.000  N
  N22      1.0000 0.30630  0.22420  0.61620  Biso   1.000  N
  N23      1.0000 0.80630  0.27580  0.61620  Biso   1.000  N
  N24      1.0000 0.19370  0.72420  0.11620  Biso   1.000  N
  N25      1.0000 0.65410  0.04780  0.33790  Biso   1.000  N
  N26      1.0000 0.34590  0.95220  0.83790  Biso   1.000  N
  N27      1.0000 0.84590  0.54780  0.83790  Biso   1.000  N
  N28      1.0000 0.15410  0.45220  0.33790  Biso   1.000  N
  N29      1.0000 0.71190  0.04390  0.40590  Biso   1.000  N
  N30      1.0000 0.28810  0.95610  0.90590  Biso   1.000  N
  N31      1.0000 0.78810  0.54390  0.90590  Biso   1.000  N
  N32      1.0000 0.21190  0.45610  0.40590  Biso   1.000  N
  N33      1.0000 0.69700  0.89060  0.31840  Biso   1.000  N
  N34      1.0000 0.30300  0.10940  0.81840  Biso   1.000  N
  N35      1.0000 0.80300  0.39060  0.81840  Biso   1.000  N
  N36      1.0000 0.19700  0.60940  0.31840  Biso   1.000  N
  N37      1.0000 0.64080  0.42520  0.24070  Biso   1.000  N
  N38      1.0000 0.35920  0.57480  0.74070  Biso   1.000  N
  N39      1.0000 0.85920  0.92520  0.74070  Biso   1.000  N
  N40      1.0000 0.14080  0.07480  0.24070  Biso   1.000  N
  N41      1.0000 0.68280  0.42790  0.14950  Biso   1.000  N
  N42      1.0000 0.31720  0.57210  0.64950  Biso   1.000  N
  N43      1.0000 0.81720  0.92790  0.64950  Biso   1.000  N
  N44      1.0000 0.18280  0.07210  0.14950  Biso   1.000  N
  N45      1.0000 0.68570  0.58260  0.24000  Biso   1.000  N
  N46      1.0000 0.31430  0.41740  0.74000  Biso   1.000  N
  N47      1.0000 0.81430  0.08260  0.74000  Biso   1.000  N
  N48      1.0000 0.18570  0.91740  0.24000  Biso   1.000  N
  Cl1      1.0000 0.51298  0.06553  0.02325  Biso   1.000  Cl
  Cl2      1.0000 0.48702  0.93447  0.52325  Biso   1.000  Cl
  Cl3      1.0000 0.98702  0.56553  0.52325  Biso   1.000  Cl
  Cl4      1.0000 0.01298  0.43447  0.02325  Biso   1.000  Cl
  Cl5      1.0000 0.97250  0.96032  0.06840  Biso   1.000  Cl
  Cl6      1.0000 0.02750  0.03968  0.56840  Biso   1.000  Cl
  Cl7      1.0000 0.52750  0.46032  0.56840  Biso   1.000  Cl
  Cl8      1.0000 0.47250  0.53968  0.06840  Biso   1.000  Cl
  C1       1.0000 0.75370  0.62720  0.49140  Biso   1.000  C
  C2       1.0000 0.24630  0.37280  0.99140  Biso   1.000  C
  C3       1.0000 0.74630  0.12720  0.99140  Biso   1.000  C
  C4       1.0000 0.25370  0.87280  0.49140  Biso   1.000  C
  H5       1.0000 0.79140  0.59350  0.45520  Biso   1.000  H
  H6       1.0000 0.20860  0.40650  0.95520  Biso   1.000  H
  H7       1.0000 0.70860  0.09350  0.95520  Biso   1.000  H
  H8       1.0000 0.29140  0.90650  0.45520  Biso   1.000  H
  C5       1.0000 0.66520  0.72590  0.52060  Biso   1.000  C
  C6       1.0000 0.33480  0.27410  0.02060  Biso   1.000  C
  C7       1.0000 0.83480  0.22590  0.02060  Biso   1.000  C
  C8       1.0000 0.16520  0.77410  0.52060  Biso   1.000  C
  H9       1.0000 0.62750  0.77370  0.51350  Biso   1.000  H
  H10      1.0000 0.37250  0.22630  0.01350  Biso   1.000  H
  H11      1.0000 0.87250  0.27370  0.01350  Biso   1.000  H
  H12      1.0000 0.12750  0.72630  0.51350  Biso   1.000  H
  C9       1.0000 0.65230  0.68640  0.72660  Biso   1.000  C
  C10      1.0000 0.34770  0.31360  0.22660  Biso   1.000  C
  C11      1.0000 0.84770  0.18640  0.22660  Biso   1.000  C
  C12      1.0000 0.15230  0.81360  0.72660  Biso   1.000  C
  H13      1.0000 0.68660  0.66210  0.78160  Biso   1.000  H
  H14      1.0000 0.31340  0.33790  0.28160  Biso   1.000  H
  H15      1.0000 0.81340  0.16210  0.28160  Biso   1.000  H
  H16      1.0000 0.18660  0.83790  0.78160  Biso   1.000  H
  H17      1.0000 0.61020  0.64160  0.73130  Biso   1.000  H
  H18      1.0000 0.38980  0.35840  0.23130  Biso   1.000  H
  H19      1.0000 0.88980  0.14160  0.23130  Biso   1.000  H
  H20      1.0000 0.11020  0.85840  0.73130  Biso   1.000  H
  C13      1.0000 0.63210  0.80050  0.74990  Biso   1.000  C
  C14      1.0000 0.36790  0.19950  0.24990  Biso   1.000  C
  C15      1.0000 0.86790  0.30050  0.24990  Biso   1.000  C
  C16      1.0000 0.13210  0.69950  0.74990  Biso   1.000  C
  H21      1.0000 0.67470  0.84450  0.74560  Biso   1.000  H
  H22      1.0000 0.32530  0.15550  0.24560  Biso   1.000  H
  H23      1.0000 0.82530  0.34450  0.24560  Biso   1.000  H
  H24      1.0000 0.17470  0.65550  0.74560  Biso   1.000  H
  H25      1.0000 0.59900  0.82470  0.69310  Biso   1.000  H
  H26      1.0000 0.40100  0.17530  0.19310  Biso   1.000  H
  H27      1.0000 0.90100  0.32470  0.19310  Biso   1.000  H
  H28      1.0000 0.09900  0.67530  0.69310  Biso   1.000  H
  C17      1.0000 0.59790  0.81490  0.86250  Biso   1.000  C
  C18      1.0000 0.40210  0.18510  0.36250  Biso   1.000  C
  C19      1.0000 0.90210  0.31490  0.36250  Biso   1.000  C
  C20      1.0000 0.09790  0.68510  0.86250  Biso   1.000  C
  H29      1.0000 0.57570  0.88450  0.86570  Biso   1.000  H
  H30      1.0000 0.42430  0.11550  0.36570  Biso   1.000  H
  H31      1.0000 0.92430  0.38450  0.36570  Biso   1.000  H
  H32      1.0000 0.07570  0.61550  0.86570  Biso   1.000  H
  H33      1.0000 0.56050  0.76220  0.87160  Biso   1.000  H
  H34      1.0000 0.43950  0.23780  0.37160  Biso   1.000  H
  H35      1.0000 0.93950  0.26220  0.37160  Biso   1.000  H
  H36      1.0000 0.06050  0.73780  0.87160  Biso   1.000  H
  C21      1.0000 0.73520  0.84190  0.05590  Biso   1.000  C
  C22      1.0000 0.26480  0.15810  0.55590  Biso   1.000  C
  C23      1.0000 0.76480  0.34190  0.55590  Biso   1.000  C
  C24      1.0000 0.23520  0.65810  0.05590  Biso   1.000  C
  H37      1.0000 0.77770  0.87030  0.08290  Biso   1.000  H
  H38      1.0000 0.22230  0.12970  0.58290  Biso   1.000  H
  H39      1.0000 0.72230  0.37030  0.58290  Biso   1.000  H
  H40      1.0000 0.27770  0.62970  0.08290  Biso   1.000  H
  C25      1.0000 0.63980  0.75670  0.04920  Biso   1.000  C
  C26      1.0000 0.36020  0.24330  0.54920  Biso   1.000  C
  C27      1.0000 0.86020  0.25670  0.54920  Biso   1.000  C
  C28      1.0000 0.13980  0.74330  0.04920  Biso   1.000  C
  H41      1.0000 0.60060  0.71440  0.06690  Biso   1.000  H
  H42      1.0000 0.39940  0.28560  0.56690  Biso   1.000  H
  H43      1.0000 0.89940  0.21440  0.56690  Biso   1.000  H
  H44      1.0000 0.10060  0.78560  0.06690  Biso   1.000  H
  C29      1.0000 0.73430  0.94820  0.39130  Biso   1.000  C
  C30      1.0000 0.26570  0.05180  0.89130  Biso   1.000  C
  C31      1.0000 0.76570  0.44820  0.89130  Biso   1.000  C
  C32      1.0000 0.23430  0.55180  0.39130  Biso   1.000  C
  H45      1.0000 0.77380  0.92110  0.42900  Biso   1.000  H
  H46      1.0000 0.22620  0.07890  0.92900  Biso   1.000  H
  H47      1.0000 0.72620  0.42110  0.92900  Biso   1.000  H
  H48      1.0000 0.27380  0.57890  0.42900  Biso   1.000  H
  C33      1.0000 0.64600  0.95690  0.28630  Biso   1.000  C
  C34      1.0000 0.35400  0.04310  0.78630  Biso   1.000  C
  C35      1.0000 0.85400  0.45690  0.78630  Biso   1.000  C
  C36      1.0000 0.14600  0.54310  0.28630  Biso   1.000  C
  H49      1.0000 0.61010  0.94150  0.23520  Biso   1.000  H
  H50      1.0000 0.38990  0.05850  0.73520  Biso   1.000  H
  H51      1.0000 0.88990  0.44150  0.73520  Biso   1.000  H
  H52      1.0000 0.11010  0.55850  0.23520  Biso   1.000  H
  C37      1.0000 0.60850  0.14160  0.33360  Biso   1.000  C
  C38      1.0000 0.39150  0.85840  0.83360  Biso   1.000  C
  C39      1.0000 0.89150  0.64160  0.83360  Biso   1.000  C
  C40      1.0000 0.10850  0.35840  0.33360  Biso   1.000  C
  H53      1.0000 0.59020  0.15660  0.40740  Biso   1.000  H
  H54      1.0000 0.40980  0.84340  0.90740  Biso   1.000  H
  H55      1.0000 0.90980  0.65660  0.90740  Biso   1.000  H
  H56      1.0000 0.09020  0.34340  0.40740  Biso   1.000  H
  H57      1.0000 0.56800  0.12770  0.28520  Biso   1.000  H
  H58      1.0000 0.43200  0.87230  0.78520  Biso   1.000  H
  H59      1.0000 0.93200  0.62770  0.78520  Biso   1.000  H
  H60      1.0000 0.06800  0.37230  0.28520  Biso   1.000  H
  C41      1.0000 0.64900  0.23720  0.29120  Biso   1.000  C
  C42      1.0000 0.35100  0.76280  0.79120  Biso   1.000  C
  C43      1.0000 0.85100  0.73720  0.79120  Biso   1.000  C
  C44      1.0000 0.14900  0.26280  0.29120  Biso   1.000  C
  H61      1.0000 0.67430  0.21810  0.22360  Biso   1.000  H
  H62      1.0000 0.32570  0.78190  0.72360  Biso   1.000  H
  H63      1.0000 0.82570  0.71810  0.72360  Biso   1.000  H
  H64      1.0000 0.17430  0.28190  0.22360  Biso   1.000  H
  H65      1.0000 0.68410  0.25870  0.34610  Biso   1.000  H
  H66      1.0000 0.31590  0.74130  0.84610  Biso   1.000  H
  H67      1.0000 0.81590  0.75870  0.84610  Biso   1.000  H
  H68      1.0000 0.18410  0.24130  0.34610  Biso   1.000  H
  C45      1.0000 0.59900  0.32950  0.26740  Biso   1.000  C
  C46      1.0000 0.40100  0.67050  0.76740  Biso   1.000  C
  C47      1.0000 0.90100  0.82950  0.76740  Biso   1.000  C
  C48      1.0000 0.09900  0.17050  0.26740  Biso   1.000  C
  H69      1.0000 0.56800  0.31180  0.20540  Biso   1.000  H
  H70      1.0000 0.43200  0.68820  0.70540  Biso   1.000  H
  H71      1.0000 0.93200  0.81180  0.70540  Biso   1.000  H
  H72      1.0000 0.06800  0.18820  0.20540  Biso   1.000  H
  H73      1.0000 0.56910  0.34300  0.33190  Biso   1.000  H
  H74      1.0000 0.43090  0.65700  0.83190  Biso   1.000  H
  H75      1.0000 0.93090  0.84300  0.83190  Biso   1.000  H
  H76      1.0000 0.06910  0.15700  0.33190  Biso   1.000  H
  C49      1.0000 0.70930  0.52480  0.15170  Biso   1.000  C
  C50      1.0000 0.29070  0.47520  0.65170  Biso   1.000  C
  C51      1.0000 0.79070  0.02480  0.65170  Biso   1.000  C
  C52      1.0000 0.20930  0.97520  0.15170  Biso   1.000  C
  H77      1.0000 0.74080  0.55100  0.09860  Biso   1.000  H
  H78      1.0000 0.25920  0.44900  0.59860  Biso   1.000  H
  H79      1.0000 0.75920  0.05100  0.59860  Biso   1.000  H
  H80      1.0000 0.24080  0.94900  0.09860  Biso   1.000  H
  C53      1.0000 0.64300  0.51500  0.29220  Biso   1.000  C
  C54      1.0000 0.35700  0.48500  0.79220  Biso   1.000  C
  C55      1.0000 0.85700  0.01500  0.79220  Biso   1.000  C
  C56      1.0000 0.14300  0.98500  0.29220  Biso   1.000  C
  H81      1.0000 0.61810  0.53030  0.35720  Biso   1.000  H
  H82      1.0000 0.38190  0.46970  0.85720  Biso   1.000  H
  H83      1.0000 0.88190  0.03030  0.85720  Biso   1.000  H
  H84      1.0000 0.11810  0.96970  0.35720  Biso   1.000  H
  O5       1.0000 0.53580  0.15820  0.07780  Biso   1.000  O
  O6       1.0000 0.46420  0.84180  0.57780  Biso   1.000  O
  O7       1.0000 0.96420  0.65820  0.57780  Biso   1.000  O
  O8       1.0000 0.03580  0.34180  0.07780  Biso   1.000  O
  O9       1.0000 0.43560  0.05290  0.03030  Biso   1.000  O
  O10      1.0000 0.56440  0.94710  0.53030  Biso   1.000  O
  O11      1.0000 0.06440  0.55290  0.53030  Biso   1.000  O
  O12      1.0000 0.93560  0.44710  0.03030  Biso   1.000  O
  O13      1.0000 0.52970  0.07320  0.90470  Biso   1.000  O
  O14      1.0000 0.47030  0.92680  0.40470  Biso   1.000  O
  O15      1.0000 0.97030  0.57320  0.40470  Biso   1.000  O
  O16      1.0000 0.02970  0.42680  0.90470  Biso   1.000  O
  O17      1.0000 0.54320  0.97030  0.06690  Biso   1.000  O
  O18      1.0000 0.45680  0.02970  0.56690  Biso   1.000  O
  O19      1.0000 0.95680  0.47030  0.56690  Biso   1.000  O
  O20      1.0000 0.04320  0.52970  0.06690  Biso   1.000  O
  O21      1.0000 0.90050  0.93760  0.04850  Biso   1.000  O
  O22      1.0000 0.09950  0.06240  0.54850  Biso   1.000  O
  O23      1.0000 0.59950  0.43760  0.54850  Biso   1.000  O
  O24      1.0000 0.40050  0.56240  0.04850  Biso   1.000  O
  O25      1.0000 0.99630  0.94200  0.17660  Biso   1.000  O
  O26      1.0000 0.00370  0.05800  0.67660  Biso   1.000  O
  O27      1.0000 0.50370  0.44200  0.67660  Biso   1.000  O
  O28      1.0000 0.49630  0.55800  0.17660  Biso   1.000  O
  O29      1.0000 0.01870  0.92270  0.98270  Biso   1.000  O
  O30      1.0000 0.98130  0.07730  0.48270  Biso   1.000  O
  O31      1.0000 0.48130  0.42270  0.48270  Biso   1.000  O
  O32      1.0000 0.51870  0.57730  0.98270  Biso   1.000  O
  O33      1.0000 0.97720  0.08010  0.05470  Biso   1.000  O
  O34      1.0000 0.02280  0.91990  0.55470  Biso   1.000  O
  O35      1.0000 0.52280  0.58010  0.55470  Biso   1.000  O
  O36      1.0000 0.47720  0.41990  0.05470  Biso   1.000  O
  O37      1.0000 0.90820  0.83820  0.40810  Biso   1.000  O
  O38      1.0000 0.09180  0.16180  0.90810  Biso   1.000  O
  O39      1.0000 0.59180  0.33820  0.90810  Biso   1.000  O
  O40      1.0000 0.40820  0.66180  0.40810  Biso   1.000  O
  H85      1.0000 0.90450  0.88870  0.36160  Biso   1.000  H
  H86      1.0000 0.09550  0.11130  0.86160  Biso   1.000  H
  H87      1.0000 0.59550  0.38870  0.86160  Biso   1.000  H
  H88      1.0000 0.40450  0.61130  0.36160  Biso   1.000  H
  H89      1.0000 0.92880  0.85200  0.46950  Biso   1.000  H
  H90      1.0000 0.07120  0.14800  0.96950  Biso   1.000  H
  H91      1.0000 0.57120  0.35200  0.96950  Biso   1.000  H
  H92      1.0000 0.42880  0.64800  0.46950  Biso   1.000  H
  O41      1.0000 0.55900  0.74490  0.29440  Biso   1.000  O
  O42      1.0000 0.44100  0.25510  0.79440  Biso   1.000  O
  O43      1.0000 0.94100  0.24490  0.79440  Biso   1.000  O
  O44      1.0000 0.05900  0.75510  0.29440  Biso   1.000  O
  H93      1.0000 0.55990  0.78940  0.34770  Biso   1.000  H
  H94      1.0000 0.44010  0.21060  0.84770  Biso   1.000  H
  H95      1.0000 0.94010  0.28940  0.84770  Biso   1.000  H
  H96      1.0000 0.05990  0.71060  0.34770  Biso   1.000  H
  H97      1.0000 0.52980  0.69330  0.29990  Biso   1.000  H
  H98      1.0000 0.47020  0.30670  0.79990  Biso   1.000  H
  H99      1.0000 0.97020  0.19330  0.79990  Biso   1.000  H
  H100     1.0000 0.02980  0.80670  0.29990  Biso   1.000  H
  C57      1.0000 0.87290  0.66730  0.18790  Biso   1.000  C
  C58      1.0000 0.12710  0.33270  0.68790  Biso   1.000  C
  C59      1.0000 0.62710  0.16730  0.68790  Biso   1.000  C
  C60      1.0000 0.37290  0.83270  0.18790  Biso   1.000  C
  H101     1.0000 0.88070  0.59870  0.22070  Biso   1.000  H
  H102     1.0000 0.11930  0.40130  0.72070  Biso   1.000  H
  H103     1.0000 0.61930  0.09870  0.72070  Biso   1.000  H
  H104     1.0000 0.38070  0.90130  0.22070  Biso   1.000  H
  H105     1.0000 0.91790  0.70320  0.17930  Biso   1.000  H
  H106     1.0000 0.08210  0.29680  0.67930  Biso   1.000  H
  H107     1.0000 0.58210  0.20320  0.67930  Biso   1.000  H
  H108     1.0000 0.41790  0.79680  0.17930  Biso   1.000  H
  H109     1.0000 0.85070  0.65890  0.11650  Biso   1.000  H
  H110     1.0000 0.14930  0.34110  0.61650  Biso   1.000  H
  H111     1.0000 0.64930  0.15890  0.61650  Biso   1.000  H
  H112     1.0000 0.35070  0.84110  0.11650  Biso   1.000  H
  O45      1.0000 0.50550  0.17630  0.05530  Biso   1.000  O
  O46      1.0000 0.49450  0.82370  0.55530  Biso   1.000  O
  O47      1.0000 0.99450  0.67630  0.55530  Biso   1.000  O
  O48      1.0000 0.00550  0.32370  0.05530  Biso   1.000  O
  O49      1.0000 0.47270  0.99980  0.09630  Biso   1.000  O
  O50      1.0000 0.52730  0.00020  0.59630  Biso   1.000  O
  O51      1.0000 0.02730  0.49980  0.59630  Biso   1.000  O
  O52      1.0000 0.97270  0.50020  0.09630  Biso   1.000  O
  O53      1.0000 0.49030  0.05510  0.91060  Biso   1.000  O
  O54      1.0000 0.50970  0.94490  0.41060  Biso   1.000  O
  O55      1.0000 0.00970  0.55510  0.41060  Biso   1.000  O
  O56      1.0000 0.99030  0.44490  0.91060  Biso   1.000  O
  O57      1.0000 0.58770  0.03650  0.03260  Biso   1.000  O
  O58      1.0000 0.41230  0.96350  0.53260  Biso   1.000  O
  O59      1.0000 0.91230  0.53650  0.53260  Biso   1.000  O
  O60      1.0000 0.08770  0.46350  0.03260  Biso   1.000  O
