data_image0
_cell_length_a       6.5702
_cell_length_b       24.339
_cell_length_c       17.082
_cell_angle_alpha    90
_cell_angle_beta     97.915
_cell_angle_gamma    90

_symmetry_space_group_name_H-M    "P 1"
_symmetry_int_tables_number       1

loop_
  _symmetry_equiv_pos_as_xyz
  'x, y, z'

loop_
  _atom_site_label
  _atom_site_occupancy
  _atom_site_fract_x
  _atom_site_fract_y
  _atom_site_fract_z
  _atom_site_thermal_displace_type
  _atom_site_B_iso_or_equiv
  _atom_site_type_symbol
  Cu1      1.0000 0.25000  0.25000  0.00000  Biso   1.000  Cu
  Cu2      1.0000 0.75000  0.25000  0.50000  Biso   1.000  Cu
  Cu3      1.0000 0.75000  0.75000  0.00000  Biso   1.000  Cu
  Cu4      1.0000 0.25000  0.75000  0.50000  Biso   1.000  Cu
  O1       1.0000 0.13030  0.31248  0.05016  Biso   1.000  O
  O2       1.0000 0.86970  0.31248  0.44984  Biso   1.000  O
  O3       1.0000 0.63030  0.81248  0.05016  Biso   1.000  O
  O4       1.0000 0.36970  0.81248  0.44984  Biso   1.000  O
  O5       1.0000 0.86970  0.68752  0.94984  Biso   1.000  O
  O6       1.0000 0.13030  0.68752  0.55016  Biso   1.000  O
  O7       1.0000 0.36970  0.18752  0.94984  Biso   1.000  O
  O8       1.0000 0.63030  0.18752  0.55016  Biso   1.000  O
  O9       1.0000 0.34370  0.36079  0.98808  Biso   1.000  O
  O10      1.0000 0.65630  0.36079  0.51192  Biso   1.000  O
  O11      1.0000 0.84370  0.86079  0.98808  Biso   1.000  O
  O12      1.0000 0.15630  0.86079  0.51192  Biso   1.000  O
  O13      1.0000 0.65630  0.63921  0.01192  Biso   1.000  O
  O14      1.0000 0.34370  0.63921  0.48808  Biso   1.000  O
  O15      1.0000 0.15630  0.13921  0.01192  Biso   1.000  O
  O16      1.0000 0.84370  0.13921  0.48808  Biso   1.000  O
  O17      1.0000 0.42070  0.55651  0.04529  Biso   1.000  O
  O18      1.0000 0.57930  0.55651  0.45471  Biso   1.000  O
  O19      1.0000 0.92070  0.05651  0.04529  Biso   1.000  O
  O20      1.0000 0.07930  0.05651  0.45471  Biso   1.000  O
  O21      1.0000 0.57930  0.44349  0.95471  Biso   1.000  O
  O22      1.0000 0.42070  0.44349  0.54529  Biso   1.000  O
  O23      1.0000 0.07930  0.94349  0.95471  Biso   1.000  O
  O24      1.0000 0.92070  0.94349  0.54529  Biso   1.000  O
  H1       1.0000 0.47080  0.58700  0.04070  Biso   1.000  H
  H2       1.0000 0.52920  0.58700  0.45930  Biso   1.000  H
  H3       1.0000 0.97080  0.08700  0.04070  Biso   1.000  H
  H4       1.0000 0.02920  0.08700  0.45930  Biso   1.000  H
  H5       1.0000 0.52920  0.41300  0.95930  Biso   1.000  H
  H6       1.0000 0.47080  0.41300  0.54070  Biso   1.000  H
  H7       1.0000 0.02920  0.91300  0.95930  Biso   1.000  H
  H8       1.0000 0.97080  0.91300  0.54070  Biso   1.000  H
  O25      1.0000 0.21490  0.60252  0.11353  Biso   1.000  O
  O26      1.0000 0.78510  0.60252  0.38647  Biso   1.000  O
  O27      1.0000 0.71490  0.10252  0.11353  Biso   1.000  O
  O28      1.0000 0.28510  0.10252  0.38647  Biso   1.000  O
  O29      1.0000 0.78510  0.39748  0.88647  Biso   1.000  O
  O30      1.0000 0.21490  0.39748  0.61353  Biso   1.000  O
  O31      1.0000 0.28510  0.89748  0.88647  Biso   1.000  O
  O32      1.0000 0.71490  0.89748  0.61353  Biso   1.000  O
  O33      1.0000 0.65250  0.49943  0.20994  Biso   1.000  O
  O34      1.0000 0.34750  0.49943  0.29006  Biso   1.000  O
  O35      1.0000 0.15250  0.99943  0.20994  Biso   1.000  O
  O36      1.0000 0.84750  0.99943  0.29006  Biso   1.000  O
  O37      1.0000 0.34750  0.50057  0.79006  Biso   1.000  O
  O38      1.0000 0.65250  0.50057  0.70994  Biso   1.000  O
  O39      1.0000 0.84750  0.00057  0.79006  Biso   1.000  O
  O40      1.0000 0.15250  0.00057  0.70994  Biso   1.000  O
  O41      1.0000 0.64320  0.40823  0.20389  Biso   1.000  O
  O42      1.0000 0.35680  0.40823  0.29611  Biso   1.000  O
  O43      1.0000 0.14320  0.90823  0.20389  Biso   1.000  O
  O44      1.0000 0.85680  0.90823  0.29611  Biso   1.000  O
  O45      1.0000 0.35680  0.59177  0.79611  Biso   1.000  O
  O46      1.0000 0.64320  0.59177  0.70389  Biso   1.000  O
  O47      1.0000 0.85680  0.09177  0.79611  Biso   1.000  O
  O48      1.0000 0.14320  0.09177  0.70389  Biso   1.000  O
  N1       1.0000 0.00550  0.24847  0.91815  Biso   1.000  N
  N2       1.0000 0.99450  0.24847  0.58185  Biso   1.000  N
  N3       1.0000 0.50550  0.74847  0.91815  Biso   1.000  N
  N4       1.0000 0.49450  0.74847  0.58185  Biso   1.000  N
  N5       1.0000 0.99450  0.75153  0.08185  Biso   1.000  N
  N6       1.0000 0.00550  0.75153  0.41815  Biso   1.000  N
  N7       1.0000 0.49450  0.25153  0.08185  Biso   1.000  N
  N8       1.0000 0.50550  0.25153  0.41815  Biso   1.000  N
  C1       1.0000 0.96590  0.21604  0.85344  Biso   1.000  C
  C2       1.0000 0.03410  0.21604  0.64656  Biso   1.000  C
  C3       1.0000 0.46590  0.71604  0.85344  Biso   1.000  C
  C4       1.0000 0.53410  0.71604  0.64656  Biso   1.000  C
  C5       1.0000 0.03410  0.78396  0.14656  Biso   1.000  C
  C6       1.0000 0.96590  0.78396  0.35344  Biso   1.000  C
  C7       1.0000 0.53410  0.28396  0.14656  Biso   1.000  C
  C8       1.0000 0.46590  0.28396  0.35344  Biso   1.000  C
  H9       1.0000 0.05850  0.19010  0.83970  Biso   1.000  H
  H10      1.0000 0.94150  0.19010  0.66030  Biso   1.000  H
  H11      1.0000 0.55850  0.69010  0.83970  Biso   1.000  H
  H12      1.0000 0.44150  0.69010  0.66030  Biso   1.000  H
  H13      1.0000 0.94150  0.80990  0.16030  Biso   1.000  H
  H14      1.0000 0.05850  0.80990  0.33970  Biso   1.000  H
  H15      1.0000 0.44150  0.30990  0.16030  Biso   1.000  H
  H16      1.0000 0.55850  0.30990  0.33970  Biso   1.000  H
  N9       1.0000 0.78600  0.22450  0.81206  Biso   1.000  N
  N10      1.0000 0.21400  0.22450  0.68794  Biso   1.000  N
  N11      1.0000 0.28600  0.72450  0.81206  Biso   1.000  N
  N12      1.0000 0.71400  0.72450  0.68794  Biso   1.000  N
  N13      1.0000 0.21400  0.77550  0.18794  Biso   1.000  N
  N14      1.0000 0.78600  0.77550  0.31206  Biso   1.000  N
  N15      1.0000 0.71400  0.27550  0.18794  Biso   1.000  N
  N16      1.0000 0.28600  0.27550  0.31206  Biso   1.000  N
  C9       1.0000 0.13390  0.40890  0.06995  Biso   1.000  C
  C10      1.0000 0.86610  0.40890  0.43005  Biso   1.000  C
  C11      1.0000 0.63390  0.90890  0.06995  Biso   1.000  C
  C12      1.0000 0.36610  0.90890  0.43005  Biso   1.000  C
  C13      1.0000 0.86610  0.59110  0.93005  Biso   1.000  C
  C14      1.0000 0.13390  0.59110  0.56995  Biso   1.000  C
  C15      1.0000 0.36610  0.09110  0.93005  Biso   1.000  C
  C16      1.0000 0.63390  0.09110  0.56995  Biso   1.000  C
  C17      1.0000 0.23000  0.45896  0.06125  Biso   1.000  C
  C18      1.0000 0.77000  0.45896  0.43875  Biso   1.000  C
  C19      1.0000 0.73000  0.95896  0.06125  Biso   1.000  C
  C20      1.0000 0.27000  0.95896  0.43875  Biso   1.000  C
  C21      1.0000 0.77000  0.54104  0.93875  Biso   1.000  C
  C22      1.0000 0.23000  0.54104  0.56125  Biso   1.000  C
  C23      1.0000 0.27000  0.04104  0.93875  Biso   1.000  C
  C24      1.0000 0.73000  0.04104  0.56125  Biso   1.000  C
  H17      1.0000 0.34180  0.46050  0.03340  Biso   1.000  H
  H18      1.0000 0.65820  0.46050  0.46660  Biso   1.000  H
  H19      1.0000 0.84180  0.96050  0.03340  Biso   1.000  H
  H20      1.0000 0.15820  0.96050  0.46660  Biso   1.000  H
  H21      1.0000 0.65820  0.53950  0.96660  Biso   1.000  H
  H22      1.0000 0.34180  0.53950  0.53340  Biso   1.000  H
  H23      1.0000 0.15820  0.03950  0.96660  Biso   1.000  H
  H24      1.0000 0.84180  0.03950  0.53340  Biso   1.000  H
  C25      1.0000 0.16110  0.50666  0.09365  Biso   1.000  C
  C26      1.0000 0.83890  0.50666  0.40635  Biso   1.000  C
  C27      1.0000 0.66110  0.00666  0.09365  Biso   1.000  C
  C28      1.0000 0.33890  0.00666  0.40635  Biso   1.000  C
  C29      1.0000 0.83890  0.49334  0.90635  Biso   1.000  C
  C30      1.0000 0.16110  0.49334  0.59365  Biso   1.000  C
  C31      1.0000 0.33890  0.99334  0.90635  Biso   1.000  C
  C32      1.0000 0.66110  0.99334  0.59365  Biso   1.000  C
  C33      1.0000 0.99300  0.50462  0.13382  Biso   1.000  C
  C34      1.0000 0.00700  0.50462  0.36618  Biso   1.000  C
  C35      1.0000 0.49300  0.00462  0.13382  Biso   1.000  C
  C36      1.0000 0.50700  0.00462  0.36618  Biso   1.000  C
  C37      1.0000 0.00700  0.49538  0.86618  Biso   1.000  C
  C38      1.0000 0.99300  0.49538  0.63382  Biso   1.000  C
  C39      1.0000 0.50700  0.99538  0.86618  Biso   1.000  C
  C40      1.0000 0.49300  0.99538  0.63382  Biso   1.000  C
  H25      1.0000 0.94400  0.53670  0.15430  Biso   1.000  H
  H26      1.0000 0.05600  0.53670  0.34570  Biso   1.000  H
  H27      1.0000 0.44400  0.03670  0.15430  Biso   1.000  H
  H28      1.0000 0.55600  0.03670  0.34570  Biso   1.000  H
  H29      1.0000 0.05600  0.46330  0.84570  Biso   1.000  H
  H30      1.0000 0.94400  0.46330  0.65430  Biso   1.000  H
  H31      1.0000 0.55600  0.96330  0.84570  Biso   1.000  H
  H32      1.0000 0.44400  0.96330  0.65430  Biso   1.000  H
  C41      1.0000 0.89710  0.45495  0.14374  Biso   1.000  C
  C42      1.0000 0.10290  0.45495  0.35626  Biso   1.000  C
  C43      1.0000 0.39710  0.95495  0.14374  Biso   1.000  C
  C44      1.0000 0.60290  0.95495  0.35626  Biso   1.000  C
  C45      1.0000 0.10290  0.54505  0.85626  Biso   1.000  C
  C46      1.0000 0.89710  0.54505  0.64374  Biso   1.000  C
  C47      1.0000 0.60290  0.04505  0.85626  Biso   1.000  C
  C48      1.0000 0.39710  0.04505  0.64374  Biso   1.000  C
  C49      1.0000 0.96850  0.40684  0.11241  Biso   1.000  C
  C50      1.0000 0.03150  0.40684  0.38759  Biso   1.000  C
  C51      1.0000 0.46850  0.90684  0.11241  Biso   1.000  C
  C52      1.0000 0.53150  0.90684  0.38759  Biso   1.000  C
  C53      1.0000 0.03150  0.59316  0.88759  Biso   1.000  C
  C54      1.0000 0.96850  0.59316  0.61241  Biso   1.000  C
  C55      1.0000 0.53150  0.09316  0.88759  Biso   1.000  C
  C56      1.0000 0.46850  0.09316  0.61241  Biso   1.000  C
  H33      1.0000 0.90540  0.37340  0.12000  Biso   1.000  H
  H34      1.0000 0.09460  0.37340  0.38000  Biso   1.000  H
  H35      1.0000 0.40540  0.87340  0.12000  Biso   1.000  H
  H36      1.0000 0.59460  0.87340  0.38000  Biso   1.000  H
  H37      1.0000 0.09460  0.62660  0.88000  Biso   1.000  H
  H38      1.0000 0.90540  0.62660  0.62000  Biso   1.000  H
  H39      1.0000 0.59460  0.12660  0.88000  Biso   1.000  H
  H40      1.0000 0.40540  0.12660  0.62000  Biso   1.000  H
  C57      1.0000 0.20930  0.35789  0.03274  Biso   1.000  C
  C58      1.0000 0.79070  0.35789  0.46726  Biso   1.000  C
  C59      1.0000 0.70930  0.85789  0.03274  Biso   1.000  C
  C60      1.0000 0.29070  0.85789  0.46726  Biso   1.000  C
  C61      1.0000 0.79070  0.64211  0.96726  Biso   1.000  C
  C62      1.0000 0.20930  0.64211  0.53274  Biso   1.000  C
  C63      1.0000 0.29070  0.14211  0.96726  Biso   1.000  C
  C64      1.0000 0.70930  0.14211  0.53274  Biso   1.000  C
  C65      1.0000 0.26590  0.56050  0.08600  Biso   1.000  C
  C66      1.0000 0.73410  0.56050  0.41400  Biso   1.000  C
  C67      1.0000 0.76590  0.06050  0.08600  Biso   1.000  C
  C68      1.0000 0.23410  0.06050  0.41400  Biso   1.000  C
  C69      1.0000 0.73410  0.43950  0.91400  Biso   1.000  C
  C70      1.0000 0.26590  0.43950  0.58600  Biso   1.000  C
  C71      1.0000 0.23410  0.93950  0.91400  Biso   1.000  C
  C72      1.0000 0.76590  0.93950  0.58600  Biso   1.000  C
  C73      1.0000 0.71910  0.45404  0.18850  Biso   1.000  C
  C74      1.0000 0.28090  0.45404  0.31150  Biso   1.000  C
  C75      1.0000 0.21910  0.95404  0.18850  Biso   1.000  C
  C76      1.0000 0.78090  0.95404  0.31150  Biso   1.000  C
  C77      1.0000 0.28090  0.54596  0.81150  Biso   1.000  C
  C78      1.0000 0.71910  0.54596  0.68850  Biso   1.000  C
  C79      1.0000 0.78090  0.04596  0.81150  Biso   1.000  C
  C80      1.0000 0.21910  0.04596  0.68850  Biso   1.000  C
  C81      1.0000 0.83630  0.27858  0.91562  Biso   1.000  C
  C82      1.0000 0.16370  0.27858  0.58438  Biso   1.000  C
  C83      1.0000 0.33630  0.77858  0.91562  Biso   1.000  C
  C84      1.0000 0.66370  0.77858  0.58438  Biso   1.000  C
  C85      1.0000 0.16370  0.72142  0.08438  Biso   1.000  C
  C86      1.0000 0.83630  0.72142  0.41562  Biso   1.000  C
  C87      1.0000 0.66370  0.22142  0.08438  Biso   1.000  C
  C88      1.0000 0.33630  0.22142  0.41562  Biso   1.000  C
  H41      1.0000 0.81370  0.30530  0.95240  Biso   1.000  H
  H42      1.0000 0.18630  0.30530  0.54760  Biso   1.000  H
  H43      1.0000 0.31370  0.80530  0.95240  Biso   1.000  H
  H44      1.0000 0.68630  0.80530  0.54760  Biso   1.000  H
  H45      1.0000 0.18630  0.69470  0.04760  Biso   1.000  H
  H46      1.0000 0.81370  0.69470  0.45240  Biso   1.000  H
  H47      1.0000 0.68630  0.19470  0.04760  Biso   1.000  H
  H48      1.0000 0.31370  0.19470  0.45240  Biso   1.000  H
  N17      1.0000 0.70460  0.26498  0.85289  Biso   1.000  N
  N18      1.0000 0.29540  0.26498  0.64711  Biso   1.000  N
  N19      1.0000 0.20460  0.76498  0.85289  Biso   1.000  N
  N20      1.0000 0.79540  0.76498  0.64711  Biso   1.000  N
  N21      1.0000 0.29540  0.73502  0.14711  Biso   1.000  N
  N22      1.0000 0.70460  0.73502  0.35289  Biso   1.000  N
  N23      1.0000 0.79540  0.23502  0.14711  Biso   1.000  N
  N24      1.0000 0.20460  0.23502  0.35289  Biso   1.000  N
  C89      1.0000 0.50240  0.28835  0.82533  Biso   1.000  C
  C90      1.0000 0.49760  0.28835  0.67467  Biso   1.000  C
  C91      1.0000 0.00240  0.78835  0.82533  Biso   1.000  C
  C92      1.0000 0.99760  0.78835  0.67467  Biso   1.000  C
  C93      1.0000 0.49760  0.71165  0.17467  Biso   1.000  C
  C94      1.0000 0.50240  0.71165  0.32533  Biso   1.000  C
  C95      1.0000 0.99760  0.21165  0.17467  Biso   1.000  C
  C96      1.0000 0.00240  0.21165  0.32533  Biso   1.000  C
  H49      1.0000 0.46140  0.31180  0.86630  Biso   1.000  H
  H50      1.0000 0.53860  0.31180  0.63370  Biso   1.000  H
  H51      1.0000 0.96140  0.81180  0.86630  Biso   1.000  H
  H52      1.0000 0.03860  0.81180  0.63370  Biso   1.000  H
  H53      1.0000 0.53860  0.68820  0.13370  Biso   1.000  H
  H54      1.0000 0.46140  0.68820  0.36630  Biso   1.000  H
  H55      1.0000 0.03860  0.18820  0.13370  Biso   1.000  H
  H56      1.0000 0.96140  0.18820  0.36630  Biso   1.000  H
  H57      1.0000 0.40280  0.25880  0.81600  Biso   1.000  H
  H58      1.0000 0.59720  0.25880  0.68400  Biso   1.000  H
  H59      1.0000 0.90280  0.75880  0.81600  Biso   1.000  H
  H60      1.0000 0.09720  0.75880  0.68400  Biso   1.000  H
  H61      1.0000 0.59720  0.74120  0.18400  Biso   1.000  H
  H62      1.0000 0.40280  0.74120  0.31600  Biso   1.000  H
  H63      1.0000 0.09720  0.24120  0.18400  Biso   1.000  H
  H64      1.0000 0.90280  0.24120  0.31600  Biso   1.000  H
  C97      1.0000 0.50000  0.32153  0.75000  Biso   1.000  C
  C98      1.0000 0.00000  0.82153  0.75000  Biso   1.000  C
  C99      1.0000 0.50000  0.67847  0.25000  Biso   1.000  C
  C100     1.0000 0.00000  0.17847  0.25000  Biso   1.000  C
  H65      1.0000 0.37990  0.34510  0.74420  Biso   1.000  H
  H66      1.0000 0.62010  0.34510  0.75580  Biso   1.000  H
  H67      1.0000 0.87990  0.84510  0.74420  Biso   1.000  H
  H68      1.0000 0.12010  0.84510  0.75580  Biso   1.000  H
  H69      1.0000 0.62010  0.65490  0.25580  Biso   1.000  H
  H70      1.0000 0.37990  0.65490  0.24420  Biso   1.000  H
  H71      1.0000 0.12010  0.15490  0.25580  Biso   1.000  H
  H72      1.0000 0.87990  0.15490  0.24420  Biso   1.000  H
  O49      1.0000 0.00000  0.35210  0.75000  Biso   1.000  O
  O50      1.0000 0.50000  0.85210  0.75000  Biso   1.000  O
  O51      1.0000 0.00000  0.64790  0.25000  Biso   1.000  O
  O52      1.0000 0.50000  0.14790  0.25000  Biso   1.000  O
