data_image0
_cell_length_a       7.886
_cell_length_b       20.759
_cell_length_c       8.312
_cell_angle_alpha    90
_cell_angle_beta     115.6
_cell_angle_gamma    90

_symmetry_space_group_name_H-M    "P 1"
_symmetry_int_tables_number       1

loop_
  _symmetry_equiv_pos_as_xyz
  'x, y, z'

loop_
  _atom_site_label
  _atom_site_occupancy
  _atom_site_fract_x
  _atom_site_fract_y
  _atom_site_fract_z
  _atom_site_thermal_displace_type
  _atom_site_B_iso_or_equiv
  _atom_site_type_symbol
  Cu1      1.0000 0.67100  0.83172  0.00028  Biso   1.000  Cu
  Cu2      1.0000 0.32900  0.33172  0.49972  Biso   1.000  Cu
  Cu3      1.0000 0.32900  0.16828  0.99972  Biso   1.000  Cu
  Cu4      1.0000 0.67100  0.66828  0.50028  Biso   1.000  Cu
  O1       1.0000 0.55760  0.82067  0.17730  Biso   1.000  O
  O2       1.0000 0.44240  0.32067  0.32270  Biso   1.000  O
  O3       1.0000 0.44240  0.17933  0.82270  Biso   1.000  O
  O4       1.0000 0.55760  0.67933  0.67730  Biso   1.000  O
  O5       1.0000 0.55130  0.75281  0.38340  Biso   1.000  O
  O6       1.0000 0.44870  0.25281  0.11660  Biso   1.000  O
  O7       1.0000 0.44870  0.24719  0.61660  Biso   1.000  O
  O8       1.0000 0.55130  0.74719  0.88340  Biso   1.000  O
  O9       1.0000 0.82410  0.68294  0.36680  Biso   1.000  O
  O10      1.0000 0.17590  0.18294  0.13320  Biso   1.000  O
  O11      1.0000 0.17590  0.31706  0.63320  Biso   1.000  O
  O12      1.0000 0.82410  0.81706  0.86680  Biso   1.000  O
  O13      1.0000 0.88960  0.76309  0.22330  Biso   1.000  O
  O14      1.0000 0.11040  0.26309  0.27670  Biso   1.000  O
  O15      1.0000 0.11040  0.23691  0.77670  Biso   1.000  O
  O16      1.0000 0.88960  0.73691  0.72330  Biso   1.000  O
  C1       1.0000 0.61800  0.77341  0.28040  Biso   1.000  C
  C2       1.0000 0.38200  0.27341  0.21960  Biso   1.000  C
  C3       1.0000 0.38200  0.22659  0.71960  Biso   1.000  C
  C4       1.0000 0.61800  0.72659  0.78040  Biso   1.000  C
  C5       1.0000 0.79390  0.73736  0.28910  Biso   1.000  C
  C6       1.0000 0.20610  0.23736  0.21090  Biso   1.000  C
  C7       1.0000 0.20610  0.26264  0.71090  Biso   1.000  C
  C8       1.0000 0.79390  0.76264  0.78910  Biso   1.000  C
  N1       1.0000 0.29030  0.96679  0.25200  Biso   1.000  N
  N2       1.0000 0.70970  0.46679  0.24800  Biso   1.000  N
  N3       1.0000 0.70970  0.03321  0.74800  Biso   1.000  N
  N4       1.0000 0.29030  0.53321  0.75200  Biso   1.000  N
  C9       1.0000 0.26750  0.02060  0.32080  Biso   1.000  C
  C10      1.0000 0.73250  0.52060  0.17920  Biso   1.000  C
  C11      1.0000 0.73250  0.97940  0.67920  Biso   1.000  C
  C12      1.0000 0.26750  0.47940  0.82080  Biso   1.000  C
  H1       1.0000 0.37220  0.04720  0.37310  Biso   1.000  H
  H2       1.0000 0.62780  0.54720  0.12690  Biso   1.000  H
  H3       1.0000 0.62780  0.95280  0.62690  Biso   1.000  H
  H4       1.0000 0.37220  0.45280  0.87310  Biso   1.000  H
  N5       1.0000 0.10700  0.04162  0.32350  Biso   1.000  N
  N6       1.0000 0.89300  0.54162  0.17650  Biso   1.000  N
  N7       1.0000 0.89300  0.95838  0.67650  Biso   1.000  N
  N8       1.0000 0.10700  0.45838  0.82350  Biso   1.000  N
  C13      1.0000 0.09380  0.10199  0.41210  Biso   1.000  C
  C14      1.0000 0.90620  0.60199  0.08790  Biso   1.000  C
  C15      1.0000 0.90620  0.89801  0.58790  Biso   1.000  C
  C16      1.0000 0.09380  0.39801  0.91210  Biso   1.000  C
  H5       1.0000 0.21460  0.12260  0.46460  Biso   1.000  H
  H6       1.0000 0.78540  0.62260  0.03540  Biso   1.000  H
  H7       1.0000 0.78540  0.87740  0.53540  Biso   1.000  H
  H8       1.0000 0.21460  0.37740  0.96460  Biso   1.000  H
  H9       1.0000 0.05400  0.09230  0.50350  Biso   1.000  H
  H10      1.0000 0.94600  0.59230  0.99650  Biso   1.000  H
  H11      1.0000 0.94600  0.90770  0.49650  Biso   1.000  H
  H12      1.0000 0.05400  0.40770  0.00350  Biso   1.000  H
  H13      1.0000 0.00410  0.13030  0.32580  Biso   1.000  H
  H14      1.0000 0.99590  0.63030  0.17420  Biso   1.000  H
  H15      1.0000 0.99590  0.86970  0.67420  Biso   1.000  H
  H16      1.0000 0.00410  0.36970  0.82580  Biso   1.000  H
  C17      1.0000 0.95470  0.00188  0.24580  Biso   1.000  C
  C18      1.0000 0.04530  0.50188  0.25420  Biso   1.000  C
  C19      1.0000 0.04530  0.99812  0.75420  Biso   1.000  C
  C20      1.0000 0.95470  0.49812  0.74580  Biso   1.000  C
  C21      1.0000 0.96600  0.94335  0.16850  Biso   1.000  C
  C22      1.0000 0.03400  0.44335  0.33150  Biso   1.000  C
  C23      1.0000 0.03400  0.05665  0.83150  Biso   1.000  C
  C24      1.0000 0.96600  0.55665  0.66850  Biso   1.000  C
  C25      1.0000 0.14050  0.92549  0.17000  Biso   1.000  C
  C26      1.0000 0.85950  0.42549  0.33000  Biso   1.000  C
  C27      1.0000 0.85950  0.07451  0.83000  Biso   1.000  C
  C28      1.0000 0.14050  0.57451  0.67000  Biso   1.000  C
  N9       1.0000 0.17010  0.87213  0.09950  Biso   1.000  N
  N10      1.0000 0.82990  0.37213  0.40050  Biso   1.000  N
  N11      1.0000 0.82990  0.12787  0.90050  Biso   1.000  N
  N12      1.0000 0.17010  0.62787  0.59950  Biso   1.000  N
  H17      1.0000 0.27980  0.86420  0.10580  Biso   1.000  H
  H18      1.0000 0.72020  0.36420  0.39420  Biso   1.000  H
  H19      1.0000 0.72020  0.13580  0.89420  Biso   1.000  H
  H20      1.0000 0.27980  0.63580  0.60580  Biso   1.000  H
  H21      1.0000 0.07970  0.84530  0.04740  Biso   1.000  H
  H22      1.0000 0.92030  0.34530  0.45260  Biso   1.000  H
  H23      1.0000 0.92030  0.15470  0.95260  Biso   1.000  H
  H24      1.0000 0.07970  0.65470  0.54740  Biso   1.000  H
  N13      1.0000 0.78950  0.91523  0.10790  Biso   1.000  N
  N14      1.0000 0.21050  0.41523  0.39210  Biso   1.000  N
  N15      1.0000 0.21050  0.08477  0.89210  Biso   1.000  N
  N16      1.0000 0.78950  0.58477  0.60790  Biso   1.000  N
  C29      1.0000 0.69000  0.95779  0.15120  Biso   1.000  C
  C30      1.0000 0.31000  0.45779  0.34880  Biso   1.000  C
  C31      1.0000 0.31000  0.04221  0.84880  Biso   1.000  C
  C32      1.0000 0.69000  0.54221  0.65120  Biso   1.000  C
  H25      1.0000 0.56410  0.95090  0.12440  Biso   1.000  H
  H26      1.0000 0.43590  0.45090  0.37560  Biso   1.000  H
  H27      1.0000 0.43590  0.04910  0.87560  Biso   1.000  H
  H28      1.0000 0.56410  0.54910  0.62440  Biso   1.000  H
  N17      1.0000 0.78180  0.01164  0.23620  Biso   1.000  N
  N18      1.0000 0.21820  0.51164  0.26380  Biso   1.000  N
  N19      1.0000 0.21820  0.98836  0.76380  Biso   1.000  N
  N20      1.0000 0.78180  0.48836  0.73620  Biso   1.000  N
  O17      1.0000 0.42360  0.87549  0.77720  Biso   1.000  O
  O18      1.0000 0.57640  0.37549  0.72280  Biso   1.000  O
  O19      1.0000 0.57640  0.12451  0.22280  Biso   1.000  O
  O20      1.0000 0.42360  0.62451  0.27720  Biso   1.000  O
  H29      1.0000 0.36070  0.91000  0.76260  Biso   1.000  H
  H30      1.0000 0.63930  0.41000  0.73740  Biso   1.000  H
  H31      1.0000 0.63930  0.09000  0.23740  Biso   1.000  H
  H32      1.0000 0.36070  0.59000  0.26260  Biso   1.000  H
  H33      1.0000 0.36730  0.85440  0.68090  Biso   1.000  H
  H34      1.0000 0.63270  0.35440  0.81910  Biso   1.000  H
  H35      1.0000 0.63270  0.14560  0.31910  Biso   1.000  H
  H36      1.0000 0.36730  0.64560  0.18090  Biso   1.000  H
  O21      1.0000 0.25990  0.79810  0.48070  Biso   1.000  O
  O22      1.0000 0.74010  0.29810  0.01930  Biso   1.000  O
  O23      1.0000 0.74010  0.20190  0.51930  Biso   1.000  O
  O24      1.0000 0.25990  0.70190  0.98070  Biso   1.000  O
  H37      1.0000 0.34290  0.78470  0.44860  Biso   1.000  H
  H38      1.0000 0.65710  0.28470  0.05140  Biso   1.000  H
  H39      1.0000 0.65710  0.21530  0.55140  Biso   1.000  H
  H40      1.0000 0.34290  0.71530  0.94860  Biso   1.000  H
  H41      1.0000 0.15600  0.78610  0.39800  Biso   1.000  H
  H42      1.0000 0.84400  0.28610  0.10200  Biso   1.000  H
  H43      1.0000 0.84400  0.21390  0.60200  Biso   1.000  H
  H44      1.0000 0.15600  0.71390  0.89800  Biso   1.000  H
