data_image0
_cell_length_a       6.8084
_cell_length_b       12.071
_cell_length_c       6.4224
_cell_angle_alpha    90
_cell_angle_beta     90
_cell_angle_gamma    90

_symmetry_space_group_name_H-M    "P 1"
_symmetry_int_tables_number       1

loop_
  _symmetry_equiv_pos_as_xyz
  'x, y, z'

loop_
  _atom_site_label
  _atom_site_occupancy
  _atom_site_fract_x
  _atom_site_fract_y
  _atom_site_fract_z
  _atom_site_thermal_displace_type
  _atom_site_B_iso_or_equiv
  _atom_site_type_symbol
  Cu1      1.0000 0.25000  0.25000  0.33505  Biso   1.000  Cu
  Cu2      1.0000 0.75000  0.75000  0.66495  Biso   1.000  Cu
  O1       1.0000 0.25000  0.25000  0.68350  Biso   1.000  O
  O2       1.0000 0.75000  0.75000  0.31650  Biso   1.000  O
  O3       1.0000 0.25000  0.08926  0.29030  Biso   1.000  O
  O4       1.0000 0.75000  0.58926  0.70970  Biso   1.000  O
  O5       1.0000 0.25000  0.41074  0.29030  Biso   1.000  O
  O6       1.0000 0.75000  0.91074  0.70970  Biso   1.000  O
  O7       1.0000 0.25000  0.07450  0.94380  Biso   1.000  O
  O8       1.0000 0.75000  0.57450  0.05620  Biso   1.000  O
  O9       1.0000 0.25000  0.42550  0.94380  Biso   1.000  O
  O10      1.0000 0.75000  0.92550  0.05620  Biso   1.000  O
  N1       1.0000 0.55730  0.25000  0.34130  Biso   1.000  N
  N2       1.0000 0.05730  0.75000  0.65870  Biso   1.000  N
  N3       1.0000 0.94270  0.25000  0.34130  Biso   1.000  N
  N4       1.0000 0.44270  0.75000  0.65870  Biso   1.000  N
  C1       1.0000 0.25000  0.03800  0.12000  Biso   1.000  C
  C2       1.0000 0.75000  0.53800  0.88000  Biso   1.000  C
  C3       1.0000 0.25000  0.46200  0.12000  Biso   1.000  C
  C4       1.0000 0.75000  0.96200  0.88000  Biso   1.000  C
  C5       1.0000 0.63790  0.25000  0.12690  Biso   1.000  C
  C6       1.0000 0.13790  0.75000  0.87310  Biso   1.000  C
  C7       1.0000 0.86210  0.25000  0.12690  Biso   1.000  C
  C8       1.0000 0.36210  0.75000  0.87310  Biso   1.000  C
  C9       1.0000 0.63840  0.15119  0.44900  Biso   1.000  C
  C10      1.0000 0.13840  0.65119  0.55100  Biso   1.000  C
  C11      1.0000 0.86160  0.15119  0.44900  Biso   1.000  C
  C12      1.0000 0.63840  0.34881  0.44900  Biso   1.000  C
  C13      1.0000 0.36160  0.84881  0.55100  Biso   1.000  C
  C14      1.0000 0.86160  0.34881  0.44900  Biso   1.000  C
  C15      1.0000 0.13840  0.84881  0.55100  Biso   1.000  C
  C16      1.0000 0.36160  0.65119  0.55100  Biso   1.000  C
  H1       1.0000 0.25000  0.31600  0.76100  Biso   1.000  H
  H2       1.0000 0.75000  0.81600  0.23900  Biso   1.000  H
  H3       1.0000 0.25000  0.18400  0.76100  Biso   1.000  H
  H4       1.0000 0.75000  0.68400  0.23900  Biso   1.000  H
  H5       1.0000 0.25000  0.95900  0.13900  Biso   1.000  H
  H6       1.0000 0.75000  0.45900  0.86100  Biso   1.000  H
  H7       1.0000 0.25000  0.54100  0.13900  Biso   1.000  H
  H8       1.0000 0.75000  0.04100  0.86100  Biso   1.000  H
  H9       1.0000 0.58800  0.31300  0.06800  Biso   1.000  H
  H10      1.0000 0.08800  0.81300  0.93200  Biso   1.000  H
  H11      1.0000 0.91200  0.31300  0.06800  Biso   1.000  H
  H12      1.0000 0.58800  0.18700  0.06800  Biso   1.000  H
  H13      1.0000 0.41200  0.68700  0.93200  Biso   1.000  H
  H14      1.0000 0.91200  0.18700  0.06800  Biso   1.000  H
  H15      1.0000 0.08800  0.68700  0.93200  Biso   1.000  H
  H16      1.0000 0.41200  0.81300  0.93200  Biso   1.000  H
  H17      1.0000 0.58500  0.08900  0.38500  Biso   1.000  H
  H18      1.0000 0.08500  0.58900  0.61500  Biso   1.000  H
  H19      1.0000 0.91500  0.08900  0.38500  Biso   1.000  H
  H20      1.0000 0.58500  0.41100  0.38500  Biso   1.000  H
  H21      1.0000 0.41500  0.91100  0.61500  Biso   1.000  H
  H22      1.0000 0.91500  0.41100  0.38500  Biso   1.000  H
  H23      1.0000 0.08500  0.91100  0.61500  Biso   1.000  H
  H24      1.0000 0.41500  0.58900  0.61500  Biso   1.000  H
  H25      1.0000 0.58000  0.15400  0.59100  Biso   1.000  H
  H26      1.0000 0.08000  0.65400  0.40900  Biso   1.000  H
  H27      1.0000 0.92000  0.15400  0.59100  Biso   1.000  H
  H28      1.0000 0.58000  0.34600  0.59100  Biso   1.000  H
  H29      1.0000 0.42000  0.84600  0.40900  Biso   1.000  H
  H30      1.0000 0.92000  0.34600  0.59100  Biso   1.000  H
  H31      1.0000 0.08000  0.84600  0.40900  Biso   1.000  H
  H32      1.0000 0.42000  0.65400  0.40900  Biso   1.000  H
