data_image0
_cell_length_a       6.83
_cell_length_b       11.339
_cell_length_c       14.627
_cell_angle_alpha    94.58
_cell_angle_beta     95.92
_cell_angle_gamma    102.54

_symmetry_space_group_name_H-M    "P 1"
_symmetry_int_tables_number       1

loop_
  _symmetry_equiv_pos_as_xyz
  'x, y, z'

loop_
  _atom_site_label
  _atom_site_occupancy
  _atom_site_fract_x
  _atom_site_fract_y
  _atom_site_fract_z
  _atom_site_thermal_displace_type
  _atom_site_B_iso_or_equiv
  _atom_site_type_symbol
  Cu1      1.0000 0.72941  0.76290  0.00097  Biso   1.000  Cu
  Cu2      1.0000 0.27059  0.23710  0.99903  Biso   1.000  Cu
  K1       1.0000 0.71404  0.91836  0.57449  Biso   1.000  K
  K2       1.0000 0.28596  0.08164  0.42551  Biso   1.000  K
  K3       1.0000 0.78333  0.59087  0.42584  Biso   1.000  K
  K4       1.0000 0.21667  0.40913  0.57416  Biso   1.000  K
  N1       1.0000 0.76340  0.88760  0.10899  Biso   1.000  N
  N2       1.0000 0.23660  0.11240  0.89101  Biso   1.000  N
  C1       1.0000 0.77860  0.84040  0.18740  Biso   1.000  C
  C2       1.0000 0.22140  0.15960  0.81260  Biso   1.000  C
  C3       1.0000 0.77920  0.90730  0.27240  Biso   1.000  C
  C4       1.0000 0.22080  0.09270  0.72760  Biso   1.000  C
  N3       1.0000 0.76570  0.02340  0.27433  Biso   1.000  N
  N4       1.0000 0.23430  0.97660  0.72567  Biso   1.000  N
  C5       1.0000 0.75120  0.07020  0.19450  Biso   1.000  C
  C6       1.0000 0.24880  0.92980  0.80550  Biso   1.000  C
  H1       1.0000 0.74300  0.15100  0.19500  Biso   1.000  H
  H2       1.0000 0.25700  0.84900  0.80500  Biso   1.000  H
  C7       1.0000 0.74790  0.00340  0.11100  Biso   1.000  C
  C8       1.0000 0.25210  0.99660  0.88900  Biso   1.000  C
  H3       1.0000 0.73500  0.03900  0.05600  Biso   1.000  H
  H4       1.0000 0.26500  0.96100  0.94400  Biso   1.000  H
  C9       1.0000 0.79460  0.70980  0.17880  Biso   1.000  C
  C10      1.0000 0.20540  0.29020  0.82120  Biso   1.000  C
  C11      1.0000 0.79140  0.85570  0.36430  Biso   1.000  C
  C12      1.0000 0.20860  0.14430  0.63570  Biso   1.000  C
  O1       1.0000 0.77480  0.65750  0.09650  Biso   1.000  O
  O2       1.0000 0.22520  0.34250  0.90350  Biso   1.000  O
  O3       1.0000 0.82530  0.65780  0.24852  Biso   1.000  O
  O4       1.0000 0.17470  0.34220  0.75148  Biso   1.000  O
  O5       1.0000 0.62850  0.80180  0.38902  Biso   1.000  O
  O6       1.0000 0.37150  0.19820  0.61098  Biso   1.000  O
  O7       1.0000 0.96040  0.87470  0.40944  Biso   1.000  O
  O8       1.0000 0.03960  0.12530  0.59056  Biso   1.000  O
  N5       1.0000 0.72210  0.64050  0.89461  Biso   1.000  N
  N6       1.0000 0.27790  0.35950  0.10539  Biso   1.000  N
  C13      1.0000 0.72450  0.68660  0.81490  Biso   1.000  C
  C14      1.0000 0.27550  0.31340  0.18510  Biso   1.000  C
  C15      1.0000 0.71550  0.61500  0.73180  Biso   1.000  C
  C16      1.0000 0.28450  0.38500  0.26820  Biso   1.000  C
  N7       1.0000 0.70410  0.49520  0.73188  Biso   1.000  N
  N8       1.0000 0.29590  0.50480  0.26812  Biso   1.000  N
  C17      1.0000 0.70160  0.44980  0.81290  Biso   1.000  C
  C18      1.0000 0.29840  0.55020  0.18710  Biso   1.000  C
  H5       1.0000 0.69300  0.36700  0.81400  Biso   1.000  H
  H6       1.0000 0.30700  0.63300  0.18600  Biso   1.000  H
  C19      1.0000 0.71130  0.52130  0.89550  Biso   1.000  C
  C20      1.0000 0.28870  0.47870  0.10450  Biso   1.000  C
  H7       1.0000 0.71000  0.48700  0.95100  Biso   1.000  H
  H8       1.0000 0.29000  0.51300  0.04900  Biso   1.000  H
  C21      1.0000 0.73720  0.82090  0.82270  Biso   1.000  C
  C22      1.0000 0.26280  0.17910  0.17730  Biso   1.000  C
  C23      1.0000 0.71370  0.66050  0.63800  Biso   1.000  C
  C24      1.0000 0.28630  0.33950  0.36200  Biso   1.000  C
  O9       1.0000 0.75420  0.87360  0.90503  Biso   1.000  O
  O10      1.0000 0.24580  0.12640  0.09497  Biso   1.000  O
  O11      1.0000 0.72430  0.87410  0.75255  Biso   1.000  O
  O12      1.0000 0.27570  0.12590  0.24745  Biso   1.000  O
  O13      1.0000 0.87830  0.70530  0.61140  Biso   1.000  O
  O14      1.0000 0.12170  0.29470  0.38860  Biso   1.000  O
  O15      1.0000 0.54520  0.64470  0.59204  Biso   1.000  O
  O16      1.0000 0.45480  0.35530  0.40796  Biso   1.000  O
  O17      1.0000 0.40000  0.73800  0.99890  Biso   1.000  O
  O18      1.0000 0.60000  0.26200  0.00110  Biso   1.000  O
  H9       1.0000 0.33500  0.78300  0.02600  Biso   1.000  H
  H10      1.0000 0.66500  0.21700  0.97400  Biso   1.000  H
  H11      1.0000 0.31800  0.69900  0.95300  Biso   1.000  H
  H12      1.0000 0.68200  0.30100  0.04700  Biso   1.000  H
  O19      1.0000 0.70200  0.12000  0.45529  Biso   1.000  O
  O20      1.0000 0.29800  0.88000  0.54471  Biso   1.000  O
  H13      1.0000 0.81200  0.16100  0.48500  Biso   1.000  H
  H14      1.0000 0.18800  0.83900  0.51500  Biso   1.000  H
  H15      1.0000 0.72000  0.12300  0.39900  Biso   1.000  H
  H16      1.0000 0.28000  0.87700  0.60100  Biso   1.000  H
  O21      1.0000 0.71880  0.16200  0.69920  Biso   1.000  O
  O22      1.0000 0.28120  0.83800  0.30080  Biso   1.000  O
  H17      1.0000 0.74100  0.19600  0.75400  Biso   1.000  H
  H18      1.0000 0.25900  0.80400  0.24600  Biso   1.000  H
  H19      1.0000 0.62800  0.19300  0.67200  Biso   1.000  H
  H20      1.0000 0.37200  0.80700  0.32800  Biso   1.000  H
  O23      1.0000 0.80130  0.39140  0.55420  Biso   1.000  O
  O24      1.0000 0.19870  0.60860  0.44580  Biso   1.000  O
  H21      1.0000 0.78600  0.39600  0.61100  Biso   1.000  H
  H22      1.0000 0.21400  0.60400  0.38900  Biso   1.000  H
  H23      1.0000 0.69700  0.34100  0.52700  Biso   1.000  H
  H24      1.0000 0.30300  0.65900  0.47300  Biso   1.000  H
  O25      1.0000 0.78590  0.35860  0.31170  Biso   1.000  O
  O26      1.0000 0.21410  0.64140  0.68830  Biso   1.000  O
  H25      1.0000 0.88000  0.33100  0.33900  Biso   1.000  H
  H26      1.0000 0.12000  0.66900  0.66100  Biso   1.000  H
  H27      1.0000 0.68000  0.32900  0.33600  Biso   1.000  H
  H28      1.0000 0.32000  0.67100  0.66400  Biso   1.000  H
  O27      1.0000 0.24060  0.87640  0.11770  Biso   1.000  O
  O28      1.0000 0.75940  0.12360  0.88230  Biso   1.000  O
  H29      1.0000 0.26400  0.95300  0.13000  Biso   1.000  H
  H30      1.0000 0.73600  0.04700  0.87000  Biso   1.000  H
  H31      1.0000 0.11400  0.85500  0.10000  Biso   1.000  H
  H32      1.0000 0.88600  0.14500  0.90000  Biso   1.000  H
  O29      1.0000 0.82280  0.41390  0.13780  Biso   1.000  O
  O30      1.0000 0.17720  0.58610  0.86220  Biso   1.000  O
  H33      1.0000 0.81900  0.39600  0.19300  Biso   1.000  H
  H34      1.0000 0.18100  0.60400  0.80700  Biso   1.000  H
  H35      1.0000 0.80400  0.48600  0.13900  Biso   1.000  H
  H36      1.0000 0.19600  0.51400  0.86100  Biso   1.000  H
