data_image0
_cell_length_a       3.78
_cell_length_b       8.692
_cell_length_c       11.549
_cell_angle_alpha    106.031
_cell_angle_beta     95.536
_cell_angle_gamma    96.338

_symmetry_space_group_name_H-M    "P 1"
_symmetry_int_tables_number       1

loop_
  _symmetry_equiv_pos_as_xyz
  'x, y, z'

loop_
  _atom_site_label
  _atom_site_occupancy
  _atom_site_fract_x
  _atom_site_fract_y
  _atom_site_fract_z
  _atom_site_thermal_displace_type
  _atom_site_B_iso_or_equiv
  _atom_site_type_symbol
  Cu1      1.0000 0.62450  0.41457  0.60040  Biso   1.000  Cu
  Cu2      1.0000 0.37550  0.58543  0.39960  Biso   1.000  Cu
  Cl1      1.0000 0.10600  0.32030  0.69260  Biso   1.000  Cl
  Cl2      1.0000 0.89400  0.67970  0.30740  Biso   1.000  Cl
  N1       1.0000 0.62330  0.65200  0.65470  Biso   1.000  N
  N2       1.0000 0.37670  0.34800  0.34530  Biso   1.000  N
  N3       1.0000 0.52400  0.27900  0.42670  Biso   1.000  N
  N4       1.0000 0.47600  0.72100  0.57330  Biso   1.000  N
  Cu3      1.0000 0.18560  0.39940  0.90057  Biso   1.000  Cu
  Cu4      1.0000 0.81440  0.60060  0.09943  Biso   1.000  Cu
  C1       1.0000 0.72600  0.74190  0.76830  Biso   1.000  C
  C2       1.0000 0.27400  0.25810  0.23170  Biso   1.000  C
  Cl3      1.0000 0.69130  0.31050  0.98890  Biso   1.000  Cl
  Cl4      1.0000 0.30870  0.68950  0.01110  Biso   1.000  Cl
  C3       1.0000 0.68200  0.90210  0.80840  Biso   1.000  C
  C4       1.0000 0.31800  0.09790  0.19160  Biso   1.000  C
  C5       1.0000 0.43100  0.87510  0.61070  Biso   1.000  C
  C6       1.0000 0.56900  0.12490  0.38930  Biso   1.000  C
  C7       1.0000 0.52700  0.97020  0.72820  Biso   1.000  C
  C8       1.0000 0.47300  0.02980  0.27180  Biso   1.000  C
