data_image0
_cell_length_a       12.87
_cell_length_b       7.033
_cell_length_c       9.673
_cell_angle_alpha    90
_cell_angle_beta     91.27
_cell_angle_gamma    90

_symmetry_space_group_name_H-M    "P 1"
_symmetry_int_tables_number       1

loop_
  _symmetry_equiv_pos_as_xyz
  'x, y, z'

loop_
  _atom_site_label
  _atom_site_occupancy
  _atom_site_fract_x
  _atom_site_fract_y
  _atom_site_fract_z
  _atom_site_thermal_displace_type
  _atom_site_B_iso_or_equiv
  _atom_site_type_symbol
  Cu1      1.0000 0.24170  0.25000  0.21070  Biso   1.000  Cu
  Cu2      1.0000 0.75830  0.75000  0.78930  Biso   1.000  Cu
  S1       1.0000 0.34200  0.75000  0.44960  Biso   1.000  S
  S2       1.0000 0.65800  0.25000  0.55040  Biso   1.000  S
  S3       1.0000 0.22350  0.75000  0.29140  Biso   1.000  S
  S4       1.0000 0.77650  0.25000  0.70860  Biso   1.000  S
  N1       1.0000 0.08370  0.25000  0.20720  Biso   1.000  N
  N2       1.0000 0.91630  0.75000  0.79280  Biso   1.000  N
  N3       1.0000 0.21560  0.25000  0.01180  Biso   1.000  N
  N4       1.0000 0.78440  0.75000  0.98820  Biso   1.000  N
  N5       1.0000 0.38990  0.25000  0.14610  Biso   1.000  N
  N6       1.0000 0.61010  0.75000  0.85390  Biso   1.000  N
  O1       1.0000 0.32050  0.57730  0.52960  Biso   1.000  O
  O2       1.0000 0.67950  0.07730  0.47040  Biso   1.000  O
  O3       1.0000 0.67950  0.42270  0.47040  Biso   1.000  O
  O4       1.0000 0.32050  0.92270  0.52960  Biso   1.000  O
  O5       1.0000 0.43790  0.75000  0.38090  Biso   1.000  O
  O6       1.0000 0.56210  0.25000  0.61910  Biso   1.000  O
  O7       1.0000 0.12770  0.75000  0.36010  Biso   1.000  O
  O8       1.0000 0.87230  0.25000  0.63990  Biso   1.000  O
  O9       1.0000 0.24510  0.57980  0.20950  Biso   1.000  O
  O10      1.0000 0.75490  0.07980  0.79050  Biso   1.000  O
  O11      1.0000 0.75490  0.42020  0.79050  Biso   1.000  O
  O12      1.0000 0.24510  0.92020  0.20950  Biso   1.000  O
  O13      1.0000 0.26550  0.25000  0.41230  Biso   1.000  O
  O14      1.0000 0.73450  0.75000  0.58770  Biso   1.000  O
  C1       1.0000 0.02010  0.25000  0.31410  Biso   1.000  C
  C2       1.0000 0.97990  0.75000  0.68590  Biso   1.000  C
  C3       1.0000 0.91610  0.25000  0.30100  Biso   1.000  C
  C4       1.0000 0.08390  0.75000  0.69900  Biso   1.000  C
  C5       1.0000 0.87230  0.25000  0.16920  Biso   1.000  C
  C6       1.0000 0.12770  0.75000  0.83080  Biso   1.000  C
  C7       1.0000 0.93610  0.25000  0.05670  Biso   1.000  C
  C8       1.0000 0.06390  0.75000  0.94330  Biso   1.000  C
  C9       1.0000 0.04060  0.25000  0.07710  Biso   1.000  C
  C10      1.0000 0.95940  0.75000  0.92290  Biso   1.000  C
  C11      1.0000 0.11770  0.25000  0.96650  Biso   1.000  C
  C12      1.0000 0.88230  0.75000  0.03350  Biso   1.000  C
  C13      1.0000 0.09630  0.25000  0.82420  Biso   1.000  C
  C14      1.0000 0.90370  0.75000  0.17580  Biso   1.000  C
  C15      1.0000 0.18040  0.25000  0.73720  Biso   1.000  C
  C16      1.0000 0.81960  0.75000  0.26280  Biso   1.000  C
  C17      1.0000 0.28140  0.25000  0.78710  Biso   1.000  C
  C18      1.0000 0.71860  0.75000  0.21290  Biso   1.000  C
  C19      1.0000 0.29810  0.25000  0.92990  Biso   1.000  C
  C20      1.0000 0.70190  0.75000  0.07010  Biso   1.000  C
  C21      1.0000 0.39750  0.25000  0.00500  Biso   1.000  C
  C22      1.0000 0.60250  0.75000  0.99500  Biso   1.000  C
  C23      1.0000 0.49280  0.25000  0.94330  Biso   1.000  C
  C24      1.0000 0.50720  0.75000  0.05670  Biso   1.000  C
  C25      1.0000 0.58150  0.25000  0.02540  Biso   1.000  C
  C26      1.0000 0.41850  0.75000  0.97460  Biso   1.000  C
  C27      1.0000 0.57340  0.25000  0.16740  Biso   1.000  C
  C28      1.0000 0.42660  0.75000  0.83260  Biso   1.000  C
  C29      1.0000 0.47600  0.25000  0.22210  Biso   1.000  C
  C30      1.0000 0.52400  0.75000  0.77790  Biso   1.000  C
