data_image0
_cell_length_a       13.528
_cell_length_b       9.435
_cell_length_c       12.836
_cell_angle_alpha    90
_cell_angle_beta     118.33
_cell_angle_gamma    90

_symmetry_space_group_name_H-M    "P 1"
_symmetry_int_tables_number       1

loop_
  _symmetry_equiv_pos_as_xyz
  'x, y, z'

loop_
  _atom_site_label
  _atom_site_occupancy
  _atom_site_fract_x
  _atom_site_fract_y
  _atom_site_fract_z
  _atom_site_thermal_displace_type
  _atom_site_B_iso_or_equiv
  _atom_site_type_symbol
  Cu1      1.0000 0.24960  0.70480  0.24030  Biso   1.000  Cu
  Cu2      1.0000 0.25040  0.70480  0.75970  Biso   1.000  Cu
  Cu3      1.0000 0.75040  0.29520  0.75970  Biso   1.000  Cu
  Cu4      1.0000 0.74960  0.29520  0.24030  Biso   1.000  Cu
  S1       1.0000 0.51370  0.56420  0.44020  Biso   1.000  S
  S2       1.0000 0.98630  0.56420  0.55980  Biso   1.000  S
  S3       1.0000 0.48630  0.43580  0.55980  Biso   1.000  S
  S4       1.0000 0.01370  0.43580  0.44020  Biso   1.000  S
  S5       1.0000 0.97190  0.60630  0.97620  Biso   1.000  S
  S6       1.0000 0.52810  0.60630  0.02380  Biso   1.000  S
  S7       1.0000 0.02810  0.39370  0.02380  Biso   1.000  S
  S8       1.0000 0.47190  0.39370  0.97620  Biso   1.000  S
  O1       1.0000 0.43500  0.68080  0.41090  Biso   1.000  O
  O2       1.0000 0.06500  0.68080  0.58910  Biso   1.000  O
  O3       1.0000 0.56500  0.31920  0.58910  Biso   1.000  O
  O4       1.0000 0.93500  0.31920  0.41090  Biso   1.000  O
  O5       1.0000 0.48790  0.47180  0.33950  Biso   1.000  O
  O6       1.0000 0.01210  0.47180  0.66050  Biso   1.000  O
  O7       1.0000 0.51210  0.52820  0.66050  Biso   1.000  O
  O8       1.0000 0.98790  0.52820  0.33950  Biso   1.000  O
  O9       1.0000 0.63120  0.60800  0.50750  Biso   1.000  O
  O10      1.0000 0.86880  0.60800  0.49250  Biso   1.000  O
  O11      1.0000 0.36880  0.39200  0.49250  Biso   1.000  O
  O12      1.0000 0.13120  0.39200  0.50750  Biso   1.000  O
  O13      1.0000 0.05820  0.69500  0.06690  Biso   1.000  O
  O14      1.0000 0.44180  0.69500  0.93310  Biso   1.000  O
  O15      1.0000 0.94180  0.30500  0.93310  Biso   1.000  O
  O16      1.0000 0.55820  0.30500  0.06690  Biso   1.000  O
  O17      1.0000 0.86410  0.61090  0.97600  Biso   1.000  O
  O18      1.0000 0.63590  0.61090  0.02400  Biso   1.000  O
  O19      1.0000 0.13590  0.38910  0.02400  Biso   1.000  O
  O20      1.0000 0.36410  0.38910  0.97600  Biso   1.000  O
  O21      1.0000 0.96040  0.62510  0.85820  Biso   1.000  O
  O22      1.0000 0.53960  0.62510  0.14180  Biso   1.000  O
  O23      1.0000 0.03960  0.37490  0.14180  Biso   1.000  O
  O24      1.0000 0.46040  0.37490  0.85820  Biso   1.000  O
  O25      1.0000 0.20670  0.54190  0.30800  Biso   1.000  O
  O26      1.0000 0.29330  0.54190  0.69200  Biso   1.000  O
  O27      1.0000 0.79330  0.45810  0.69200  Biso   1.000  O
  O28      1.0000 0.70670  0.45810  0.30800  Biso   1.000  O
  O29      1.0000 0.29890  0.58080  0.14940  Biso   1.000  O
  O30      1.0000 0.20110  0.58080  0.85060  Biso   1.000  O
  O31      1.0000 0.70110  0.41920  0.85060  Biso   1.000  O
  O32      1.0000 0.79890  0.41920  0.14940  Biso   1.000  O
  N1       1.0000 0.18970  0.84630  0.30970  Biso   1.000  N
  N2       1.0000 0.31030  0.84630  0.69030  Biso   1.000  N
  N3       1.0000 0.81030  0.15370  0.69030  Biso   1.000  N
  N4       1.0000 0.68970  0.15370  0.30970  Biso   1.000  N
  N5       1.0000 0.29840  0.88030  0.19160  Biso   1.000  N
  N6       1.0000 0.20160  0.88030  0.80840  Biso   1.000  N
  N7       1.0000 0.70160  0.11970  0.80840  Biso   1.000  N
  N8       1.0000 0.79840  0.11970  0.19160  Biso   1.000  N
  C1       1.0000 0.13360  0.81750  0.37050  Biso   1.000  C
  C2       1.0000 0.36640  0.81750  0.62950  Biso   1.000  C
  C3       1.0000 0.86640  0.18250  0.62950  Biso   1.000  C
  C4       1.0000 0.63360  0.18250  0.37050  Biso   1.000  C
  C5       1.0000 0.09280  0.92340  0.41370  Biso   1.000  C
  C6       1.0000 0.40720  0.92340  0.58630  Biso   1.000  C
  C7       1.0000 0.90720  0.07660  0.58630  Biso   1.000  C
  C8       1.0000 0.59280  0.07660  0.41370  Biso   1.000  C
  C9       1.0000 0.10890  0.06080  0.39450  Biso   1.000  C
  C10      1.0000 0.39110  0.06080  0.60550  Biso   1.000  C
  C11      1.0000 0.89110  0.93920  0.60550  Biso   1.000  C
  C12      1.0000 0.60890  0.93920  0.39450  Biso   1.000  C
  C13      1.0000 0.16640  0.09340  0.33120  Biso   1.000  C
  C14      1.0000 0.33360  0.09340  0.66880  Biso   1.000  C
  C15      1.0000 0.83360  0.90660  0.66880  Biso   1.000  C
  C16      1.0000 0.66640  0.90660  0.33120  Biso   1.000  C
  C17      1.0000 0.20570  0.98200  0.29120  Biso   1.000  C
  C18      1.0000 0.29430  0.98200  0.70880  Biso   1.000  C
  C19      1.0000 0.79430  0.01800  0.70880  Biso   1.000  C
  C20      1.0000 0.70570  0.01800  0.29120  Biso   1.000  C
  C21      1.0000 0.27120  0.00130  0.22680  Biso   1.000  C
  C22      1.0000 0.22880  0.00130  0.77320  Biso   1.000  C
  C23      1.0000 0.72880  0.99870  0.77320  Biso   1.000  C
  C24      1.0000 0.77120  0.99870  0.22680  Biso   1.000  C
  C25      1.0000 0.30320  0.13360  0.20550  Biso   1.000  C
  C26      1.0000 0.19680  0.13360  0.79450  Biso   1.000  C
  C27      1.0000 0.69680  0.86640  0.79450  Biso   1.000  C
  C28      1.0000 0.80320  0.86640  0.20550  Biso   1.000  C
  C29      1.0000 0.36580  0.13890  0.14490  Biso   1.000  C
  C30      1.0000 0.13420  0.13890  0.85510  Biso   1.000  C
  C31      1.0000 0.63420  0.86110  0.85510  Biso   1.000  C
  C32      1.0000 0.86580  0.86110  0.14490  Biso   1.000  C
  C33      1.0000 0.39300  0.01560  0.10970  Biso   1.000  C
  C34      1.0000 0.10700  0.01560  0.89030  Biso   1.000  C
  C35      1.0000 0.60700  0.98440  0.89030  Biso   1.000  C
  C36      1.0000 0.89300  0.98440  0.10970  Biso   1.000  C
  C37      1.0000 0.35930  0.88760  0.13370  Biso   1.000  C
  C38      1.0000 0.14070  0.88760  0.86630  Biso   1.000  C
  C39      1.0000 0.64070  0.11240  0.86630  Biso   1.000  C
  C40      1.0000 0.85930  0.11240  0.13370  Biso   1.000  C
