data_image0
_cell_length_a       23.208
_cell_length_b       5.575
_cell_length_c       16.581
_cell_angle_alpha    90
_cell_angle_beta     114.765
_cell_angle_gamma    90

_symmetry_space_group_name_H-M    "P 1"
_symmetry_int_tables_number       1

loop_
  _symmetry_equiv_pos_as_xyz
  'x, y, z'

loop_
  _atom_site_label
  _atom_site_occupancy
  _atom_site_fract_x
  _atom_site_fract_y
  _atom_site_fract_z
  _atom_site_thermal_displace_type
  _atom_site_B_iso_or_equiv
  _atom_site_type_symbol
  Cu1      1.0000 0.50000  0.16834  0.25000  Biso   1.000  Cu
  Cu2      1.0000 0.00000  0.66834  0.25000  Biso   1.000  Cu
  Cu3      1.0000 0.50000  0.83166  0.75000  Biso   1.000  Cu
  Cu4      1.0000 0.00000  0.33166  0.75000  Biso   1.000  Cu
  O1       1.0000 0.50000  0.77380  0.25000  Biso   1.000  O
  O2       1.0000 0.00000  0.27380  0.25000  Biso   1.000  O
  O3       1.0000 0.50000  0.22620  0.75000  Biso   1.000  O
  O4       1.0000 0.00000  0.72620  0.75000  Biso   1.000  O
  O5       1.0000 0.47398  0.15730  0.34742  Biso   1.000  O
  O6       1.0000 0.97398  0.65730  0.34742  Biso   1.000  O
  O7       1.0000 0.52602  0.15730  0.15258  Biso   1.000  O
  O8       1.0000 0.02602  0.65730  0.15258  Biso   1.000  O
  O9       1.0000 0.52602  0.84270  0.65258  Biso   1.000  O
  O10      1.0000 0.02602  0.34270  0.65258  Biso   1.000  O
  O11      1.0000 0.47398  0.84270  0.84742  Biso   1.000  O
  O12      1.0000 0.97398  0.34270  0.84742  Biso   1.000  O
  N1       1.0000 0.40875  0.21020  0.16174  Biso   1.000  N
  N2       1.0000 0.90875  0.71020  0.16174  Biso   1.000  N
  N3       1.0000 0.59125  0.21020  0.33826  Biso   1.000  N
  N4       1.0000 0.09125  0.71020  0.33826  Biso   1.000  N
  N5       1.0000 0.59125  0.78980  0.83826  Biso   1.000  N
  N6       1.0000 0.09125  0.28980  0.83826  Biso   1.000  N
  N7       1.0000 0.40875  0.78980  0.66174  Biso   1.000  N
  N8       1.0000 0.90875  0.28980  0.66174  Biso   1.000  N
  O13      1.0000 0.44031  0.53350  0.33598  Biso   1.000  O
  O14      1.0000 0.94031  0.03350  0.33598  Biso   1.000  O
  O15      1.0000 0.55969  0.53350  0.16402  Biso   1.000  O
  O16      1.0000 0.05969  0.03350  0.16402  Biso   1.000  O
  O17      1.0000 0.55969  0.46650  0.66402  Biso   1.000  O
  O18      1.0000 0.05969  0.96650  0.66402  Biso   1.000  O
  O19      1.0000 0.44031  0.46650  0.83598  Biso   1.000  O
  O20      1.0000 0.94031  0.96650  0.83598  Biso   1.000  O
  N9       1.0000 0.32070  0.81520  0.31658  Biso   1.000  N
  N10      1.0000 0.82070  0.31520  0.31658  Biso   1.000  N
  N11      1.0000 0.67930  0.81520  0.18342  Biso   1.000  N
  N12      1.0000 0.17930  0.31520  0.18342  Biso   1.000  N
  N13      1.0000 0.67930  0.18480  0.68342  Biso   1.000  N
  N14      1.0000 0.17930  0.68480  0.68342  Biso   1.000  N
  N15      1.0000 0.32070  0.18480  0.81658  Biso   1.000  N
  N16      1.0000 0.82070  0.68480  0.81658  Biso   1.000  N
  O21      1.0000 0.29264  0.17050  0.35164  Biso   1.000  O
  O22      1.0000 0.79264  0.67050  0.35164  Biso   1.000  O
  O23      1.0000 0.70736  0.17050  0.14836  Biso   1.000  O
  O24      1.0000 0.20736  0.67050  0.14836  Biso   1.000  O
  O25      1.0000 0.70736  0.82950  0.64836  Biso   1.000  O
  O26      1.0000 0.20736  0.32950  0.64836  Biso   1.000  O
  O27      1.0000 0.29264  0.82950  0.85164  Biso   1.000  O
  O28      1.0000 0.79264  0.32950  0.85164  Biso   1.000  O
  C1       1.0000 0.36519  0.04980  0.15850  Biso   1.000  C
  C2       1.0000 0.86519  0.54980  0.15850  Biso   1.000  C
  C3       1.0000 0.63481  0.04980  0.34150  Biso   1.000  C
  C4       1.0000 0.13481  0.54980  0.34150  Biso   1.000  C
  C5       1.0000 0.63481  0.95020  0.84150  Biso   1.000  C
  C6       1.0000 0.13481  0.45020  0.84150  Biso   1.000  C
  C7       1.0000 0.36519  0.95020  0.65850  Biso   1.000  C
  C8       1.0000 0.86519  0.45020  0.65850  Biso   1.000  C
  C9       1.0000 0.30300  0.05980  0.09703  Biso   1.000  C
  C10      1.0000 0.80300  0.55980  0.09703  Biso   1.000  C
  C11      1.0000 0.69700  0.05980  0.40297  Biso   1.000  C
  C12      1.0000 0.19700  0.55980  0.40297  Biso   1.000  C
  C13      1.0000 0.69700  0.94020  0.90297  Biso   1.000  C
  C14      1.0000 0.19700  0.44020  0.90297  Biso   1.000  C
  C15      1.0000 0.30300  0.94020  0.59703  Biso   1.000  C
  C16      1.0000 0.80300  0.44020  0.59703  Biso   1.000  C
  C17      1.0000 0.28319  0.24280  0.03451  Biso   1.000  C
  C18      1.0000 0.78319  0.74280  0.03451  Biso   1.000  C
  C19      1.0000 0.71681  0.24280  0.46549  Biso   1.000  C
  C20      1.0000 0.21681  0.74280  0.46549  Biso   1.000  C
  C21      1.0000 0.71681  0.75720  0.96549  Biso   1.000  C
  C22      1.0000 0.21681  0.25720  0.96549  Biso   1.000  C
  C23      1.0000 0.28319  0.75720  0.53451  Biso   1.000  C
  C24      1.0000 0.78319  0.25720  0.53451  Biso   1.000  C
  C25      1.0000 0.32841  0.41140  0.03939  Biso   1.000  C
  C26      1.0000 0.82841  0.91140  0.03939  Biso   1.000  C
  C27      1.0000 0.67159  0.41140  0.46061  Biso   1.000  C
  C28      1.0000 0.17159  0.91140  0.46061  Biso   1.000  C
  C29      1.0000 0.67159  0.58860  0.96061  Biso   1.000  C
  C30      1.0000 0.17159  0.08860  0.96061  Biso   1.000  C
  C31      1.0000 0.32841  0.58860  0.53939  Biso   1.000  C
  C32      1.0000 0.82841  0.08860  0.53939  Biso   1.000  C
  C33      1.0000 0.38980  0.38910  0.10305  Biso   1.000  C
  C34      1.0000 0.88980  0.88910  0.10305  Biso   1.000  C
  C35      1.0000 0.61020  0.38910  0.39695  Biso   1.000  C
  C36      1.0000 0.11020  0.88910  0.39695  Biso   1.000  C
  C37      1.0000 0.61020  0.61090  0.89695  Biso   1.000  C
  C38      1.0000 0.11020  0.11090  0.89695  Biso   1.000  C
  C39      1.0000 0.38980  0.61090  0.60305  Biso   1.000  C
  C40      1.0000 0.88980  0.11090  0.60305  Biso   1.000  C
  C41      1.0000 0.44809  0.33030  0.36885  Biso   1.000  C
  C42      1.0000 0.94809  0.83030  0.36885  Biso   1.000  C
  C43      1.0000 0.55191  0.33030  0.13115  Biso   1.000  C
  C44      1.0000 0.05191  0.83030  0.13115  Biso   1.000  C
  C45      1.0000 0.55191  0.66970  0.63115  Biso   1.000  C
  C46      1.0000 0.05191  0.16970  0.63115  Biso   1.000  C
  C47      1.0000 0.44809  0.66970  0.86885  Biso   1.000  C
  C48      1.0000 0.94809  0.16970  0.86885  Biso   1.000  C
  C49      1.0000 0.42737  0.28090  0.44266  Biso   1.000  C
  C50      1.0000 0.92737  0.78090  0.44266  Biso   1.000  C
  C51      1.0000 0.57263  0.28090  0.05734  Biso   1.000  C
  C52      1.0000 0.07263  0.78090  0.05734  Biso   1.000  C
  C53      1.0000 0.57263  0.71910  0.55734  Biso   1.000  C
  C54      1.0000 0.07263  0.21910  0.55734  Biso   1.000  C
  C55      1.0000 0.42737  0.71910  0.94266  Biso   1.000  C
  C56      1.0000 0.92737  0.21910  0.94266  Biso   1.000  C
  C57      1.0000 0.39820  0.03510  0.43857  Biso   1.000  C
  C58      1.0000 0.89820  0.53510  0.43857  Biso   1.000  C
  C59      1.0000 0.60180  0.03510  0.06143  Biso   1.000  C
  C60      1.0000 0.10180  0.53510  0.06143  Biso   1.000  C
  C61      1.0000 0.60180  0.96490  0.56143  Biso   1.000  C
  C62      1.0000 0.10180  0.46490  0.56143  Biso   1.000  C
  C63      1.0000 0.39820  0.96490  0.93857  Biso   1.000  C
  C64      1.0000 0.89820  0.46490  0.93857  Biso   1.000  C
  C65      1.0000 0.33218  0.01360  0.36396  Biso   1.000  C
  C66      1.0000 0.83218  0.51360  0.36396  Biso   1.000  C
  C67      1.0000 0.66782  0.01360  0.13604  Biso   1.000  C
  C68      1.0000 0.16782  0.51360  0.13604  Biso   1.000  C
  C69      1.0000 0.66782  0.98640  0.63604  Biso   1.000  C
  C70      1.0000 0.16782  0.48640  0.63604  Biso   1.000  C
  C71      1.0000 0.33218  0.98640  0.86396  Biso   1.000  C
  C72      1.0000 0.83218  0.48640  0.86396  Biso   1.000  C
  H1       1.0000 0.34600  0.72600  0.32150  Biso   1.000  H
  H2       1.0000 0.84600  0.22600  0.32150  Biso   1.000  H
  H3       1.0000 0.65400  0.72600  0.17850  Biso   1.000  H
  H4       1.0000 0.15400  0.22600  0.17850  Biso   1.000  H
  H5       1.0000 0.65400  0.27400  0.67850  Biso   1.000  H
  H6       1.0000 0.15400  0.77400  0.67850  Biso   1.000  H
  H7       1.0000 0.34600  0.27400  0.82150  Biso   1.000  H
  H8       1.0000 0.84600  0.77400  0.82150  Biso   1.000  H
  H9       1.0000 0.28810  0.79300  0.28200  Biso   1.000  H
  H10      1.0000 0.78810  0.29300  0.28200  Biso   1.000  H
  H11      1.0000 0.71190  0.79300  0.21800  Biso   1.000  H
  H12      1.0000 0.21190  0.29300  0.21800  Biso   1.000  H
  H13      1.0000 0.71190  0.20700  0.71800  Biso   1.000  H
  H14      1.0000 0.21190  0.70700  0.71800  Biso   1.000  H
  H15      1.0000 0.28810  0.20700  0.78200  Biso   1.000  H
  H16      1.0000 0.78810  0.70700  0.78200  Biso   1.000  H
  H17      1.0000 0.51650  0.68700  0.22350  Biso   1.000  H
  H18      1.0000 0.01650  0.18700  0.22350  Biso   1.000  H
  H19      1.0000 0.48350  0.68700  0.27650  Biso   1.000  H
  H20      1.0000 0.98350  0.18700  0.27650  Biso   1.000  H
  H21      1.0000 0.48350  0.31300  0.77650  Biso   1.000  H
  H22      1.0000 0.98350  0.81300  0.77650  Biso   1.000  H
  H23      1.0000 0.51650  0.31300  0.72350  Biso   1.000  H
  H24      1.0000 0.01650  0.81300  0.72350  Biso   1.000  H
  H25      1.0000 0.37850  0.92400  0.19900  Biso   1.000  H
  H26      1.0000 0.87850  0.42400  0.19900  Biso   1.000  H
  H27      1.0000 0.62150  0.92400  0.30100  Biso   1.000  H
  H28      1.0000 0.12150  0.42400  0.30100  Biso   1.000  H
  H29      1.0000 0.62150  0.07600  0.80100  Biso   1.000  H
  H30      1.0000 0.12150  0.57600  0.80100  Biso   1.000  H
  H31      1.0000 0.37850  0.07600  0.69900  Biso   1.000  H
  H32      1.0000 0.87850  0.57600  0.69900  Biso   1.000  H
  H33      1.0000 0.27750  0.95200  0.09920  Biso   1.000  H
  H34      1.0000 0.77750  0.45200  0.09920  Biso   1.000  H
  H35      1.0000 0.72250  0.95200  0.40080  Biso   1.000  H
  H36      1.0000 0.22250  0.45200  0.40080  Biso   1.000  H
  H37      1.0000 0.72250  0.04800  0.90080  Biso   1.000  H
  H38      1.0000 0.22250  0.54800  0.90080  Biso   1.000  H
  H39      1.0000 0.27750  0.04800  0.59920  Biso   1.000  H
  H40      1.0000 0.77750  0.54800  0.59920  Biso   1.000  H
  H41      1.0000 0.31890  0.54100  0.00130  Biso   1.000  H
  H42      1.0000 0.81890  0.04100  0.00130  Biso   1.000  H
  H43      1.0000 0.68110  0.54100  0.49870  Biso   1.000  H
  H44      1.0000 0.18110  0.04100  0.49870  Biso   1.000  H
  H45      1.0000 0.68110  0.45900  0.99870  Biso   1.000  H
  H46      1.0000 0.18110  0.95900  0.99870  Biso   1.000  H
  H47      1.0000 0.31890  0.45900  0.50130  Biso   1.000  H
  H48      1.0000 0.81890  0.95900  0.50130  Biso   1.000  H
  H49      1.0000 0.41820  0.49300  0.10450  Biso   1.000  H
  H50      1.0000 0.91820  0.99300  0.10450  Biso   1.000  H
  H51      1.0000 0.58180  0.49300  0.39550  Biso   1.000  H
  H52      1.0000 0.08180  0.99300  0.39550  Biso   1.000  H
  H53      1.0000 0.58180  0.50700  0.89550  Biso   1.000  H
  H54      1.0000 0.08180  0.00700  0.89550  Biso   1.000  H
  H55      1.0000 0.41820  0.50700  0.60450  Biso   1.000  H
  H56      1.0000 0.91820  0.00700  0.60450  Biso   1.000  H
  H57      1.0000 0.39900  0.40400  0.44180  Biso   1.000  H
  H58      1.0000 0.89900  0.90400  0.44180  Biso   1.000  H
  H59      1.0000 0.60100  0.40400  0.05820  Biso   1.000  H
  H60      1.0000 0.10100  0.90400  0.05820  Biso   1.000  H
  H61      1.0000 0.60100  0.59600  0.55820  Biso   1.000  H
  H62      1.0000 0.10100  0.09600  0.55820  Biso   1.000  H
  H63      1.0000 0.39900  0.59600  0.94180  Biso   1.000  H
  H64      1.0000 0.89900  0.09600  0.94180  Biso   1.000  H
  H65      1.0000 0.46470  0.29600  0.49850  Biso   1.000  H
  H66      1.0000 0.96470  0.79600  0.49850  Biso   1.000  H
  H67      1.0000 0.53530  0.29600  0.00150  Biso   1.000  H
  H68      1.0000 0.03530  0.79600  0.00150  Biso   1.000  H
  H69      1.0000 0.53530  0.70400  0.50150  Biso   1.000  H
  H70      1.0000 0.03530  0.20400  0.50150  Biso   1.000  H
  H71      1.0000 0.46470  0.70400  0.99850  Biso   1.000  H
  H72      1.0000 0.96470  0.20400  0.99850  Biso   1.000  H
  H73      1.0000 0.39230  0.00900  0.49440  Biso   1.000  H
  H74      1.0000 0.89230  0.50900  0.49440  Biso   1.000  H
  H75      1.0000 0.60770  0.00900  0.00560  Biso   1.000  H
  H76      1.0000 0.10770  0.50900  0.00560  Biso   1.000  H
  H77      1.0000 0.60770  0.99100  0.50560  Biso   1.000  H
  H78      1.0000 0.10770  0.49100  0.50560  Biso   1.000  H
  H79      1.0000 0.39230  0.99100  0.99440  Biso   1.000  H
  H80      1.0000 0.89230  0.49100  0.99440  Biso   1.000  H
  H81      1.0000 0.42670  0.91300  0.43430  Biso   1.000  H
  H82      1.0000 0.92670  0.41300  0.43430  Biso   1.000  H
  H83      1.0000 0.57330  0.91300  0.06570  Biso   1.000  H
  H84      1.0000 0.07330  0.41300  0.06570  Biso   1.000  H
  H85      1.0000 0.57330  0.08700  0.56570  Biso   1.000  H
  H86      1.0000 0.07330  0.58700  0.56570  Biso   1.000  H
  H87      1.0000 0.42670  0.08700  0.93430  Biso   1.000  H
  H88      1.0000 0.92670  0.58700  0.93430  Biso   1.000  H
