data_image0
_cell_length_a       8.758
_cell_length_b       10.087
_cell_length_c       10.248
_cell_angle_alpha    80.939
_cell_angle_beta     71.753
_cell_angle_gamma    65.238

_symmetry_space_group_name_H-M    "P 1"
_symmetry_int_tables_number       1

loop_
  _symmetry_equiv_pos_as_xyz
  'x, y, z'

loop_
  _atom_site_label
  _atom_site_occupancy
  _atom_site_fract_x
  _atom_site_fract_y
  _atom_site_fract_z
  _atom_site_thermal_displace_type
  _atom_site_B_iso_or_equiv
  _atom_site_type_symbol
  Cu1      1.0000 0.00000  0.50000  0.00000  Biso   1.000  Cu
  C1       1.0000 0.38270  0.20520  0.37630  Biso   1.000  C
  C2       1.0000 0.61730  0.79480  0.62370  Biso   1.000  C
  H1       1.0000 0.39200  0.25440  0.44570  Biso   1.000  H
  H2       1.0000 0.60800  0.74560  0.55430  Biso   1.000  H
  H3       1.0000 0.49990  0.15320  0.31920  Biso   1.000  H
  H4       1.0000 0.50010  0.84680  0.68080  Biso   1.000  H
  C3       1.0000 0.30310  0.09710  0.44580  Biso   1.000  C
  C4       1.0000 0.69690  0.90290  0.55420  Biso   1.000  C
  C5       1.0000 0.35080  0.96960  0.38010  Biso   1.000  C
  C6       1.0000 0.64920  0.03040  0.61990  Biso   1.000  C
  H5       1.0000 0.42950  0.95330  0.29300  Biso   1.000  H
  H6       1.0000 0.57050  0.04670  0.70700  Biso   1.000  H
  C7       1.0000 0.28290  0.86640  0.44250  Biso   1.000  C
  C8       1.0000 0.71710  0.13360  0.55750  Biso   1.000  C
  C9       1.0000 0.16820  0.89000  0.57310  Biso   1.000  C
  C10      1.0000 0.83180  0.11000  0.42690  Biso   1.000  C
  H7       1.0000 0.12340  0.82060  0.61650  Biso   1.000  H
  H8       1.0000 0.87660  0.17940  0.38350  Biso   1.000  H
  C11      1.0000 0.12010  0.01680  0.63910  Biso   1.000  C
  C12      1.0000 0.87990  0.98320  0.36090  Biso   1.000  C
  H9       1.0000 0.04240  0.03250  0.72660  Biso   1.000  H
  H10      1.0000 0.95760  0.96750  0.27340  Biso   1.000  H
  C13      1.0000 0.18670  0.12030  0.57600  Biso   1.000  C
  C14      1.0000 0.81330  0.87970  0.42400  Biso   1.000  C
  H11      1.0000 0.15340  0.20550  0.62080  Biso   1.000  H
  H12      1.0000 0.84660  0.79450  0.37920  Biso   1.000  H
  C15      1.0000 0.32570  0.73290  0.36630  Biso   1.000  C
  C16      1.0000 0.67430  0.26710  0.63370  Biso   1.000  C
  H13      1.0000 0.28310  0.66580  0.42980  Biso   1.000  H
  H14      1.0000 0.71690  0.33420  0.57020  Biso   1.000  H
  H15      1.0000 0.26540  0.76210  0.29520  Biso   1.000  H
  H16      1.0000 0.73460  0.23790  0.70480  Biso   1.000  H
  C17      1.0000 0.16350  0.75170  0.94050  Biso   1.000  C
  C18      1.0000 0.83650  0.24830  0.05950  Biso   1.000  C
  H17      1.0000 0.19090  0.74930  0.02470  Biso   1.000  H
  H18      1.0000 0.80910  0.25070  0.97530  Biso   1.000  H
  H19      1.0000 0.13720  0.84790  0.89890  Biso   1.000  H
  H20      1.0000 0.86280  0.15210  0.10110  Biso   1.000  H
  H21      1.0000 0.26190  0.68260  0.87890  Biso   1.000  H
  H22      1.0000 0.73810  0.31740  0.12110  Biso   1.000  H
  N1       1.0000 0.14520  0.42950  0.13780  Biso   1.000  N
  N2       1.0000 0.85480  0.57050  0.86220  Biso   1.000  N
  C19      1.0000 0.20080  0.30430  0.20380  Biso   1.000  C
  C20      1.0000 0.79920  0.69570  0.79620  Biso   1.000  C
  H23      1.0000 0.18740  0.22070  0.19160  Biso   1.000  H
  H24      1.0000 0.81260  0.77930  0.80840  Biso   1.000  H
  N3       1.0000 0.27870  0.31540  0.29029  Biso   1.000  N
  N4       1.0000 0.72130  0.68460  0.70971  Biso   1.000  N
  N5       1.0000 0.27120  0.45190  0.27850  Biso   1.000  N
  N6       1.0000 0.72880  0.54810  0.72150  Biso   1.000  N
  N7       1.0000 0.18950  0.52040  0.18750  Biso   1.000  N
  N8       1.0000 0.81050  0.47960  0.81250  Biso   1.000  N
  N9       1.0000 0.51460  0.65700  0.30310  Biso   1.000  N
  N10      1.0000 0.48540  0.34300  0.69690  Biso   1.000  N
  N11      1.0000 0.62330  0.57540  0.38000  Biso   1.000  N
  N12      1.0000 0.37670  0.42460  0.62000  Biso   1.000  N
  N13      1.0000 0.77820  0.52400  0.29640  Biso   1.000  N
  N14      1.0000 0.22180  0.47600  0.70360  Biso   1.000  N
  N15      1.0000 0.77210  0.57170  0.16560  Biso   1.000  N
  N16      1.0000 0.22790  0.42830  0.83440  Biso   1.000  N
  C21      1.0000 0.60750  0.65390  0.17330  Biso   1.000  C
  C22      1.0000 0.39250  0.34610  0.82670  Biso   1.000  C
  H25      1.0000 0.56350  0.70220  0.09960  Biso   1.000  H
  H26      1.0000 0.43650  0.29780  0.90040  Biso   1.000  H
  O1       1.0000 0.01700  0.71504  0.96860  Biso   1.000  O
  O2       1.0000 0.98300  0.28496  0.03140  Biso   1.000  O
  N17      1.0000 0.67090  0.02860  0.01420  Biso   1.000  N
  N18      1.0000 0.32910  0.97140  0.98580  Biso   1.000  N
  O3       1.0000 0.54150  0.14030  0.05630  Biso   1.000  O
  O4       1.0000 0.45850  0.85970  0.94370  Biso   1.000  O
  O5       1.0000 0.71920  0.92560  0.09772  Biso   1.000  O
  O6       1.0000 0.28080  0.07440  0.90228  Biso   1.000  O
  O7       1.0000 0.75350  0.01810  0.89110  Biso   1.000  O
  O8       1.0000 0.24650  0.98190  0.10890  Biso   1.000  O
