data_image0
_cell_length_a       8.621
_cell_length_b       10.0631
_cell_length_c       10.2123
_cell_angle_alpha    81.089
_cell_angle_beta     71.498
_cell_angle_gamma    65.929

_symmetry_space_group_name_H-M    "P 1"
_symmetry_int_tables_number       1

loop_
  _symmetry_equiv_pos_as_xyz
  'x, y, z'

loop_
  _atom_site_label
  _atom_site_occupancy
  _atom_site_fract_x
  _atom_site_fract_y
  _atom_site_fract_z
  _atom_site_thermal_displace_type
  _atom_site_B_iso_or_equiv
  _atom_site_type_symbol
  Cu1      1.0000 0.50000  0.00000  0.00000  Biso   1.000  Cu
  N1       1.0000 0.64860  0.92994  0.13505  Biso   1.000  N
  N2       1.0000 0.35140  0.07006  0.86495  Biso   1.000  N
  N3       1.0000 0.69890  0.02110  0.18210  Biso   1.000  N
  N4       1.0000 0.30110  0.97890  0.81790  Biso   1.000  N
  N5       1.0000 0.78190  0.95310  0.27270  Biso   1.000  N
  N6       1.0000 0.21810  0.04690  0.72730  Biso   1.000  N
  N7       1.0000 0.78500  0.81658  0.28696  Biso   1.000  N
  N8       1.0000 0.21500  0.18342  0.71304  Biso   1.000  N
  C1       1.0000 0.70280  0.80430  0.20211  Biso   1.000  C
  C2       1.0000 0.29720  0.19570  0.79789  Biso   1.000  C
  H1       1.0000 0.68590  0.71950  0.19150  Biso   1.000  H
  H2       1.0000 0.31410  0.28050  0.80850  Biso   1.000  H
  C3       1.0000 0.88990  0.70660  0.37230  Biso   1.000  C
  C4       1.0000 0.11010  0.29340  0.62770  Biso   1.000  C
  H3       1.0000 0.90180  0.75670  0.44250  Biso   1.000  H
  H4       1.0000 0.09820  0.24330  0.55750  Biso   1.000  H
  H5       1.0000 0.01020  0.65330  0.31270  Biso   1.000  H
  H6       1.0000 0.98980  0.34670  0.68730  Biso   1.000  H
  C5       1.0000 0.80680  0.59900  0.44420  Biso   1.000  C
  C6       1.0000 0.19320  0.40100  0.55580  Biso   1.000  C
  C7       1.0000 0.68760  0.62420  0.57570  Biso   1.000  C
  C8       1.0000 0.31240  0.37580  0.42430  Biso   1.000  C
  H7       1.0000 0.65430  0.71180  0.62040  Biso   1.000  H
  H8       1.0000 0.34570  0.28820  0.37960  Biso   1.000  H
  C9       1.0000 0.61750  0.52110  0.64150  Biso   1.000  C
  C10      1.0000 0.38250  0.47890  0.35850  Biso   1.000  C
  H9       1.0000 0.53710  0.53800  0.73160  Biso   1.000  H
  H10      1.0000 0.46290  0.46200  0.26840  Biso   1.000  H
  C11      1.0000 0.66480  0.39320  0.57610  Biso   1.000  C
  C12      1.0000 0.33520  0.60680  0.42390  Biso   1.000  C
  H11      1.0000 0.61700  0.32280  0.62170  Biso   1.000  H
  H12      1.0000 0.38300  0.67720  0.37830  Biso   1.000  H
  C13      1.0000 0.78190  0.36830  0.44390  Biso   1.000  C
  C14      1.0000 0.21810  0.63170  0.55610  Biso   1.000  C
  C15      1.0000 0.85390  0.47090  0.37884  Biso   1.000  C
  C16      1.0000 0.14610  0.52910  0.62116  Biso   1.000  C
  H13      1.0000 0.93570  0.45330  0.28940  Biso   1.000  H
  H14      1.0000 0.06430  0.54670  0.71060  Biso   1.000  H
  C17      1.0000 0.82370  0.23370  0.36910  Biso   1.000  C
  C18      1.0000 0.17630  0.76630  0.63090  Biso   1.000  C
  H15      1.0000 0.77940  0.16560  0.43560  Biso   1.000  H
  H16      1.0000 0.22060  0.83440  0.56440  Biso   1.000  H
  H17      1.0000 0.76080  0.26200  0.29700  Biso   1.000  H
  H18      1.0000 0.23920  0.73800  0.70300  Biso   1.000  H
  N9       1.0000 0.01440  0.15871  0.30443  Biso   1.000  N
  N10      1.0000 0.98560  0.84129  0.69557  Biso   1.000  N
  N11      1.0000 0.12470  0.07482  0.38073  Biso   1.000  N
  N12      1.0000 0.87530  0.92518  0.61927  Biso   1.000  N
  N13      1.0000 0.28150  0.02442  0.29641  Biso   1.000  N
  N14      1.0000 0.71850  0.97558  0.70359  Biso   1.000  N
  N15      1.0000 0.27610  0.07434  0.16478  Biso   1.000  N
  N16      1.0000 0.72390  0.92566  0.83522  Biso   1.000  N
  C19      1.0000 0.10880  0.15760  0.17330  Biso   1.000  C
  C20      1.0000 0.89120  0.84240  0.82670  Biso   1.000  C
  H19      1.0000 0.06380  0.20800  0.09830  Biso   1.000  H
  H20      1.0000 0.93620  0.79200  0.90170  Biso   1.000  H
  C21      1.0000 0.68450  0.24780  0.92940  Biso   1.000  C
  C22      1.0000 0.31550  0.75220  0.07060  Biso   1.000  C
  H21      1.0000 0.66170  0.34630  0.88860  Biso   1.000  H
  H22      1.0000 0.33830  0.65370  0.11140  Biso   1.000  H
  H23      1.0000 0.78400  0.17750  0.86500  Biso   1.000  H
  H24      1.0000 0.21600  0.82250  0.13500  Biso   1.000  H
  H25      1.0000 0.71350  0.24180  0.01600  Biso   1.000  H
  H26      1.0000 0.28650  0.75820  0.98400  Biso   1.000  H
  O1       1.0000 0.53129  0.21556  0.95641  Biso   1.000  O
  O2       1.0000 0.46871  0.78444  0.04359  Biso   1.000  O
  H27      1.0000 0.44270  0.28310  0.00120  Biso   1.000  H
  H28      1.0000 0.55730  0.71690  0.99880  Biso   1.000  H
  N17      1.0000 0.17400  0.52442  0.01124  Biso   1.000  N
  N18      1.0000 0.82600  0.47558  0.98876  Biso   1.000  N
  O3       1.0000 0.25794  0.51834  0.88668  Biso   1.000  O
  O4       1.0000 0.74206  0.48166  0.11332  Biso   1.000  O
  O5       1.0000 0.03462  0.63167  0.05569  Biso   1.000  O
  O6       1.0000 0.96538  0.36833  0.94431  Biso   1.000  O
  O7       1.0000 0.22870  0.42205  0.09477  Biso   1.000  O
  O8       1.0000 0.77130  0.57795  0.90523  Biso   1.000  O
