data_image0
_cell_length_a       18.5881
_cell_length_b       10.1091
_cell_length_c       17.5284
_cell_angle_alpha    90
_cell_angle_beta     111.847
_cell_angle_gamma    90

_symmetry_space_group_name_H-M    "P 1"
_symmetry_int_tables_number       1

loop_
  _symmetry_equiv_pos_as_xyz
  'x, y, z'

loop_
  _atom_site_label
  _atom_site_occupancy
  _atom_site_fract_x
  _atom_site_fract_y
  _atom_site_fract_z
  _atom_site_thermal_displace_type
  _atom_site_B_iso_or_equiv
  _atom_site_type_symbol
  Cu1      1.0000 0.00419  0.57539  0.06651  Biso   1.000  Cu
  Cu2      1.0000 0.99581  0.57539  0.43349  Biso   1.000  Cu
  Cu3      1.0000 0.50419  0.07539  0.06651  Biso   1.000  Cu
  Cu4      1.0000 0.49581  0.07539  0.43349  Biso   1.000  Cu
  Cu5      1.0000 0.99581  0.42461  0.93349  Biso   1.000  Cu
  Cu6      1.0000 0.00419  0.42461  0.56651  Biso   1.000  Cu
  Cu7      1.0000 0.49581  0.92461  0.93349  Biso   1.000  Cu
  Cu8      1.0000 0.50419  0.92461  0.56651  Biso   1.000  Cu
  S1       1.0000 0.22770  0.18710  0.10200  Biso   1.000  S
  S2       1.0000 0.77230  0.18710  0.39800  Biso   1.000  S
  S3       1.0000 0.72770  0.68710  0.10200  Biso   1.000  S
  S4       1.0000 0.27230  0.68710  0.39800  Biso   1.000  S
  S5       1.0000 0.77230  0.81290  0.89800  Biso   1.000  S
  S6       1.0000 0.22770  0.81290  0.60200  Biso   1.000  S
  S7       1.0000 0.27230  0.31290  0.89800  Biso   1.000  S
  S8       1.0000 0.72770  0.31290  0.60200  Biso   1.000  S
  C1       1.0000 0.24380  0.31010  0.22690  Biso   1.000  C
  C2       1.0000 0.75620  0.31010  0.27310  Biso   1.000  C
  C3       1.0000 0.74380  0.81010  0.22690  Biso   1.000  C
  C4       1.0000 0.25620  0.81010  0.27310  Biso   1.000  C
  C5       1.0000 0.75620  0.68990  0.77310  Biso   1.000  C
  C6       1.0000 0.24380  0.68990  0.72690  Biso   1.000  C
  C7       1.0000 0.25620  0.18990  0.77310  Biso   1.000  C
  C8       1.0000 0.74380  0.18990  0.72690  Biso   1.000  C
  H1       1.0000 0.23630  0.36860  0.26420  Biso   1.000  H
  H2       1.0000 0.76370  0.36860  0.23580  Biso   1.000  H
  H3       1.0000 0.73630  0.86860  0.26420  Biso   1.000  H
  H4       1.0000 0.26370  0.86860  0.23580  Biso   1.000  H
  H5       1.0000 0.76370  0.63140  0.73580  Biso   1.000  H
  H6       1.0000 0.23630  0.63140  0.76420  Biso   1.000  H
  H7       1.0000 0.26370  0.13140  0.73580  Biso   1.000  H
  H8       1.0000 0.73630  0.13140  0.76420  Biso   1.000  H
  S9       1.0000 0.14110  0.75790  0.85330  Biso   1.000  S
  S10      1.0000 0.85890  0.75790  0.64670  Biso   1.000  S
  S11      1.0000 0.64110  0.25790  0.85330  Biso   1.000  S
  S12      1.0000 0.35890  0.25790  0.64670  Biso   1.000  S
  S13      1.0000 0.85890  0.24210  0.14670  Biso   1.000  S
  S14      1.0000 0.14110  0.24210  0.35330  Biso   1.000  S
  S15      1.0000 0.35890  0.74210  0.14670  Biso   1.000  S
  S16      1.0000 0.64110  0.74210  0.35330  Biso   1.000  S
  C9       1.0000 0.17280  0.87230  0.98850  Biso   1.000  C
  C10      1.0000 0.82720  0.87230  0.51150  Biso   1.000  C
  C11      1.0000 0.67280  0.37230  0.98850  Biso   1.000  C
  C12      1.0000 0.32720  0.37230  0.51150  Biso   1.000  C
  C13      1.0000 0.82720  0.12770  0.01150  Biso   1.000  C
  C14      1.0000 0.17280  0.12770  0.48850  Biso   1.000  C
  C15      1.0000 0.32720  0.62770  0.01150  Biso   1.000  C
  C16      1.0000 0.67280  0.62770  0.48850  Biso   1.000  C
  H9       1.0000 0.17680  0.89210  0.04170  Biso   1.000  H
  H10      1.0000 0.82320  0.89210  0.45830  Biso   1.000  H
  H11      1.0000 0.67680  0.39210  0.04170  Biso   1.000  H
  H12      1.0000 0.32320  0.39210  0.45830  Biso   1.000  H
  H13      1.0000 0.82320  0.10790  0.95830  Biso   1.000  H
  H14      1.0000 0.17680  0.10790  0.54170  Biso   1.000  H
  H15      1.0000 0.32320  0.60790  0.95830  Biso   1.000  H
  H16      1.0000 0.67680  0.60790  0.54170  Biso   1.000  H
  O1       1.0000 0.09355  0.46230  0.12613  Biso   1.000  O
  O2       1.0000 0.90645  0.46230  0.37387  Biso   1.000  O
  O3       1.0000 0.59355  0.96230  0.12613  Biso   1.000  O
  O4       1.0000 0.40645  0.96230  0.37387  Biso   1.000  O
  O5       1.0000 0.90645  0.53770  0.87387  Biso   1.000  O
  O6       1.0000 0.09355  0.53770  0.62613  Biso   1.000  O
  O7       1.0000 0.40645  0.03770  0.87387  Biso   1.000  O
  O8       1.0000 0.59355  0.03770  0.62613  Biso   1.000  O
  O9       1.0000 0.08668  0.34258  0.01621  Biso   1.000  O
  O10      1.0000 0.91332  0.34258  0.48379  Biso   1.000  O
  O11      1.0000 0.58668  0.84258  0.01621  Biso   1.000  O
  O12      1.0000 0.41332  0.84258  0.48379  Biso   1.000  O
  O13      1.0000 0.91332  0.65742  0.98379  Biso   1.000  O
  O14      1.0000 0.08668  0.65742  0.51621  Biso   1.000  O
  O15      1.0000 0.41332  0.15742  0.98379  Biso   1.000  O
  O16      1.0000 0.58668  0.15742  0.51621  Biso   1.000  O
  O17      1.0000 0.07431  0.68588  0.03368  Biso   1.000  O
  O18      1.0000 0.92569  0.68588  0.46632  Biso   1.000  O
  O19      1.0000 0.57431  0.18588  0.03368  Biso   1.000  O
  O20      1.0000 0.42569  0.18588  0.46632  Biso   1.000  O
  O21      1.0000 0.92569  0.31412  0.96632  Biso   1.000  O
  O22      1.0000 0.07431  0.31412  0.53368  Biso   1.000  O
  O23      1.0000 0.42569  0.81412  0.96632  Biso   1.000  O
  O24      1.0000 0.57431  0.81412  0.53368  Biso   1.000  O
  O25      1.0000 0.06310  0.56831  0.92203  Biso   1.000  O
  O26      1.0000 0.93690  0.56831  0.57797  Biso   1.000  O
  O27      1.0000 0.56310  0.06831  0.92203  Biso   1.000  O
  O28      1.0000 0.43690  0.06831  0.57797  Biso   1.000  O
  O29      1.0000 0.93690  0.43169  0.07797  Biso   1.000  O
  O30      1.0000 0.06310  0.43169  0.42203  Biso   1.000  O
  O31      1.0000 0.43690  0.93169  0.07797  Biso   1.000  O
  O32      1.0000 0.56310  0.93169  0.42203  Biso   1.000  O
  O33      1.0000 0.01328  0.86722  0.11957  Biso   1.000  O
  O34      1.0000 0.98672  0.86722  0.38043  Biso   1.000  O
  O35      1.0000 0.51328  0.36722  0.11957  Biso   1.000  O
  O36      1.0000 0.48672  0.36722  0.38043  Biso   1.000  O
  O37      1.0000 0.98672  0.13278  0.88043  Biso   1.000  O
  O38      1.0000 0.01328  0.13278  0.61957  Biso   1.000  O
  O39      1.0000 0.48672  0.63278  0.88043  Biso   1.000  O
  O40      1.0000 0.51328  0.63278  0.61957  Biso   1.000  O
  N1       1.0000 0.00267  0.68131  0.18218  Biso   1.000  N
  N2       1.0000 0.99733  0.68131  0.31782  Biso   1.000  N
  N3       1.0000 0.50267  0.18131  0.18218  Biso   1.000  N
  N4       1.0000 0.49733  0.18131  0.31782  Biso   1.000  N
  N5       1.0000 0.99733  0.31869  0.81782  Biso   1.000  N
  N6       1.0000 0.00267  0.31869  0.68218  Biso   1.000  N
  N7       1.0000 0.49733  0.81869  0.81782  Biso   1.000  N
  N8       1.0000 0.50267  0.81869  0.68218  Biso   1.000  N
  N9       1.0000 0.00000  0.48910  0.25000  Biso   1.000  N
  N10      1.0000 0.50000  0.98910  0.25000  Biso   1.000  N
  N11      1.0000 0.00000  0.51090  0.75000  Biso   1.000  N
  N12      1.0000 0.50000  0.01090  0.75000  Biso   1.000  N
  H17      1.0000 0.99840  0.44650  0.29180  Biso   1.000  H
  H18      1.0000 0.00160  0.44650  0.20820  Biso   1.000  H
  H19      1.0000 0.49840  0.94650  0.29180  Biso   1.000  H
  H20      1.0000 0.50160  0.94650  0.20820  Biso   1.000  H
  H21      1.0000 0.00160  0.55350  0.70820  Biso   1.000  H
  H22      1.0000 0.99840  0.55350  0.79180  Biso   1.000  H
  H23      1.0000 0.50160  0.05350  0.70820  Biso   1.000  H
  H24      1.0000 0.49840  0.05350  0.79180  Biso   1.000  H
  C17      1.0000 0.00000  0.62040  0.25000  Biso   1.000  C
  C18      1.0000 0.50000  0.12040  0.25000  Biso   1.000  C
  C19      1.0000 0.00000  0.37960  0.75000  Biso   1.000  C
  C20      1.0000 0.50000  0.87960  0.75000  Biso   1.000  C
  C21      1.0000 0.00504  0.81310  0.18517  Biso   1.000  C
  C22      1.0000 0.99496  0.81310  0.31483  Biso   1.000  C
  C23      1.0000 0.50504  0.31310  0.18517  Biso   1.000  C
  C24      1.0000 0.49496  0.31310  0.31483  Biso   1.000  C
  C25      1.0000 0.99496  0.18690  0.81483  Biso   1.000  C
  C26      1.0000 0.00504  0.18690  0.68517  Biso   1.000  C
  C27      1.0000 0.49496  0.68690  0.81483  Biso   1.000  C
  C28      1.0000 0.50504  0.68690  0.68517  Biso   1.000  C
  C29      1.0000 0.00000  0.88630  0.25000  Biso   1.000  C
  C30      1.0000 0.50000  0.38630  0.25000  Biso   1.000  C
  C31      1.0000 0.00000  0.11370  0.75000  Biso   1.000  C
  C32      1.0000 0.50000  0.61370  0.75000  Biso   1.000  C
  H25      1.0000 0.00000  0.97830  0.25000  Biso   1.000  H
  H26      1.0000 0.50000  0.47830  0.25000  Biso   1.000  H
  H27      1.0000 0.00000  0.02170  0.75000  Biso   1.000  H
  H28      1.0000 0.50000  0.52170  0.75000  Biso   1.000  H
  C33      1.0000 0.03270  0.00410  0.12260  Biso   1.000  C
  C34      1.0000 0.96730  0.00410  0.37740  Biso   1.000  C
  C35      1.0000 0.53270  0.50410  0.12260  Biso   1.000  C
  C36      1.0000 0.46730  0.50410  0.37740  Biso   1.000  C
  C37      1.0000 0.96730  0.99590  0.87740  Biso   1.000  C
  C38      1.0000 0.03270  0.99590  0.62260  Biso   1.000  C
  C39      1.0000 0.46730  0.49590  0.87740  Biso   1.000  C
  C40      1.0000 0.53270  0.49590  0.62260  Biso   1.000  C
  H29      1.0000 0.99010  0.05620  0.12420  Biso   1.000  H
  H30      1.0000 0.00990  0.05620  0.37580  Biso   1.000  H
  H31      1.0000 0.49010  0.55620  0.12420  Biso   1.000  H
  H32      1.0000 0.50990  0.55620  0.37580  Biso   1.000  H
  H33      1.0000 0.00990  0.94380  0.87580  Biso   1.000  H
  H34      1.0000 0.99010  0.94380  0.62420  Biso   1.000  H
  H35      1.0000 0.50990  0.44380  0.87580  Biso   1.000  H
  H36      1.0000 0.49010  0.44380  0.62420  Biso   1.000  H
  H37      1.0000 0.04330  0.02690  0.07460  Biso   1.000  H
  H38      1.0000 0.95670  0.02690  0.42540  Biso   1.000  H
  H39      1.0000 0.54330  0.52690  0.07460  Biso   1.000  H
  H40      1.0000 0.45670  0.52690  0.42540  Biso   1.000  H
  H41      1.0000 0.95670  0.97310  0.92540  Biso   1.000  H
  H42      1.0000 0.04330  0.97310  0.57460  Biso   1.000  H
  H43      1.0000 0.45670  0.47310  0.92540  Biso   1.000  H
  H44      1.0000 0.54330  0.47310  0.57460  Biso   1.000  H
  H45      1.0000 0.07780  0.02120  0.17090  Biso   1.000  H
  H46      1.0000 0.92220  0.02120  0.32910  Biso   1.000  H
  H47      1.0000 0.57780  0.52120  0.17090  Biso   1.000  H
  H48      1.0000 0.42220  0.52120  0.32910  Biso   1.000  H
  H49      1.0000 0.92220  0.97880  0.82910  Biso   1.000  H
  H50      1.0000 0.07780  0.97880  0.67090  Biso   1.000  H
  H51      1.0000 0.42220  0.47880  0.82910  Biso   1.000  H
  H52      1.0000 0.57780  0.47880  0.67090  Biso   1.000  H
  C41      1.0000 0.11759  0.37520  0.09023  Biso   1.000  C
  C42      1.0000 0.88241  0.37520  0.40977  Biso   1.000  C
  C43      1.0000 0.61759  0.87520  0.09023  Biso   1.000  C
  C44      1.0000 0.38241  0.87520  0.40977  Biso   1.000  C
  C45      1.0000 0.88241  0.62480  0.90977  Biso   1.000  C
  C46      1.0000 0.11759  0.62480  0.59023  Biso   1.000  C
  C47      1.0000 0.38241  0.12480  0.90977  Biso   1.000  C
  C48      1.0000 0.61759  0.12480  0.59023  Biso   1.000  C
  C49      1.0000 0.18917  0.30490  0.13996  Biso   1.000  C
  C50      1.0000 0.81083  0.30490  0.36004  Biso   1.000  C
  C51      1.0000 0.68917  0.80490  0.13996  Biso   1.000  C
  C52      1.0000 0.31083  0.80490  0.36004  Biso   1.000  C
  C53      1.0000 0.81083  0.69510  0.86004  Biso   1.000  C
  C54      1.0000 0.18917  0.69510  0.63996  Biso   1.000  C
  C55      1.0000 0.31083  0.19510  0.86004  Biso   1.000  C
  C56      1.0000 0.68917  0.19510  0.63996  Biso   1.000  C
  C57      1.0000 0.29880  0.16000  0.18550  Biso   1.000  C
  C58      1.0000 0.70120  0.16000  0.31450  Biso   1.000  C
  C59      1.0000 0.79880  0.66000  0.18550  Biso   1.000  C
  C60      1.0000 0.20120  0.66000  0.31450  Biso   1.000  C
  C61      1.0000 0.70120  0.84000  0.81450  Biso   1.000  C
  C62      1.0000 0.29880  0.84000  0.68550  Biso   1.000  C
  C63      1.0000 0.20120  0.34000  0.81450  Biso   1.000  C
  C64      1.0000 0.79880  0.34000  0.68550  Biso   1.000  C
  H53      1.0000 0.33470  0.09620  0.18490  Biso   1.000  H
  H54      1.0000 0.66530  0.09620  0.31510  Biso   1.000  H
  H55      1.0000 0.83470  0.59620  0.18490  Biso   1.000  H
  H56      1.0000 0.16530  0.59620  0.31510  Biso   1.000  H
  H57      1.0000 0.66530  0.90380  0.81510  Biso   1.000  H
  H58      1.0000 0.33470  0.90380  0.68490  Biso   1.000  H
  H59      1.0000 0.16530  0.40380  0.81510  Biso   1.000  H
  H60      1.0000 0.83470  0.40380  0.68490  Biso   1.000  H
  C65      1.0000 0.30166  0.23050  0.24850  Biso   1.000  C
  C66      1.0000 0.69834  0.23050  0.25150  Biso   1.000  C
  C67      1.0000 0.80166  0.73050  0.24850  Biso   1.000  C
  C68      1.0000 0.19834  0.73050  0.25150  Biso   1.000  C
  C69      1.0000 0.69834  0.76950  0.75150  Biso   1.000  C
  C70      1.0000 0.30166  0.76950  0.74850  Biso   1.000  C
  C71      1.0000 0.19834  0.26950  0.75150  Biso   1.000  C
  C72      1.0000 0.80166  0.26950  0.74850  Biso   1.000  C
  H61      1.0000 0.34180  0.22130  0.29930  Biso   1.000  H
  H62      1.0000 0.65820  0.22130  0.20070  Biso   1.000  H
  H63      1.0000 0.84180  0.72130  0.29930  Biso   1.000  H
  H64      1.0000 0.15820  0.72130  0.20070  Biso   1.000  H
  H65      1.0000 0.65820  0.77870  0.70070  Biso   1.000  H
  H66      1.0000 0.34180  0.77870  0.79930  Biso   1.000  H
  H67      1.0000 0.15820  0.27870  0.70070  Biso   1.000  H
  H68      1.0000 0.84180  0.27870  0.79930  Biso   1.000  H
  C73      1.0000 0.08662  0.66570  0.96913  Biso   1.000  C
  C74      1.0000 0.91338  0.66570  0.53087  Biso   1.000  C
  C75      1.0000 0.58662  0.16570  0.96913  Biso   1.000  C
  C76      1.0000 0.41338  0.16570  0.53087  Biso   1.000  C
  C77      1.0000 0.91338  0.33430  0.03087  Biso   1.000  C
  C78      1.0000 0.08662  0.33430  0.46913  Biso   1.000  C
  C79      1.0000 0.41338  0.83430  0.03087  Biso   1.000  C
  C80      1.0000 0.58662  0.83430  0.46913  Biso   1.000  C
  C81      1.0000 0.13244  0.76570  0.94556  Biso   1.000  C
  C82      1.0000 0.86756  0.76570  0.55444  Biso   1.000  C
  C83      1.0000 0.63244  0.26570  0.94556  Biso   1.000  C
  C84      1.0000 0.36756  0.26570  0.55444  Biso   1.000  C
  C85      1.0000 0.86756  0.23430  0.05444  Biso   1.000  C
  C86      1.0000 0.13244  0.23430  0.44556  Biso   1.000  C
  C87      1.0000 0.36756  0.73430  0.05444  Biso   1.000  C
  C88      1.0000 0.63244  0.73430  0.44556  Biso   1.000  C
  C89      1.0000 0.20850  0.95120  0.94400  Biso   1.000  C
  C90      1.0000 0.79150  0.95120  0.55600  Biso   1.000  C
  C91      1.0000 0.70850  0.45120  0.94400  Biso   1.000  C
  C92      1.0000 0.29150  0.45120  0.55600  Biso   1.000  C
  C93      1.0000 0.79150  0.04880  0.05600  Biso   1.000  C
  C94      1.0000 0.20850  0.04880  0.44400  Biso   1.000  C
  C95      1.0000 0.29150  0.54880  0.05600  Biso   1.000  C
  C96      1.0000 0.70850  0.54880  0.44400  Biso   1.000  C
  H69      1.0000 0.23670  0.02870  0.96220  Biso   1.000  H
  H70      1.0000 0.76330  0.02870  0.53780  Biso   1.000  H
  H71      1.0000 0.73670  0.52870  0.96220  Biso   1.000  H
  H72      1.0000 0.26330  0.52870  0.53780  Biso   1.000  H
  H73      1.0000 0.76330  0.97130  0.03780  Biso   1.000  H
  H74      1.0000 0.23670  0.97130  0.46220  Biso   1.000  H
  H75      1.0000 0.26330  0.47130  0.03780  Biso   1.000  H
  H76      1.0000 0.73670  0.47130  0.46220  Biso   1.000  H
  C97      1.0000 0.19370  0.89290  0.87220  Biso   1.000  C
  C98      1.0000 0.80630  0.89290  0.62780  Biso   1.000  C
  C99      1.0000 0.69370  0.39290  0.87220  Biso   1.000  C
  C100     1.0000 0.30630  0.39290  0.62780  Biso   1.000  C
  C101     1.0000 0.80630  0.10710  0.12780  Biso   1.000  C
  C102     1.0000 0.19370  0.10710  0.37220  Biso   1.000  C
  C103     1.0000 0.30630  0.60710  0.12780  Biso   1.000  C
  C104     1.0000 0.69370  0.60710  0.37220  Biso   1.000  C
  H77      1.0000 0.21240  0.92710  0.83390  Biso   1.000  H
  H78      1.0000 0.78760  0.92710  0.66610  Biso   1.000  H
  H79      1.0000 0.71240  0.42710  0.83390  Biso   1.000  H
  H80      1.0000 0.28760  0.42710  0.66610  Biso   1.000  H
  H81      1.0000 0.78760  0.07290  0.16610  Biso   1.000  H
  H82      1.0000 0.21240  0.07290  0.33390  Biso   1.000  H
  H83      1.0000 0.28760  0.57290  0.16610  Biso   1.000  H
  H84      1.0000 0.71240  0.57290  0.33390  Biso   1.000  H
  S17      1.0000 0.23270  0.33420  0.23440  Biso   1.000  S
  S18      1.0000 0.76730  0.33420  0.26560  Biso   1.000  S
  S19      1.0000 0.73270  0.83420  0.23440  Biso   1.000  S
  S20      1.0000 0.26730  0.83420  0.26560  Biso   1.000  S
  S21      1.0000 0.76730  0.66580  0.76560  Biso   1.000  S
  S22      1.0000 0.23270  0.66580  0.73440  Biso   1.000  S
  S23      1.0000 0.26730  0.16580  0.76560  Biso   1.000  S
  S24      1.0000 0.73270  0.16580  0.73440  Biso   1.000  S
  C105     1.0000 0.22310  0.20200  0.10940  Biso   1.000  C
  C106     1.0000 0.77690  0.20200  0.39060  Biso   1.000  C
  C107     1.0000 0.72310  0.70200  0.10940  Biso   1.000  C
  C108     1.0000 0.27690  0.70200  0.39060  Biso   1.000  C
  C109     1.0000 0.77690  0.79800  0.89060  Biso   1.000  C
  C110     1.0000 0.22310  0.79800  0.60940  Biso   1.000  C
  C111     1.0000 0.27690  0.29800  0.89060  Biso   1.000  C
  C112     1.0000 0.72310  0.29800  0.60940  Biso   1.000  C
  H85      1.0000 0.20510  0.16670  0.05660  Biso   1.000  H
  H86      1.0000 0.79490  0.16670  0.44340  Biso   1.000  H
  H87      1.0000 0.70510  0.66670  0.05660  Biso   1.000  H
  H88      1.0000 0.29490  0.66670  0.44340  Biso   1.000  H
  H89      1.0000 0.79490  0.83330  0.94340  Biso   1.000  H
  H90      1.0000 0.20510  0.83330  0.55660  Biso   1.000  H
  H91      1.0000 0.29490  0.33330  0.94340  Biso   1.000  H
  H92      1.0000 0.70510  0.33330  0.55660  Biso   1.000  H
  S25      1.0000 0.16960  0.89450  0.00690  Biso   1.000  S
  S26      1.0000 0.83040  0.89450  0.49310  Biso   1.000  S
  S27      1.0000 0.66960  0.39450  0.00690  Biso   1.000  S
  S28      1.0000 0.33040  0.39450  0.49310  Biso   1.000  S
  S29      1.0000 0.83040  0.10550  0.99310  Biso   1.000  S
  S30      1.0000 0.16960  0.10550  0.50690  Biso   1.000  S
  S31      1.0000 0.33040  0.60550  0.99310  Biso   1.000  S
  S32      1.0000 0.66960  0.60550  0.50690  Biso   1.000  S
  C113     1.0000 0.14600  0.77100  0.87150  Biso   1.000  C
  C114     1.0000 0.85400  0.77100  0.62850  Biso   1.000  C
  C115     1.0000 0.64600  0.27100  0.87150  Biso   1.000  C
  C116     1.0000 0.35400  0.27100  0.62850  Biso   1.000  C
  C117     1.0000 0.85400  0.22900  0.12850  Biso   1.000  C
  C118     1.0000 0.14600  0.22900  0.37150  Biso   1.000  C
  C119     1.0000 0.35400  0.72900  0.12850  Biso   1.000  C
  C120     1.0000 0.64600  0.72900  0.37150  Biso   1.000  C
  H93      1.0000 0.12890  0.70910  0.82910  Biso   1.000  H
  H94      1.0000 0.87110  0.70910  0.67090  Biso   1.000  H
  H95      1.0000 0.62890  0.20910  0.82910  Biso   1.000  H
  H96      1.0000 0.37110  0.20910  0.67090  Biso   1.000  H
  H97      1.0000 0.87110  0.29090  0.17090  Biso   1.000  H
  H98      1.0000 0.12890  0.29090  0.32910  Biso   1.000  H
  H99      1.0000 0.37110  0.79090  0.17090  Biso   1.000  H
  H100     1.0000 0.62890  0.79090  0.32910  Biso   1.000  H
