data_image0
_cell_length_a       8.929
_cell_length_b       13.83
_cell_length_c       14.575
_cell_angle_alpha    90
_cell_angle_beta     97.33
_cell_angle_gamma    90

_symmetry_space_group_name_H-M    "P 1"
_symmetry_int_tables_number       1

loop_
  _symmetry_equiv_pos_as_xyz
  'x, y, z'

loop_
  _atom_site_label
  _atom_site_occupancy
  _atom_site_fract_x
  _atom_site_fract_y
  _atom_site_fract_z
  _atom_site_thermal_displace_type
  _atom_site_B_iso_or_equiv
  _atom_site_type_symbol
  Cu1      1.0000 0.50000  0.50000  0.50000  Biso   1.000  Cu
  Cu2      1.0000 0.50000  0.00000  0.00000  Biso   1.000  Cu
  O1       1.0000 0.34110  0.43218  0.42197  Biso   1.000  O
  O2       1.0000 0.65890  0.93218  0.07803  Biso   1.000  O
  O3       1.0000 0.65890  0.56782  0.57803  Biso   1.000  O
  O4       1.0000 0.34110  0.06782  0.92197  Biso   1.000  O
  O5       1.0000 0.65380  0.42155  0.45135  Biso   1.000  O
  O6       1.0000 0.34620  0.92155  0.04865  Biso   1.000  O
  O7       1.0000 0.34620  0.57845  0.54865  Biso   1.000  O
  O8       1.0000 0.65380  0.07845  0.95135  Biso   1.000  O
  N1       1.0000 0.50910  0.61810  0.37730  Biso   1.000  N
  N2       1.0000 0.49090  0.11810  0.12270  Biso   1.000  N
  N3       1.0000 0.49090  0.38190  0.62270  Biso   1.000  N
  N4       1.0000 0.50910  0.88190  0.87730  Biso   1.000  N
  C1       1.0000 0.35540  0.36860  0.36080  Biso   1.000  C
  C2       1.0000 0.64460  0.86860  0.13920  Biso   1.000  C
  C3       1.0000 0.64460  0.63140  0.63920  Biso   1.000  C
  C4       1.0000 0.35540  0.13140  0.86080  Biso   1.000  C
  C5       1.0000 0.63450  0.35780  0.38820  Biso   1.000  C
  C6       1.0000 0.36550  0.85780  0.11180  Biso   1.000  C
  C7       1.0000 0.36550  0.64220  0.61180  Biso   1.000  C
  C8       1.0000 0.63450  0.14220  0.88820  Biso   1.000  C
  C9       1.0000 0.49730  0.59210  0.28910  Biso   1.000  C
  C10      1.0000 0.50270  0.09210  0.21090  Biso   1.000  C
  C11      1.0000 0.50270  0.40790  0.71090  Biso   1.000  C
  C12      1.0000 0.49730  0.90790  0.78910  Biso   1.000  C
  C13      1.0000 0.52170  0.71290  0.39490  Biso   1.000  C
  C14      1.0000 0.47830  0.21290  0.10510  Biso   1.000  C
  C15      1.0000 0.47830  0.28710  0.60510  Biso   1.000  C
  C16      1.0000 0.52170  0.78710  0.89490  Biso   1.000  C
  C17      1.0000 0.20700  0.33630  0.30710  Biso   1.000  C
  C18      1.0000 0.79300  0.83630  0.19290  Biso   1.000  C
  C19      1.0000 0.79300  0.66370  0.69290  Biso   1.000  C
  C20      1.0000 0.20700  0.16370  0.80710  Biso   1.000  C
  C21      1.0000 0.49370  0.32860  0.34070  Biso   1.000  C
  C22      1.0000 0.50630  0.82860  0.15930  Biso   1.000  C
  C23      1.0000 0.50630  0.67140  0.65930  Biso   1.000  C
  C24      1.0000 0.49370  0.17140  0.84070  Biso   1.000  C
  C25      1.0000 0.77830  0.31300  0.36350  Biso   1.000  C
  C26      1.0000 0.22170  0.81300  0.13650  Biso   1.000  C
  C27      1.0000 0.22170  0.68700  0.63650  Biso   1.000  C
  C28      1.0000 0.77830  0.18700  0.86350  Biso   1.000  C
  C29      1.0000 0.49620  0.65710  0.21620  Biso   1.000  C
  C30      1.0000 0.50380  0.15710  0.28380  Biso   1.000  C
  C31      1.0000 0.50380  0.34290  0.78380  Biso   1.000  C
  C32      1.0000 0.49620  0.84290  0.71620  Biso   1.000  C
  H1       1.0000 0.48910  0.52510  0.27480  Biso   1.000  H
  H2       1.0000 0.51090  0.02510  0.22520  Biso   1.000  H
  H3       1.0000 0.51090  0.47490  0.72520  Biso   1.000  H
  H4       1.0000 0.48910  0.97490  0.77480  Biso   1.000  H
  C33      1.0000 0.51970  0.78290  0.32730  Biso   1.000  C
  C34      1.0000 0.48030  0.28290  0.17270  Biso   1.000  C
  C35      1.0000 0.48030  0.21710  0.67270  Biso   1.000  C
  C36      1.0000 0.51970  0.71710  0.82730  Biso   1.000  C
  H5       1.0000 0.53260  0.73330  0.45770  Biso   1.000  H
  H6       1.0000 0.46740  0.23330  0.04230  Biso   1.000  H
  H7       1.0000 0.46740  0.26670  0.54230  Biso   1.000  H
  H8       1.0000 0.53260  0.76670  0.95770  Biso   1.000  H
  H9       1.0000 0.13130  0.32860  0.34970  Biso   1.000  H
  H10      1.0000 0.86870  0.82860  0.15030  Biso   1.000  H
  H11      1.0000 0.86870  0.67140  0.65030  Biso   1.000  H
  H12      1.0000 0.13130  0.17140  0.84970  Biso   1.000  H
  H13      1.0000 0.22150  0.27450  0.27660  Biso   1.000  H
  H14      1.0000 0.77850  0.77450  0.22340  Biso   1.000  H
  H15      1.0000 0.77850  0.72550  0.72340  Biso   1.000  H
  H16      1.0000 0.22150  0.22550  0.77660  Biso   1.000  H
  H17      1.0000 0.17250  0.38510  0.26030  Biso   1.000  H
  H18      1.0000 0.82750  0.88510  0.23970  Biso   1.000  H
  H19      1.0000 0.82750  0.61490  0.73970  Biso   1.000  H
  H20      1.0000 0.17250  0.11490  0.76030  Biso   1.000  H
  C37      1.0000 0.49170  0.25560  0.26490  Biso   1.000  C
  C38      1.0000 0.50830  0.75560  0.23510  Biso   1.000  C
  C39      1.0000 0.50830  0.74440  0.73510  Biso   1.000  C
  C40      1.0000 0.49170  0.24440  0.76490  Biso   1.000  C
  H21      1.0000 0.80000  0.33860  0.30390  Biso   1.000  H
  H22      1.0000 0.20000  0.83860  0.19610  Biso   1.000  H
  H23      1.0000 0.20000  0.66140  0.69610  Biso   1.000  H
  H24      1.0000 0.80000  0.16140  0.80390  Biso   1.000  H
  H25      1.0000 0.76630  0.24270  0.35910  Biso   1.000  H
  H26      1.0000 0.23370  0.74270  0.14090  Biso   1.000  H
  H27      1.0000 0.23370  0.75730  0.64090  Biso   1.000  H
  H28      1.0000 0.76630  0.25730  0.85910  Biso   1.000  H
  H29      1.0000 0.86200  0.32860  0.41140  Biso   1.000  H
  H30      1.0000 0.13800  0.82860  0.08860  Biso   1.000  H
  H31      1.0000 0.13800  0.67140  0.58860  Biso   1.000  H
  H32      1.0000 0.86200  0.17140  0.91140  Biso   1.000  H
  H33      1.0000 0.48730  0.63450  0.15420  Biso   1.000  H
  H34      1.0000 0.51270  0.13450  0.34580  Biso   1.000  H
  H35      1.0000 0.51270  0.36550  0.84580  Biso   1.000  H
  H36      1.0000 0.48730  0.86550  0.65420  Biso   1.000  H
  H37      1.0000 0.52610  0.84930  0.34380  Biso   1.000  H
  H38      1.0000 0.47390  0.34930  0.15620  Biso   1.000  H
  H39      1.0000 0.47390  0.15070  0.65620  Biso   1.000  H
  H40      1.0000 0.52610  0.65070  0.84380  Biso   1.000  H
  O9       1.0000 0.31690  0.01570  0.56020  Biso   1.000  O
  O10      1.0000 0.68310  0.51570  0.93980  Biso   1.000  O
  O11      1.0000 0.68310  0.98430  0.43980  Biso   1.000  O
  O12      1.0000 0.31690  0.48430  0.06020  Biso   1.000  O
  C41      1.0000 0.19130  0.07820  0.53910  Biso   1.000  C
  C42      1.0000 0.80870  0.57820  0.96090  Biso   1.000  C
  C43      1.0000 0.80870  0.92180  0.46090  Biso   1.000  C
  C44      1.0000 0.19130  0.42180  0.03910  Biso   1.000  C
  H41      1.0000 0.20860  0.14080  0.57180  Biso   1.000  H
  H42      1.0000 0.79140  0.64080  0.92820  Biso   1.000  H
  H43      1.0000 0.79140  0.85920  0.42820  Biso   1.000  H
  H44      1.0000 0.20860  0.35920  0.07180  Biso   1.000  H
  H45      1.0000 0.09820  0.04840  0.55660  Biso   1.000  H
  H46      1.0000 0.90180  0.54840  0.94340  Biso   1.000  H
  H47      1.0000 0.90180  0.95160  0.44340  Biso   1.000  H
  H48      1.0000 0.09820  0.45160  0.05660  Biso   1.000  H
  C45      1.0000 0.17970  0.09190  0.43690  Biso   1.000  C
  C46      1.0000 0.82030  0.59190  0.06310  Biso   1.000  C
  C47      1.0000 0.82030  0.90810  0.56310  Biso   1.000  C
  C48      1.0000 0.17970  0.40810  0.93690  Biso   1.000  C
  H49      1.0000 0.24600  0.14510  0.42110  Biso   1.000  H
  H50      1.0000 0.75400  0.64510  0.07890  Biso   1.000  H
  H51      1.0000 0.75400  0.85490  0.57890  Biso   1.000  H
  H52      1.0000 0.24600  0.35490  0.92110  Biso   1.000  H
  H53      1.0000 0.07440  0.10630  0.41030  Biso   1.000  H
  H54      1.0000 0.92560  0.60630  0.08970  Biso   1.000  H
  H55      1.0000 0.92560  0.89370  0.58970  Biso   1.000  H
  H56      1.0000 0.07440  0.39370  0.91030  Biso   1.000  H
  C49      1.0000 0.23140  0.99520  0.40180  Biso   1.000  C
  C50      1.0000 0.76860  0.49520  0.09820  Biso   1.000  C
  C51      1.0000 0.76860  0.00480  0.59820  Biso   1.000  C
  C52      1.0000 0.23140  0.50480  0.90180  Biso   1.000  C
  H57      1.0000 0.14480  0.95780  0.37090  Biso   1.000  H
  H58      1.0000 0.85520  0.45780  0.12910  Biso   1.000  H
  H59      1.0000 0.85520  0.04220  0.62910  Biso   1.000  H
  H60      1.0000 0.14480  0.54220  0.87090  Biso   1.000  H
  H61      1.0000 0.30600  0.00460  0.35790  Biso   1.000  H
  H62      1.0000 0.69400  0.50460  0.14210  Biso   1.000  H
  H63      1.0000 0.69400  0.99540  0.64210  Biso   1.000  H
  H64      1.0000 0.30600  0.49540  0.85790  Biso   1.000  H
  C53      1.0000 0.30220  0.94460  0.48880  Biso   1.000  C
  C54      1.0000 0.69780  0.44460  0.01120  Biso   1.000  C
  C55      1.0000 0.69780  0.05540  0.51120  Biso   1.000  C
  C56      1.0000 0.30220  0.55540  0.98880  Biso   1.000  C
  H65      1.0000 0.23710  0.89080  0.50470  Biso   1.000  H
  H66      1.0000 0.76290  0.39080  0.99530  Biso   1.000  H
  H67      1.0000 0.76290  0.10920  0.49530  Biso   1.000  H
  H68      1.0000 0.23710  0.60920  0.00470  Biso   1.000  H
  H69      1.0000 0.40240  0.91810  0.47990  Biso   1.000  H
  H70      1.0000 0.59760  0.41810  0.02010  Biso   1.000  H
  H71      1.0000 0.59760  0.08190  0.52010  Biso   1.000  H
  H72      1.0000 0.40240  0.58190  0.97990  Biso   1.000  H
  O13      1.0000 0.01750  0.21680  0.07130  Biso   1.000  O
  O14      1.0000 0.98250  0.71680  0.42870  Biso   1.000  O
  O15      1.0000 0.98250  0.78320  0.92870  Biso   1.000  O
  O16      1.0000 0.01750  0.28320  0.57130  Biso   1.000  O
  C57      1.0000 0.90040  0.21550  0.12850  Biso   1.000  C
  C58      1.0000 0.09960  0.71550  0.37150  Biso   1.000  C
  C59      1.0000 0.09960  0.78450  0.87150  Biso   1.000  C
  C60      1.0000 0.90040  0.28450  0.62850  Biso   1.000  C
  H73      1.0000 0.80080  0.21610  0.08990  Biso   1.000  H
  H74      1.0000 0.19920  0.71610  0.41010  Biso   1.000  H
  H75      1.0000 0.19920  0.78390  0.91010  Biso   1.000  H
  H76      1.0000 0.80080  0.28390  0.58990  Biso   1.000  H
  H77      1.0000 0.90750  0.27330  0.16890  Biso   1.000  H
  H78      1.0000 0.09250  0.77330  0.33110  Biso   1.000  H
  H79      1.0000 0.09250  0.72670  0.83110  Biso   1.000  H
  H80      1.0000 0.90750  0.22670  0.66890  Biso   1.000  H
  C61      1.0000 0.91680  0.12620  0.18560  Biso   1.000  C
  C62      1.0000 0.08320  0.62620  0.31440  Biso   1.000  C
  C63      1.0000 0.08320  0.87380  0.81440  Biso   1.000  C
  C64      1.0000 0.91680  0.37380  0.68560  Biso   1.000  C
  H81      1.0000 0.82570  0.08510  0.17340  Biso   1.000  H
  H82      1.0000 0.17430  0.58510  0.32660  Biso   1.000  H
  H83      1.0000 0.17430  0.91490  0.82660  Biso   1.000  H
  H84      1.0000 0.82570  0.41490  0.67340  Biso   1.000  H
  H85      1.0000 0.93370  0.14220  0.25230  Biso   1.000  H
  H86      1.0000 0.06630  0.64220  0.24770  Biso   1.000  H
  H87      1.0000 0.06630  0.85780  0.74770  Biso   1.000  H
  H88      1.0000 0.93370  0.35780  0.75230  Biso   1.000  H
  C65      1.0000 0.05210  0.07630  0.15610  Biso   1.000  C
  C66      1.0000 0.94790  0.57630  0.34390  Biso   1.000  C
  C67      1.0000 0.94790  0.92370  0.84390  Biso   1.000  C
  C68      1.0000 0.05210  0.42370  0.65610  Biso   1.000  C
  H89      1.0000 0.14040  0.08290  0.20420  Biso   1.000  H
  H90      1.0000 0.85960  0.58290  0.29580  Biso   1.000  H
  H91      1.0000 0.85960  0.91710  0.79580  Biso   1.000  H
  H92      1.0000 0.14040  0.41710  0.70420  Biso   1.000  H
  H93      1.0000 0.03120  0.00670  0.14500  Biso   1.000  H
  H94      1.0000 0.96880  0.50670  0.35500  Biso   1.000  H
  H95      1.0000 0.96880  0.99330  0.85500  Biso   1.000  H
  H96      1.0000 0.03120  0.49330  0.64500  Biso   1.000  H
  C69      1.0000 0.07940  0.12210  0.07440  Biso   1.000  C
  C70      1.0000 0.92060  0.62210  0.42560  Biso   1.000  C
  C71      1.0000 0.92060  0.87790  0.92560  Biso   1.000  C
  C72      1.0000 0.07940  0.37790  0.57440  Biso   1.000  C
  H97      1.0000 0.03280  0.08440  0.02040  Biso   1.000  H
  H98      1.0000 0.96720  0.58440  0.47960  Biso   1.000  H
  H99      1.0000 0.96720  0.91560  0.97960  Biso   1.000  H
  H100     1.0000 0.03280  0.41560  0.52040  Biso   1.000  H
  H101     1.0000 0.18950  0.12560  0.07170  Biso   1.000  H
  H102     1.0000 0.81050  0.62560  0.42830  Biso   1.000  H
  H103     1.0000 0.81050  0.87440  0.92830  Biso   1.000  H
  H104     1.0000 0.18950  0.37440  0.57170  Biso   1.000  H
