data_image0
_cell_length_a       7.654
_cell_length_b       10.553
_cell_length_c       16.47
_cell_angle_alpha    90
_cell_angle_beta     102.058
_cell_angle_gamma    90

_symmetry_space_group_name_H-M    "P 1"
_symmetry_int_tables_number       1

loop_
  _symmetry_equiv_pos_as_xyz
  'x, y, z'

loop_
  _atom_site_label
  _atom_site_occupancy
  _atom_site_fract_x
  _atom_site_fract_y
  _atom_site_fract_z
  _atom_site_thermal_displace_type
  _atom_site_B_iso_or_equiv
  _atom_site_type_symbol
  Cu1      1.0000 0.00000  0.00000  0.00000  Biso   1.000  Cu
  Cu2      1.0000 0.50000  0.50000  0.50000  Biso   1.000  Cu
  O1       1.0000 0.25306  0.02233  0.04765  Biso   1.000  O
  O2       1.0000 0.24694  0.52233  0.45235  Biso   1.000  O
  O3       1.0000 0.74694  0.97767  0.95235  Biso   1.000  O
  O4       1.0000 0.75306  0.47767  0.54765  Biso   1.000  O
  O5       1.0000 0.93701  0.13507  0.06875  Biso   1.000  O
  O6       1.0000 0.56299  0.63507  0.43125  Biso   1.000  O
  O7       1.0000 0.06299  0.86493  0.93125  Biso   1.000  O
  O8       1.0000 0.43701  0.36493  0.56875  Biso   1.000  O
  N1       1.0000 0.98320  0.15213  0.88453  Biso   1.000  N
  N2       1.0000 0.51680  0.65213  0.61547  Biso   1.000  N
  N3       1.0000 0.01680  0.84787  0.11547  Biso   1.000  N
  N4       1.0000 0.48320  0.34787  0.38453  Biso   1.000  N
  C1       1.0000 0.51836  0.06020  0.14504  Biso   1.000  C
  C2       1.0000 0.98164  0.56020  0.35496  Biso   1.000  C
  C3       1.0000 0.48164  0.93980  0.85496  Biso   1.000  C
  C4       1.0000 0.01836  0.43980  0.64504  Biso   1.000  C
  H1       1.0000 0.53810  0.98170  0.17740  Biso   1.000  H
  H2       1.0000 0.96190  0.48170  0.32260  Biso   1.000  H
  H3       1.0000 0.46190  0.01830  0.82260  Biso   1.000  H
  H4       1.0000 0.03810  0.51830  0.67740  Biso   1.000  H
  H5       1.0000 0.56930  0.13170  0.18010  Biso   1.000  H
  H6       1.0000 0.93070  0.63170  0.31990  Biso   1.000  H
  H7       1.0000 0.43070  0.86830  0.81990  Biso   1.000  H
  H8       1.0000 0.06930  0.36830  0.68010  Biso   1.000  H
  H9       1.0000 0.57620  0.05380  0.09740  Biso   1.000  H
  H10      1.0000 0.92380  0.55380  0.40260  Biso   1.000  H
  H11      1.0000 0.42380  0.94620  0.90260  Biso   1.000  H
  H12      1.0000 0.07620  0.44620  0.59740  Biso   1.000  H
  C5       1.0000 0.31987  0.08090  0.11446  Biso   1.000  C
  C6       1.0000 0.18013  0.58090  0.38554  Biso   1.000  C
  C7       1.0000 0.68013  0.91910  0.88554  Biso   1.000  C
  C8       1.0000 0.81987  0.41910  0.61446  Biso   1.000  C
  C9       1.0000 0.22317  0.15899  0.15934  Biso   1.000  C
  C10      1.0000 0.27683  0.65899  0.34066  Biso   1.000  C
  C11      1.0000 0.77683  0.84101  0.84066  Biso   1.000  C
  C12      1.0000 0.72317  0.34101  0.65934  Biso   1.000  C
  C13      1.0000 0.03830  0.18396  0.13194  Biso   1.000  C
  C14      1.0000 0.46170  0.68396  0.36806  Biso   1.000  C
  C15      1.0000 0.96170  0.81604  0.86806  Biso   1.000  C
  C16      1.0000 0.53830  0.31604  0.63194  Biso   1.000  C
  C17      1.0000 0.94600  0.27686  0.17924  Biso   1.000  C
  C18      1.0000 0.55400  0.77686  0.32076  Biso   1.000  C
  C19      1.0000 0.05400  0.72314  0.82076  Biso   1.000  C
  C20      1.0000 0.44600  0.22314  0.67924  Biso   1.000  C
  H13      1.0000 0.83440  0.30580  0.14340  Biso   1.000  H
  H14      1.0000 0.66560  0.80580  0.35660  Biso   1.000  H
  H15      1.0000 0.16560  0.69420  0.85660  Biso   1.000  H
  H16      1.0000 0.33440  0.19420  0.64340  Biso   1.000  H
  H17      1.0000 0.02430  0.34970  0.19640  Biso   1.000  H
  H18      1.0000 0.47570  0.84970  0.30360  Biso   1.000  H
  H19      1.0000 0.97570  0.65030  0.80360  Biso   1.000  H
  H20      1.0000 0.52430  0.15030  0.69640  Biso   1.000  H
  H21      1.0000 0.91950  0.23510  0.22840  Biso   1.000  H
  H22      1.0000 0.58050  0.73510  0.27160  Biso   1.000  H
  H23      1.0000 0.08050  0.76490  0.77160  Biso   1.000  H
  H24      1.0000 0.41950  0.26490  0.72840  Biso   1.000  H
  C21      1.0000 0.31780  0.22204  0.23750  Biso   1.000  C
  C22      1.0000 0.18220  0.72204  0.26250  Biso   1.000  C
  C23      1.0000 0.68220  0.77796  0.76250  Biso   1.000  C
  C24      1.0000 0.81780  0.27796  0.73750  Biso   1.000  C
  C25      1.0000 0.28674  0.18551  0.31479  Biso   1.000  C
  C26      1.0000 0.21326  0.68551  0.18521  Biso   1.000  C
  C27      1.0000 0.71326  0.81449  0.68521  Biso   1.000  C
  C28      1.0000 0.78674  0.31449  0.81479  Biso   1.000  C
  H25      1.0000 0.20980  0.11630  0.31910  Biso   1.000  H
  H26      1.0000 0.29020  0.61630  0.18090  Biso   1.000  H
  H27      1.0000 0.79020  0.88370  0.68090  Biso   1.000  H
  H28      1.0000 0.70980  0.38370  0.81910  Biso   1.000  H
  C29      1.0000 0.86973  0.24835  0.88534  Biso   1.000  C
  C30      1.0000 0.63027  0.74835  0.61466  Biso   1.000  C
  C31      1.0000 0.13027  0.75165  0.11466  Biso   1.000  C
  C32      1.0000 0.36973  0.25165  0.38534  Biso   1.000  C
  H29      1.0000 0.84440  0.27290  0.93720  Biso   1.000  H
  H30      1.0000 0.65560  0.77290  0.56280  Biso   1.000  H
  H31      1.0000 0.15560  0.72710  0.06280  Biso   1.000  H
  H32      1.0000 0.34440  0.22710  0.43720  Biso   1.000  H
  C33      1.0000 0.01566  0.11923  0.81054  Biso   1.000  C
  C34      1.0000 0.48434  0.61923  0.68946  Biso   1.000  C
  C35      1.0000 0.98434  0.88077  0.18946  Biso   1.000  C
  C36      1.0000 0.51566  0.38077  0.31054  Biso   1.000  C
  H33      1.0000 0.09740  0.05210  0.80860  Biso   1.000  H
  H34      1.0000 0.40260  0.55210  0.69140  Biso   1.000  H
  H35      1.0000 0.90260  0.94790  0.19140  Biso   1.000  H
  H36      1.0000 0.59740  0.44790  0.30860  Biso   1.000  H
  C37      1.0000 0.43652  0.32217  0.23653  Biso   1.000  C
  C38      1.0000 0.06348  0.82217  0.26347  Biso   1.000  C
  C39      1.0000 0.56348  0.67783  0.76347  Biso   1.000  C
  C40      1.0000 0.93652  0.17783  0.73653  Biso   1.000  C
  H37      1.0000 0.46300  0.35000  0.18560  Biso   1.000  H
  H38      1.0000 0.03700  0.85000  0.31440  Biso   1.000  H
  H39      1.0000 0.53700  0.65000  0.81440  Biso   1.000  H
  H40      1.0000 0.96300  0.15000  0.68560  Biso   1.000  H
  S1       1.0000 0.69758  0.62202  0.10316  Biso   1.000  S
  S2       1.0000 0.80242  0.12202  0.39684  Biso   1.000  S
  S3       1.0000 0.30242  0.37798  0.89684  Biso   1.000  S
  S4       1.0000 0.19758  0.87798  0.60316  Biso   1.000  S
  O9       1.0000 0.57736  0.51907  0.12278  Biso   1.000  O
  O10      1.0000 0.92264  0.01907  0.37722  Biso   1.000  O
  O11      1.0000 0.42264  0.48093  0.87722  Biso   1.000  O
  O12      1.0000 0.07736  0.98093  0.62278  Biso   1.000  O
  C41      1.0000 0.78670  0.56611  0.01760  Biso   1.000  C
  C42      1.0000 0.71330  0.06611  0.48240  Biso   1.000  C
  C43      1.0000 0.21330  0.43389  0.98240  Biso   1.000  C
  C44      1.0000 0.28670  0.93389  0.51760  Biso   1.000  C
  H41      1.0000 0.87250  0.49790  0.03640  Biso   1.000  H
  H42      1.0000 0.62750  0.99790  0.46360  Biso   1.000  H
  H43      1.0000 0.12750  0.50210  0.96360  Biso   1.000  H
  H44      1.0000 0.37250  0.00210  0.53640  Biso   1.000  H
  H45      1.0000 0.84700  0.63590  0.99540  Biso   1.000  H
  H46      1.0000 0.65300  0.13590  0.50460  Biso   1.000  H
  H47      1.0000 0.15300  0.36410  0.00460  Biso   1.000  H
  H48      1.0000 0.34700  0.86410  0.49540  Biso   1.000  H
  H49      1.0000 0.68940  0.53390  0.97410  Biso   1.000  H
  H50      1.0000 0.81060  0.03390  0.52590  Biso   1.000  H
  H51      1.0000 0.31060  0.46610  0.02590  Biso   1.000  H
  H52      1.0000 0.18940  0.96610  0.47410  Biso   1.000  H
  C45      1.0000 0.55620  0.74020  0.04673  Biso   1.000  C
  C46      1.0000 0.94380  0.24020  0.45327  Biso   1.000  C
  C47      1.0000 0.44380  0.25980  0.95327  Biso   1.000  C
  C48      1.0000 0.05620  0.75980  0.54673  Biso   1.000  C
  H53      1.0000 0.48090  0.70200  0.99740  Biso   1.000  H
  H54      1.0000 0.01910  0.20200  0.50260  Biso   1.000  H
  H55      1.0000 0.51910  0.29800  0.00260  Biso   1.000  H
  H56      1.0000 0.98090  0.79800  0.49740  Biso   1.000  H
  H57      1.0000 0.62960  0.80730  0.02970  Biso   1.000  H
  H58      1.0000 0.87040  0.30730  0.47030  Biso   1.000  H
  H59      1.0000 0.37040  0.19270  0.97030  Biso   1.000  H
  H60      1.0000 0.12960  0.69270  0.52970  Biso   1.000  H
  H61      1.0000 0.48050  0.77630  0.08200  Biso   1.000  H
  H62      1.0000 0.01950  0.27630  0.41800  Biso   1.000  H
  H63      1.0000 0.51950  0.22370  0.91800  Biso   1.000  H
  H64      1.0000 0.98050  0.72370  0.58200  Biso   1.000  H
