data_image0
_cell_length_a       9.301
_cell_length_b       14.214
_cell_length_c       14.281
_cell_angle_alpha    90
_cell_angle_beta     93.881
_cell_angle_gamma    90

_symmetry_space_group_name_H-M    "P 1"
_symmetry_int_tables_number       1

loop_
  _symmetry_equiv_pos_as_xyz
  'x, y, z'

loop_
  _atom_site_label
  _atom_site_occupancy
  _atom_site_fract_x
  _atom_site_fract_y
  _atom_site_fract_z
  _atom_site_thermal_displace_type
  _atom_site_B_iso_or_equiv
  _atom_site_type_symbol
  Cu1      1.0000 0.50000  0.50000  0.50000  Biso   1.000  Cu
  Cu2      1.0000 0.50000  0.00000  0.00000  Biso   1.000  Cu
  O1       1.0000 0.64710  0.42910  0.43893  Biso   1.000  O
  O2       1.0000 0.35290  0.92910  0.06107  Biso   1.000  O
  O3       1.0000 0.35290  0.57090  0.56107  Biso   1.000  O
  O4       1.0000 0.64710  0.07090  0.93893  Biso   1.000  O
  O5       1.0000 0.34990  0.43250  0.42571  Biso   1.000  O
  O6       1.0000 0.65010  0.93250  0.07429  Biso   1.000  O
  O7       1.0000 0.65010  0.56750  0.57429  Biso   1.000  O
  O8       1.0000 0.34990  0.06750  0.92571  Biso   1.000  O
  C1       1.0000 0.63020  0.36720  0.37580  Biso   1.000  C
  C2       1.0000 0.36980  0.86720  0.12420  Biso   1.000  C
  C3       1.0000 0.36980  0.63280  0.62420  Biso   1.000  C
  C4       1.0000 0.63020  0.13280  0.87580  Biso   1.000  C
  C5       1.0000 0.49490  0.25990  0.26110  Biso   1.000  C
  C6       1.0000 0.50510  0.75990  0.23890  Biso   1.000  C
  C7       1.0000 0.50510  0.74010  0.73890  Biso   1.000  C
  C8       1.0000 0.49490  0.24010  0.76110  Biso   1.000  C
  C9       1.0000 0.36330  0.36970  0.36400  Biso   1.000  C
  C10      1.0000 0.63670  0.86970  0.13600  Biso   1.000  C
  C11      1.0000 0.63670  0.63030  0.63600  Biso   1.000  C
  C12      1.0000 0.36330  0.13030  0.86400  Biso   1.000  C
  C13      1.0000 0.49620  0.33460  0.33590  Biso   1.000  C
  C14      1.0000 0.50380  0.83460  0.16410  Biso   1.000  C
  C15      1.0000 0.50380  0.66540  0.66410  Biso   1.000  C
  C16      1.0000 0.49620  0.16540  0.83590  Biso   1.000  C
  N1       1.0000 0.49690  0.12040  0.12140  Biso   1.000  N
  N2       1.0000 0.50310  0.62040  0.37860  Biso   1.000  N
  N3       1.0000 0.50310  0.87960  0.87860  Biso   1.000  N
  N4       1.0000 0.49690  0.37960  0.62140  Biso   1.000  N
  C17      1.0000 0.49370  0.28150  0.16830  Biso   1.000  C
  C18      1.0000 0.50630  0.78150  0.33170  Biso   1.000  C
  C19      1.0000 0.50630  0.71850  0.83170  Biso   1.000  C
  C20      1.0000 0.49370  0.21850  0.66830  Biso   1.000  C
  H1       1.0000 0.49270  0.34550  0.14890  Biso   1.000  H
  H2       1.0000 0.50730  0.84550  0.35110  Biso   1.000  H
  H3       1.0000 0.50730  0.65450  0.85110  Biso   1.000  H
  H4       1.0000 0.49270  0.15450  0.64890  Biso   1.000  H
  C21      1.0000 0.49840  0.16580  0.28310  Biso   1.000  C
  C22      1.0000 0.50160  0.66580  0.21690  Biso   1.000  C
  C23      1.0000 0.50160  0.83420  0.71690  Biso   1.000  C
  C24      1.0000 0.49840  0.33420  0.78310  Biso   1.000  C
  H5       1.0000 0.50000  0.14610  0.34670  Biso   1.000  H
  H6       1.0000 0.50000  0.64610  0.15330  Biso   1.000  H
  H7       1.0000 0.50000  0.85390  0.65330  Biso   1.000  H
  H8       1.0000 0.50000  0.35390  0.84670  Biso   1.000  H
  C25      1.0000 0.50040  0.59980  0.28840  Biso   1.000  C
  C26      1.0000 0.49960  0.09980  0.21160  Biso   1.000  C
  C27      1.0000 0.49960  0.40020  0.71160  Biso   1.000  C
  C28      1.0000 0.50040  0.90020  0.78840  Biso   1.000  C
  H9       1.0000 0.49750  0.53520  0.27120  Biso   1.000  H
  H10      1.0000 0.50250  0.03520  0.22880  Biso   1.000  H
  H11      1.0000 0.50250  0.46480  0.72880  Biso   1.000  H
  H12      1.0000 0.49750  0.96480  0.77120  Biso   1.000  H
  C29      1.0000 0.49400  0.21000  0.10200  Biso   1.000  C
  C30      1.0000 0.50600  0.71000  0.39800  Biso   1.000  C
  C31      1.0000 0.50600  0.79000  0.89800  Biso   1.000  C
  C32      1.0000 0.49400  0.29000  0.60200  Biso   1.000  C
  H13      1.0000 0.50810  0.72780  0.46220  Biso   1.000  H
  H14      1.0000 0.49190  0.22780  0.03780  Biso   1.000  H
  H15      1.0000 0.49190  0.27220  0.53780  Biso   1.000  H
  H16      1.0000 0.50810  0.77220  0.96220  Biso   1.000  H
  C33      1.0000 0.22370  0.33250  0.31910  Biso   1.000  C
  C34      1.0000 0.77630  0.83250  0.18090  Biso   1.000  C
  C35      1.0000 0.77630  0.66750  0.68090  Biso   1.000  C
  C36      1.0000 0.22370  0.16750  0.81910  Biso   1.000  C
  H17      1.0000 0.14550  0.34550  0.35990  Biso   1.000  H
  H18      1.0000 0.85450  0.84550  0.14010  Biso   1.000  H
  H19      1.0000 0.85450  0.65450  0.64010  Biso   1.000  H
  H20      1.0000 0.14550  0.15450  0.85990  Biso   1.000  H
  H21      1.0000 0.23160  0.26440  0.30990  Biso   1.000  H
  H22      1.0000 0.76840  0.76440  0.19010  Biso   1.000  H
  H23      1.0000 0.76840  0.73560  0.69010  Biso   1.000  H
  H24      1.0000 0.23160  0.23560  0.80990  Biso   1.000  H
  H25      1.0000 0.20290  0.36320  0.25830  Biso   1.000  H
  H26      1.0000 0.79710  0.86320  0.24170  Biso   1.000  H
  H27      1.0000 0.79710  0.63680  0.74170  Biso   1.000  H
  H28      1.0000 0.20290  0.13680  0.75830  Biso   1.000  H
  C37      1.0000 0.76840  0.32640  0.34390  Biso   1.000  C
  C38      1.0000 0.23160  0.82640  0.15610  Biso   1.000  C
  C39      1.0000 0.23160  0.67360  0.65610  Biso   1.000  C
  C40      1.0000 0.76840  0.17360  0.84390  Biso   1.000  C
  H29      1.0000 0.84660  0.37200  0.35550  Biso   1.000  H
  H30      1.0000 0.15340  0.87200  0.14450  Biso   1.000  H
  H31      1.0000 0.15340  0.62800  0.64450  Biso   1.000  H
  H32      1.0000 0.84660  0.12800  0.85550  Biso   1.000  H
  H33      1.0000 0.75660  0.31220  0.27670  Biso   1.000  H
  H34      1.0000 0.24340  0.81220  0.22330  Biso   1.000  H
  H35      1.0000 0.24340  0.68780  0.72330  Biso   1.000  H
  H36      1.0000 0.75660  0.18780  0.77670  Biso   1.000  H
  H37      1.0000 0.79180  0.26840  0.37890  Biso   1.000  H
  H38      1.0000 0.20820  0.76840  0.12110  Biso   1.000  H
  H39      1.0000 0.20820  0.73160  0.62110  Biso   1.000  H
  H40      1.0000 0.79180  0.23160  0.87890  Biso   1.000  H
  C41      1.0000 0.03800  0.19260  0.07240  Biso   1.000  C
  C42      1.0000 0.96200  0.69260  0.42760  Biso   1.000  C
  C43      1.0000 0.96200  0.80740  0.92760  Biso   1.000  C
  C44      1.0000 0.03800  0.30740  0.57240  Biso   1.000  C
  H41      1.0000 0.00810  0.18810  0.00470  Biso   1.000  H
  H42      1.0000 0.99190  0.68810  0.49530  Biso   1.000  H
  H43      1.0000 0.99190  0.81190  0.99530  Biso   1.000  H
  H44      1.0000 0.00810  0.31190  0.50470  Biso   1.000  H
  H45      1.0000 0.10730  0.24500  0.08270  Biso   1.000  H
  H46      1.0000 0.89270  0.74500  0.41730  Biso   1.000  H
  H47      1.0000 0.89270  0.75500  0.91730  Biso   1.000  H
  H48      1.0000 0.10730  0.25500  0.58270  Biso   1.000  H
  O9       1.0000 0.91900  0.20370  0.12620  Biso   1.000  O
  O10      1.0000 0.08100  0.70370  0.37380  Biso   1.000  O
  O11      1.0000 0.08100  0.79630  0.87380  Biso   1.000  O
  O12      1.0000 0.91900  0.29630  0.62620  Biso   1.000  O
  C45      1.0000 0.91600  0.12090  0.18740  Biso   1.000  C
  C46      1.0000 0.08400  0.62090  0.31260  Biso   1.000  C
  C47      1.0000 0.08400  0.87910  0.81260  Biso   1.000  C
  C48      1.0000 0.91600  0.37910  0.68740  Biso   1.000  C
  H49      1.0000 0.92610  0.14110  0.25390  Biso   1.000  H
  H50      1.0000 0.07390  0.64110  0.24610  Biso   1.000  H
  H51      1.0000 0.07390  0.85890  0.74610  Biso   1.000  H
  H52      1.0000 0.92610  0.35890  0.75390  Biso   1.000  H
  H53      1.0000 0.82220  0.08840  0.17650  Biso   1.000  H
  H54      1.0000 0.17780  0.58840  0.32350  Biso   1.000  H
  H55      1.0000 0.17780  0.91160  0.82350  Biso   1.000  H
  H56      1.0000 0.82220  0.41160  0.67650  Biso   1.000  H
  C49      1.0000 0.02100  0.06270  0.17020  Biso   1.000  C
  C50      1.0000 0.97900  0.56270  0.32980  Biso   1.000  C
  C51      1.0000 0.97900  0.93730  0.82980  Biso   1.000  C
  C52      1.0000 0.02100  0.43730  0.67020  Biso   1.000  C
  H57      1.0000 0.98300  0.00240  0.14440  Biso   1.000  H
  H58      1.0000 0.01700  0.50240  0.35560  Biso   1.000  H
  H59      1.0000 0.01700  0.99760  0.85560  Biso   1.000  H
  H60      1.0000 0.98300  0.49760  0.64440  Biso   1.000  H
  H61      1.0000 0.08330  0.04990  0.22790  Biso   1.000  H
  H62      1.0000 0.91670  0.54990  0.27210  Biso   1.000  H
  H63      1.0000 0.91670  0.95010  0.77210  Biso   1.000  H
  H64      1.0000 0.08330  0.45010  0.72790  Biso   1.000  H
  C53      1.0000 0.09500  0.10880  0.10700  Biso   1.000  C
  C54      1.0000 0.90500  0.60880  0.39300  Biso   1.000  C
  C55      1.0000 0.90500  0.89120  0.89300  Biso   1.000  C
  C56      1.0000 0.09500  0.39120  0.60700  Biso   1.000  C
  H65      1.0000 0.10570  0.06620  0.05250  Biso   1.000  H
  H66      1.0000 0.89430  0.56620  0.44750  Biso   1.000  H
  H67      1.0000 0.89430  0.93380  0.94750  Biso   1.000  H
  H68      1.0000 0.10570  0.43380  0.55250  Biso   1.000  H
  H69      1.0000 0.19330  0.12160  0.13500  Biso   1.000  H
  H70      1.0000 0.80670  0.62160  0.36500  Biso   1.000  H
  H71      1.0000 0.80670  0.87840  0.86500  Biso   1.000  H
  H72      1.0000 0.19330  0.37840  0.63500  Biso   1.000  H
  C57      1.0000 0.69400  0.43300  0.00690  Biso   1.000  C
  C58      1.0000 0.30600  0.93300  0.49310  Biso   1.000  C
  C59      1.0000 0.30600  0.56700  0.99310  Biso   1.000  C
  C60      1.0000 0.69400  0.06700  0.50690  Biso   1.000  C
  C61      1.0000 0.80500  0.46150  0.09100  Biso   1.000  C
  C62      1.0000 0.19500  0.96150  0.40900  Biso   1.000  C
  C63      1.0000 0.19500  0.53850  0.90900  Biso   1.000  C
  C64      1.0000 0.80500  0.03850  0.59100  Biso   1.000  C
  C65      1.0000 0.83300  0.56520  0.08330  Biso   1.000  C
  C66      1.0000 0.16700  0.06520  0.41670  Biso   1.000  C
  C67      1.0000 0.16700  0.43480  0.91670  Biso   1.000  C
  C68      1.0000 0.83300  0.93480  0.58330  Biso   1.000  C
  C69      1.0000 0.77400  0.59400  0.99250  Biso   1.000  C
  C70      1.0000 0.22600  0.09400  0.50750  Biso   1.000  C
  C71      1.0000 0.22600  0.40600  0.00750  Biso   1.000  C
  C72      1.0000 0.77400  0.90600  0.49250  Biso   1.000  C
  C73      1.0000 0.69800  0.51230  0.93800  Biso   1.000  C
  C74      1.0000 0.30200  0.01230  0.56200  Biso   1.000  C
  C75      1.0000 0.30200  0.48770  0.06200  Biso   1.000  C
  C76      1.0000 0.69800  0.98770  0.43800  Biso   1.000  C
  C77      1.0000 0.73100  0.57600  0.03030  Biso   1.000  C
  C78      1.0000 0.26900  0.07600  0.46970  Biso   1.000  C
  C79      1.0000 0.26900  0.42400  0.96970  Biso   1.000  C
  C80      1.0000 0.73100  0.92400  0.53030  Biso   1.000  C
  C81      1.0000 0.80500  0.55710  0.93800  Biso   1.000  C
  C82      1.0000 0.19500  0.05710  0.56200  Biso   1.000  C
  C83      1.0000 0.19500  0.44290  0.06200  Biso   1.000  C
  C84      1.0000 0.80500  0.94290  0.43800  Biso   1.000  C
  C85      1.0000 0.78900  0.45550  0.93430  Biso   1.000  C
  C86      1.0000 0.21100  0.95550  0.56570  Biso   1.000  C
  C87      1.0000 0.21100  0.54450  0.06570  Biso   1.000  C
  C88      1.0000 0.78900  0.04450  0.43430  Biso   1.000  C
  C89      1.0000 0.76900  0.41200  0.02320  Biso   1.000  C
  C90      1.0000 0.23100  0.91200  0.47680  Biso   1.000  C
  C91      1.0000 0.23100  0.58800  0.97680  Biso   1.000  C
  C92      1.0000 0.76900  0.08800  0.52320  Biso   1.000  C
  C93      1.0000 0.72600  0.49080  0.09200  Biso   1.000  C
  C94      1.0000 0.27400  0.99080  0.40800  Biso   1.000  C
  C95      1.0000 0.27400  0.50920  0.90800  Biso   1.000  C
  C96      1.0000 0.72600  0.00920  0.59200  Biso   1.000  C
