data_image0
_cell_length_a       7.563
_cell_length_b       9.582
_cell_length_c       16.085
_cell_angle_alpha    90
_cell_angle_beta     96.213
_cell_angle_gamma    90

_symmetry_space_group_name_H-M    "P 1"
_symmetry_int_tables_number       1

loop_
  _symmetry_equiv_pos_as_xyz
  'x, y, z'

loop_
  _atom_site_label
  _atom_site_occupancy
  _atom_site_fract_x
  _atom_site_fract_y
  _atom_site_fract_z
  _atom_site_thermal_displace_type
  _atom_site_B_iso_or_equiv
  _atom_site_type_symbol
  Cu1      1.0000 0.00000  0.00000  0.00000  Biso   1.000  Cu
  Cu2      1.0000 0.50000  0.50000  0.50000  Biso   1.000  Cu
  O1       1.0000 0.95660  0.15509  0.07157  Biso   1.000  O
  O2       1.0000 0.45660  0.34491  0.57157  Biso   1.000  O
  O3       1.0000 0.04340  0.84491  0.92843  Biso   1.000  O
  O4       1.0000 0.54340  0.65509  0.42843  Biso   1.000  O
  O5       1.0000 0.24907  0.99732  0.04049  Biso   1.000  O
  O6       1.0000 0.74907  0.50268  0.54049  Biso   1.000  O
  O7       1.0000 0.75093  0.00268  0.95951  Biso   1.000  O
  O8       1.0000 0.25093  0.49732  0.45951  Biso   1.000  O
  N1       1.0000 0.03417  0.15888  0.87122  Biso   1.000  N
  N2       1.0000 0.53417  0.34112  0.37122  Biso   1.000  N
  N3       1.0000 0.96583  0.84112  0.12878  Biso   1.000  N
  N4       1.0000 0.46583  0.65888  0.62878  Biso   1.000  N
  C1       1.0000 0.97803  0.29974  0.19009  Biso   1.000  C
  C2       1.0000 0.47803  0.20026  0.69009  Biso   1.000  C
  C3       1.0000 0.02197  0.70026  0.80991  Biso   1.000  C
  C4       1.0000 0.52197  0.79974  0.30991  Biso   1.000  C
  H1       1.0000 0.86190  0.32970  0.16300  Biso   1.000  H
  H2       1.0000 0.36190  0.17030  0.66300  Biso   1.000  H
  H3       1.0000 0.13810  0.67030  0.83700  Biso   1.000  H
  H4       1.0000 0.63810  0.82970  0.33700  Biso   1.000  H
  H5       1.0000 0.05580  0.38120  0.20020  Biso   1.000  H
  H6       1.0000 0.55580  0.11880  0.70020  Biso   1.000  H
  H7       1.0000 0.94420  0.61880  0.79980  Biso   1.000  H
  H8       1.0000 0.44420  0.88120  0.29980  Biso   1.000  H
  H9       1.0000 0.96270  0.25450  0.24350  Biso   1.000  H
  H10      1.0000 0.46270  0.24550  0.74350  Biso   1.000  H
  H11      1.0000 0.03730  0.74550  0.75650  Biso   1.000  H
  H12      1.0000 0.53730  0.75450  0.25650  Biso   1.000  H
  C5       1.0000 0.06093  0.19770  0.13389  Biso   1.000  C
  C6       1.0000 0.56093  0.30230  0.63389  Biso   1.000  C
  C7       1.0000 0.93907  0.80230  0.86611  Biso   1.000  C
  C8       1.0000 0.43907  0.69770  0.36611  Biso   1.000  C
  C9       1.0000 0.23988  0.15733  0.15343  Biso   1.000  C
  C10      1.0000 0.73988  0.34267  0.65343  Biso   1.000  C
  C11      1.0000 0.76012  0.84267  0.84657  Biso   1.000  C
  C12      1.0000 0.26012  0.65733  0.34657  Biso   1.000  C
  C13      1.0000 0.32458  0.06098  0.10413  Biso   1.000  C
  C14      1.0000 0.82458  0.43902  0.60413  Biso   1.000  C
  C15      1.0000 0.67542  0.93902  0.89587  Biso   1.000  C
  C16      1.0000 0.17542  0.56098  0.39587  Biso   1.000  C
  C17      1.0000 0.51912  0.02649  0.12524  Biso   1.000  C
  C18      1.0000 0.01912  0.47351  0.62524  Biso   1.000  C
  C19      1.0000 0.48088  0.97351  0.87476  Biso   1.000  C
  C20      1.0000 0.98088  0.52649  0.37476  Biso   1.000  C
  H13      1.0000 0.53960  0.92850  0.11160  Biso   1.000  H
  H14      1.0000 0.03960  0.57150  0.61160  Biso   1.000  H
  H15      1.0000 0.46040  0.07150  0.88840  Biso   1.000  H
  H16      1.0000 0.96040  0.42850  0.38840  Biso   1.000  H
  H17      1.0000 0.55310  0.04190  0.18510  Biso   1.000  H
  H18      1.0000 0.05310  0.45810  0.68510  Biso   1.000  H
  H19      1.0000 0.44690  0.95810  0.81490  Biso   1.000  H
  H20      1.0000 0.94690  0.54190  0.31490  Biso   1.000  H
  H21      1.0000 0.59080  0.08660  0.09270  Biso   1.000  H
  H22      1.0000 0.09080  0.41340  0.59270  Biso   1.000  H
  H23      1.0000 0.40920  0.91340  0.90730  Biso   1.000  H
  H24      1.0000 0.90920  0.58660  0.40730  Biso   1.000  H
  C21      1.0000 0.34407  0.22052  0.22838  Biso   1.000  C
  C22      1.0000 0.84407  0.27948  0.72838  Biso   1.000  C
  C23      1.0000 0.65593  0.77948  0.77162  Biso   1.000  C
  C24      1.0000 0.15593  0.72052  0.27162  Biso   1.000  C
  C25      1.0000 0.45853  0.33299  0.22201  Biso   1.000  C
  C26      1.0000 0.95853  0.16701  0.72201  Biso   1.000  C
  C27      1.0000 0.54147  0.66701  0.77799  Biso   1.000  C
  C28      1.0000 0.04147  0.83299  0.27799  Biso   1.000  C
  H25      1.0000 0.47480  0.37090  0.16880  Biso   1.000  H
  H26      1.0000 0.97480  0.12910  0.66880  Biso   1.000  H
  H27      1.0000 0.52520  0.62910  0.83120  Biso   1.000  H
  H28      1.0000 0.02520  0.87090  0.33120  Biso   1.000  H
  C29      1.0000 0.04890  0.11063  0.79422  Biso   1.000  C
  C30      1.0000 0.54890  0.38937  0.29422  Biso   1.000  C
  C31      1.0000 0.95110  0.88937  0.20578  Biso   1.000  C
  C32      1.0000 0.45110  0.61063  0.70578  Biso   1.000  C
  H29      1.0000 0.12550  0.03340  0.78850  Biso   1.000  H
  H30      1.0000 0.62550  0.46660  0.28850  Biso   1.000  H
  H31      1.0000 0.87450  0.96660  0.21150  Biso   1.000  H
  H32      1.0000 0.37450  0.53340  0.71150  Biso   1.000  H
  C33      1.0000 0.92783  0.26771  0.87697  Biso   1.000  C
  C34      1.0000 0.42783  0.23229  0.37697  Biso   1.000  C
  C35      1.0000 0.07217  0.73229  0.12303  Biso   1.000  C
  C36      1.0000 0.57217  0.76771  0.62303  Biso   1.000  C
  H33      1.0000 0.91810  0.30520  0.93100  Biso   1.000  H
  H34      1.0000 0.41810  0.19480  0.43100  Biso   1.000  H
  H35      1.0000 0.08190  0.69480  0.06900  Biso   1.000  H
  H36      1.0000 0.58190  0.80520  0.56900  Biso   1.000  H
  C37      1.0000 0.32953  0.16952  0.30877  Biso   1.000  C
  C38      1.0000 0.82953  0.33048  0.80877  Biso   1.000  C
  C39      1.0000 0.67047  0.83048  0.69123  Biso   1.000  C
  C40      1.0000 0.17047  0.66952  0.19123  Biso   1.000  C
  H37      1.0000 0.25350  0.09290  0.31680  Biso   1.000  H
  H38      1.0000 0.75350  0.40710  0.81680  Biso   1.000  H
  H39      1.0000 0.74650  0.90710  0.68320  Biso   1.000  H
  H40      1.0000 0.24650  0.59290  0.18320  Biso   1.000  H
  C41      1.0000 0.60070  0.61903  0.02193  Biso   1.000  C
  C42      1.0000 0.10070  0.88097  0.52193  Biso   1.000  C
  C43      1.0000 0.39930  0.38097  0.97807  Biso   1.000  C
  C44      1.0000 0.89930  0.11903  0.47807  Biso   1.000  C
  H41      1.0000 0.66970  0.69980  0.03690  Biso   1.000  H
  H42      1.0000 0.16970  0.80020  0.53690  Biso   1.000  H
  H43      1.0000 0.33030  0.30020  0.96310  Biso   1.000  H
  H44      1.0000 0.83030  0.19980  0.46310  Biso   1.000  H
  C45      1.0000 0.41770  0.62937  0.00358  Biso   1.000  C
  C46      1.0000 0.91770  0.87063  0.50358  Biso   1.000  C
  C47      1.0000 0.58230  0.37063  0.99642  Biso   1.000  C
  C48      1.0000 0.08230  0.12937  0.49642  Biso   1.000  C
  H45      1.0000 0.36070  0.71740  0.00580  Biso   1.000  H
  H46      1.0000 0.86070  0.78260  0.50580  Biso   1.000  H
  H47      1.0000 0.63930  0.28260  0.99420  Biso   1.000  H
  H48      1.0000 0.13930  0.21740  0.49420  Biso   1.000  H
  C49      1.0000 0.68220  0.48980  0.01820  Biso   1.000  C
  C50      1.0000 0.18220  0.01020  0.51820  Biso   1.000  C
  C51      1.0000 0.31780  0.51020  0.98180  Biso   1.000  C
  C52      1.0000 0.81780  0.98980  0.48180  Biso   1.000  C
  H49      1.0000 0.80750  0.48250  0.03060  Biso   1.000  H
  H50      1.0000 0.30750  0.01750  0.53060  Biso   1.000  H
  H51      1.0000 0.19250  0.51750  0.96940  Biso   1.000  H
  H52      1.0000 0.69250  0.98250  0.46940  Biso   1.000  H
