data_image0
_cell_length_a       8.9227
_cell_length_b       14.891
_cell_length_c       13.602
_cell_angle_alpha    90
_cell_angle_beta     100.563
_cell_angle_gamma    90

_symmetry_space_group_name_H-M    "P 1"
_symmetry_int_tables_number       1

loop_
  _symmetry_equiv_pos_as_xyz
  'x, y, z'

loop_
  _atom_site_label
  _atom_site_occupancy
  _atom_site_fract_x
  _atom_site_fract_y
  _atom_site_fract_z
  _atom_site_thermal_displace_type
  _atom_site_B_iso_or_equiv
  _atom_site_type_symbol
  Cu1      1.0000 0.50000  0.50000  0.50000  Biso   1.000  Cu
  Cu2      1.0000 0.50000  0.00000  0.00000  Biso   1.000  Cu
  O1       1.0000 0.66529  0.56270  0.58761  Biso   1.000  O
  O2       1.0000 0.66529  0.93730  0.08761  Biso   1.000  O
  O3       1.0000 0.33471  0.43730  0.41239  Biso   1.000  O
  O4       1.0000 0.33471  0.06270  0.91239  Biso   1.000  O
  O5       1.0000 0.34832  0.56922  0.55240  Biso   1.000  O
  O6       1.0000 0.34832  0.93078  0.05240  Biso   1.000  O
  O7       1.0000 0.65168  0.43078  0.44760  Biso   1.000  O
  O8       1.0000 0.65168  0.06922  0.94760  Biso   1.000  O
  N1       1.0000 0.51601  0.61658  0.37247  Biso   1.000  N
  N2       1.0000 0.51601  0.88342  0.87247  Biso   1.000  N
  N3       1.0000 0.48399  0.38342  0.62753  Biso   1.000  N
  N4       1.0000 0.48399  0.11658  0.12753  Biso   1.000  N
  C1       1.0000 0.80366  0.66623  0.69931  Biso   1.000  C
  C2       1.0000 0.80366  0.83377  0.19931  Biso   1.000  C
  C3       1.0000 0.19634  0.33377  0.30069  Biso   1.000  C
  C4       1.0000 0.19634  0.16623  0.80069  Biso   1.000  C
  H1       1.0000 0.88470  0.62160  0.70030  Biso   1.000  H
  H2       1.0000 0.88470  0.87840  0.20030  Biso   1.000  H
  H3       1.0000 0.11530  0.37840  0.29970  Biso   1.000  H
  H4       1.0000 0.11530  0.12160  0.79970  Biso   1.000  H
  H5       1.0000 0.79580  0.68220  0.76810  Biso   1.000  H
  H6       1.0000 0.79580  0.81780  0.26810  Biso   1.000  H
  H7       1.0000 0.20420  0.31780  0.23190  Biso   1.000  H
  H8       1.0000 0.20420  0.18220  0.73190  Biso   1.000  H
  H9       1.0000 0.82770  0.72010  0.66380  Biso   1.000  H
  H10      1.0000 0.82770  0.77990  0.16380  Biso   1.000  H
  H11      1.0000 0.17230  0.27990  0.33620  Biso   1.000  H
  H12      1.0000 0.17230  0.22010  0.83620  Biso   1.000  H
  C5       1.0000 0.65359  0.62738  0.64650  Biso   1.000  C
  C6       1.0000 0.65359  0.87262  0.14650  Biso   1.000  C
  C7       1.0000 0.34641  0.37262  0.35350  Biso   1.000  C
  C8       1.0000 0.34641  0.12738  0.85350  Biso   1.000  C
  C9       1.0000 0.51471  0.66398  0.66478  Biso   1.000  C
  C10      1.0000 0.51471  0.83602  0.16478  Biso   1.000  C
  C11      1.0000 0.48529  0.33602  0.33522  Biso   1.000  C
  C12      1.0000 0.48529  0.16398  0.83522  Biso   1.000  C
  C13      1.0000 0.37032  0.63115  0.61788  Biso   1.000  C
  C14      1.0000 0.37032  0.86885  0.11788  Biso   1.000  C
  C15      1.0000 0.62968  0.36885  0.38212  Biso   1.000  C
  C16      1.0000 0.62968  0.13115  0.88212  Biso   1.000  C
  C17      1.0000 0.22677  0.67055  0.64367  Biso   1.000  C
  C18      1.0000 0.22677  0.82945  0.14367  Biso   1.000  C
  C19      1.0000 0.77323  0.32945  0.35633  Biso   1.000  C
  C20      1.0000 0.77323  0.17055  0.85633  Biso   1.000  C
  H13      1.0000 0.14020  0.65640  0.59040  Biso   1.000  H
  H14      1.0000 0.14020  0.84360  0.09040  Biso   1.000  H
  H15      1.0000 0.85980  0.34360  0.40960  Biso   1.000  H
  H16      1.0000 0.85980  0.15640  0.90960  Biso   1.000  H
  H17      1.0000 0.23770  0.73590  0.65040  Biso   1.000  H
  H18      1.0000 0.23770  0.76410  0.15040  Biso   1.000  H
  H19      1.0000 0.76230  0.26410  0.34960  Biso   1.000  H
  H20      1.0000 0.76230  0.23590  0.84960  Biso   1.000  H
  H21      1.0000 0.20910  0.64500  0.70690  Biso   1.000  H
  H22      1.0000 0.20910  0.85500  0.20690  Biso   1.000  H
  H23      1.0000 0.79090  0.35500  0.29310  Biso   1.000  H
  H24      1.0000 0.79090  0.14500  0.79310  Biso   1.000  H
  C21      1.0000 0.51899  0.73988  0.73708  Biso   1.000  C
  C22      1.0000 0.51899  0.76012  0.23708  Biso   1.000  C
  C23      1.0000 0.48101  0.26012  0.26292  Biso   1.000  C
  C24      1.0000 0.48101  0.23988  0.76292  Biso   1.000  C
  C25      1.0000 0.47844  0.72710  0.83018  Biso   1.000  C
  C26      1.0000 0.47844  0.77290  0.33018  Biso   1.000  C
  C27      1.0000 0.52156  0.27290  0.16982  Biso   1.000  C
  C28      1.0000 0.52156  0.22710  0.66982  Biso   1.000  C
  H25      1.0000 0.45040  0.66910  0.84960  Biso   1.000  H
  H26      1.0000 0.45040  0.83090  0.34960  Biso   1.000  H
  H27      1.0000 0.54960  0.33090  0.15040  Biso   1.000  H
  H28      1.0000 0.54960  0.16910  0.65040  Biso   1.000  H
  C29      1.0000 0.47927  0.70048  0.39440  Biso   1.000  C
  C30      1.0000 0.47927  0.79952  0.89440  Biso   1.000  C
  C31      1.0000 0.52073  0.29952  0.60560  Biso   1.000  C
  C32      1.0000 0.52073  0.20048  0.10560  Biso   1.000  C
  H29      1.0000 0.45210  0.71100  0.45780  Biso   1.000  H
  H30      1.0000 0.45210  0.78900  0.95780  Biso   1.000  H
  H31      1.0000 0.54790  0.28900  0.54220  Biso   1.000  H
  H32      1.0000 0.54790  0.21100  0.04220  Biso   1.000  H
  C33      1.0000 0.55627  0.60418  0.28320  Biso   1.000  C
  C34      1.0000 0.55627  0.89582  0.78320  Biso   1.000  C
  C35      1.0000 0.44373  0.39582  0.71680  Biso   1.000  C
  C36      1.0000 0.44373  0.10418  0.21680  Biso   1.000  C
  H33      1.0000 0.58380  0.54540  0.26600  Biso   1.000  H
  H34      1.0000 0.58380  0.95460  0.76600  Biso   1.000  H
  H35      1.0000 0.41620  0.45460  0.73400  Biso   1.000  H
  H36      1.0000 0.41620  0.04540  0.23400  Biso   1.000  H
  C37      1.0000 0.55992  0.82713  0.71442  Biso   1.000  C
  C38      1.0000 0.55992  0.67287  0.21442  Biso   1.000  C
  C39      1.0000 0.44008  0.17287  0.28558  Biso   1.000  C
  C40      1.0000 0.44008  0.32713  0.78558  Biso   1.000  C
  H37      1.0000 0.59010  0.83940  0.65230  Biso   1.000  H
  H38      1.0000 0.59010  0.66060  0.15230  Biso   1.000  H
  H39      1.0000 0.40990  0.16060  0.34770  Biso   1.000  H
  H40      1.0000 0.40990  0.33940  0.84770  Biso   1.000  H
  O9       1.0000 0.91239  0.73024  0.96153  Biso   1.000  O
  O10      1.0000 0.91239  0.76976  0.46153  Biso   1.000  O
  O11      1.0000 0.08761  0.26976  0.03847  Biso   1.000  O
  O12      1.0000 0.08761  0.23024  0.53847  Biso   1.000  O
  N5       1.0000 0.96895  0.86025  0.88787  Biso   1.000  N
  N6       1.0000 0.96895  0.63975  0.38787  Biso   1.000  N
  N7       1.0000 0.03105  0.13975  0.11213  Biso   1.000  N
  N8       1.0000 0.03105  0.36025  0.61213  Biso   1.000  N
  C41      1.0000 0.89325  0.81110  0.94439  Biso   1.000  C
  C42      1.0000 0.89325  0.68890  0.44439  Biso   1.000  C
  C43      1.0000 0.10675  0.18890  0.05561  Biso   1.000  C
  C44      1.0000 0.10675  0.31110  0.55561  Biso   1.000  C
  H41      1.0000 0.81830  0.84080  0.97390  Biso   1.000  H
  H42      1.0000 0.81830  0.65920  0.47390  Biso   1.000  H
  H43      1.0000 0.18170  0.15920  0.02610  Biso   1.000  H
  H44      1.0000 0.18170  0.34080  0.52610  Biso   1.000  H
  C45      1.0000 0.08560  0.82145  0.83944  Biso   1.000  C
  C46      1.0000 0.08560  0.67855  0.33944  Biso   1.000  C
  C47      1.0000 0.91440  0.17855  0.16056  Biso   1.000  C
  C48      1.0000 0.91440  0.32145  0.66056  Biso   1.000  C
  H45      1.0000 0.10270  0.75880  0.86040  Biso   1.000  H
  H46      1.0000 0.10270  0.74120  0.36040  Biso   1.000  H
  H47      1.0000 0.89730  0.24120  0.13960  Biso   1.000  H
  H48      1.0000 0.89730  0.25880  0.63960  Biso   1.000  H
  H49      1.0000 0.18060  0.85540  0.85840  Biso   1.000  H
  H50      1.0000 0.18060  0.64460  0.35840  Biso   1.000  H
  H51      1.0000 0.81940  0.14460  0.14160  Biso   1.000  H
  H52      1.0000 0.81940  0.35540  0.64160  Biso   1.000  H
  H53      1.0000 0.05230  0.82400  0.76670  Biso   1.000  H
  H54      1.0000 0.05230  0.67600  0.26670  Biso   1.000  H
  H55      1.0000 0.94770  0.17600  0.23330  Biso   1.000  H
  H56      1.0000 0.94770  0.32400  0.73330  Biso   1.000  H
  C49      1.0000 0.94078  0.95575  0.87213  Biso   1.000  C
  C50      1.0000 0.94078  0.54425  0.37213  Biso   1.000  C
  C51      1.0000 0.05922  0.04425  0.12787  Biso   1.000  C
  C52      1.0000 0.05922  0.45575  0.62787  Biso   1.000  C
  H57      1.0000 0.86550  0.97570  0.91170  Biso   1.000  H
  H58      1.0000 0.86550  0.52430  0.41170  Biso   1.000  H
  H59      1.0000 0.13450  0.02430  0.08830  Biso   1.000  H
  H60      1.0000 0.13450  0.47570  0.58830  Biso   1.000  H
  H61      1.0000 0.90170  0.96700  0.80110  Biso   1.000  H
  H62      1.0000 0.90170  0.53300  0.30110  Biso   1.000  H
  H63      1.0000 0.09830  0.03300  0.19890  Biso   1.000  H
  H64      1.0000 0.09830  0.46700  0.69890  Biso   1.000  H
  H65      1.0000 0.03610  0.98890  0.89300  Biso   1.000  H
  H66      1.0000 0.03610  0.51110  0.39300  Biso   1.000  H
  H67      1.0000 0.96390  0.01110  0.10700  Biso   1.000  H
  H68      1.0000 0.96390  0.48890  0.60700  Biso   1.000  H
  O13      1.0000 0.74592  0.04338  0.63227  Biso   1.000  O
  O14      1.0000 0.74592  0.45662  0.13227  Biso   1.000  O
  O15      1.0000 0.25408  0.95662  0.36773  Biso   1.000  O
  O16      1.0000 0.25408  0.54338  0.86773  Biso   1.000  O
  N9       1.0000 0.77866  0.02891  0.47095  Biso   1.000  N
  N10      1.0000 0.77866  0.47109  0.97095  Biso   1.000  N
  N11      1.0000 0.22134  0.97109  0.52905  Biso   1.000  N
  N12      1.0000 0.22134  0.52891  0.02905  Biso   1.000  N
  C53      1.0000 0.80550  0.06848  0.56115  Biso   1.000  C
  C54      1.0000 0.80550  0.43152  0.06115  Biso   1.000  C
  C55      1.0000 0.19450  0.93152  0.43885  Biso   1.000  C
  C56      1.0000 0.19450  0.56848  0.93885  Biso   1.000  C
  H69      1.0000 0.87350  0.11810  0.57100  Biso   1.000  H
  H70      1.0000 0.87350  0.38190  0.07100  Biso   1.000  H
  H71      1.0000 0.12650  0.88190  0.42900  Biso   1.000  H
  H72      1.0000 0.12650  0.61810  0.92900  Biso   1.000  H
  C57      1.0000 0.67640  0.95388  0.44951  Biso   1.000  C
  C58      1.0000 0.67640  0.54612  0.94951  Biso   1.000  C
  C59      1.0000 0.32360  0.04612  0.55049  Biso   1.000  C
  C60      1.0000 0.32360  0.45388  0.05049  Biso   1.000  C
  H73      1.0000 0.73450  0.89970  0.44040  Biso   1.000  H
  H74      1.0000 0.73450  0.60030  0.94040  Biso   1.000  H
  H75      1.0000 0.26550  0.10030  0.55960  Biso   1.000  H
  H76      1.0000 0.26550  0.39970  0.05960  Biso   1.000  H
  H77      1.0000 0.60180  0.96570  0.38850  Biso   1.000  H
  H78      1.0000 0.60180  0.53430  0.88850  Biso   1.000  H
  H79      1.0000 0.39820  0.03430  0.61150  Biso   1.000  H
  H80      1.0000 0.39820  0.46570  0.11150  Biso   1.000  H
  H81      1.0000 0.62310  0.94510  0.50570  Biso   1.000  H
  H82      1.0000 0.62310  0.55490  0.00570  Biso   1.000  H
  H83      1.0000 0.37690  0.05490  0.49430  Biso   1.000  H
  H84      1.0000 0.37690  0.44510  0.99430  Biso   1.000  H
  C61      1.0000 0.85320  0.06117  0.39110  Biso   1.000  C
  C62      1.0000 0.85320  0.43883  0.89110  Biso   1.000  C
  C63      1.0000 0.14680  0.93883  0.60890  Biso   1.000  C
  C64      1.0000 0.14680  0.56117  0.10890  Biso   1.000  C
  H85      1.0000 0.91510  0.11400  0.41450  Biso   1.000  H
  H86      1.0000 0.91510  0.38600  0.91450  Biso   1.000  H
  H87      1.0000 0.08490  0.88600  0.58550  Biso   1.000  H
  H88      1.0000 0.08490  0.61400  0.08550  Biso   1.000  H
  H89      1.0000 0.77610  0.07750  0.33290  Biso   1.000  H
  H90      1.0000 0.77610  0.42250  0.83290  Biso   1.000  H
  H91      1.0000 0.22390  0.92250  0.66710  Biso   1.000  H
  H92      1.0000 0.22390  0.57750  0.16710  Biso   1.000  H
  H93      1.0000 0.91900  0.01390  0.37230  Biso   1.000  H
  H94      1.0000 0.91900  0.48610  0.87230  Biso   1.000  H
  H95      1.0000 0.08100  0.98610  0.62770  Biso   1.000  H
  H96      1.0000 0.08100  0.51390  0.12770  Biso   1.000  H
  C65      1.0000 0.75280  0.96880  0.55735  Biso   1.000  C
  C66      1.0000 0.75280  0.53120  0.05735  Biso   1.000  C
  C67      1.0000 0.24720  0.03120  0.44265  Biso   1.000  C
  C68      1.0000 0.24720  0.46880  0.94265  Biso   1.000  C
  C69      1.0000 0.78020  0.11269  0.47555  Biso   1.000  C
  C70      1.0000 0.78020  0.38731  0.97555  Biso   1.000  C
  C71      1.0000 0.21980  0.88731  0.52445  Biso   1.000  C
  C72      1.0000 0.21980  0.61269  0.02445  Biso   1.000  C
  C73      1.0000 0.79820  0.97280  0.37895  Biso   1.000  C
  C74      1.0000 0.79820  0.52720  0.87895  Biso   1.000  C
  C75      1.0000 0.20180  0.02720  0.62105  Biso   1.000  C
  C76      1.0000 0.20180  0.47280  0.12105  Biso   1.000  C
