data_image0
_cell_length_a       7.432
_cell_length_b       9.583
_cell_length_c       16.114
_cell_angle_alpha    90
_cell_angle_beta     95.766
_cell_angle_gamma    90

_symmetry_space_group_name_H-M    "P 1"
_symmetry_int_tables_number       1

loop_
  _symmetry_equiv_pos_as_xyz
  'x, y, z'

loop_
  _atom_site_label
  _atom_site_occupancy
  _atom_site_fract_x
  _atom_site_fract_y
  _atom_site_fract_z
  _atom_site_thermal_displace_type
  _atom_site_B_iso_or_equiv
  _atom_site_type_symbol
  Cu1      1.0000 0.00000  0.00000  0.00000  Biso   1.000  Cu
  Cu2      1.0000 0.50000  0.50000  0.50000  Biso   1.000  Cu
  O1       1.0000 0.95482  0.15816  0.06874  Biso   1.000  O
  O2       1.0000 0.45482  0.34184  0.56874  Biso   1.000  O
  O3       1.0000 0.04518  0.84184  0.93126  Biso   1.000  O
  O4       1.0000 0.54518  0.65816  0.43126  Biso   1.000  O
  O5       1.0000 0.25264  0.99689  0.04151  Biso   1.000  O
  O6       1.0000 0.75264  0.50311  0.54151  Biso   1.000  O
  O7       1.0000 0.74736  0.00311  0.95849  Biso   1.000  O
  O8       1.0000 0.24736  0.49689  0.45849  Biso   1.000  O
  N1       1.0000 0.03690  0.15726  0.86985  Biso   1.000  N
  N2       1.0000 0.53690  0.34274  0.36985  Biso   1.000  N
  N3       1.0000 0.96310  0.84274  0.13015  Biso   1.000  N
  N4       1.0000 0.46310  0.65726  0.63015  Biso   1.000  N
  C1       1.0000 0.97360  0.31000  0.18272  Biso   1.000  C
  C2       1.0000 0.47360  0.19000  0.68272  Biso   1.000  C
  C3       1.0000 0.02640  0.69000  0.81728  Biso   1.000  C
  C4       1.0000 0.52640  0.81000  0.31728  Biso   1.000  C
  H1       1.0000 0.84860  0.32690  0.15930  Biso   1.000  H
  H2       1.0000 0.34860  0.17310  0.65930  Biso   1.000  H
  H3       1.0000 0.15140  0.67310  0.84070  Biso   1.000  H
  H4       1.0000 0.65140  0.82690  0.34070  Biso   1.000  H
  H5       1.0000 0.04220  0.39730  0.18310  Biso   1.000  H
  H6       1.0000 0.54220  0.10270  0.68310  Biso   1.000  H
  H7       1.0000 0.95780  0.60270  0.81690  Biso   1.000  H
  H8       1.0000 0.45780  0.89730  0.31690  Biso   1.000  H
  H9       1.0000 0.97430  0.27500  0.23990  Biso   1.000  H
  H10      1.0000 0.47430  0.22500  0.73990  Biso   1.000  H
  H11      1.0000 0.02570  0.72500  0.76010  Biso   1.000  H
  H12      1.0000 0.52570  0.77500  0.26010  Biso   1.000  H
  H13      1.0000 0.06140  0.33930  0.22890  Biso   1.000  H
  H14      1.0000 0.56140  0.16070  0.72890  Biso   1.000  H
  H15      1.0000 0.93860  0.66070  0.77110  Biso   1.000  H
  H16      1.0000 0.43860  0.83930  0.27110  Biso   1.000  H
  H17      1.0000 0.86790  0.26880  0.20510  Biso   1.000  H
  H18      1.0000 0.36790  0.23120  0.70510  Biso   1.000  H
  H19      1.0000 0.13210  0.73120  0.79490  Biso   1.000  H
  H20      1.0000 0.63210  0.76880  0.29490  Biso   1.000  H
  H21      1.0000 0.93580  0.39110  0.14830  Biso   1.000  H
  H22      1.0000 0.43580  0.10890  0.64830  Biso   1.000  H
  H23      1.0000 0.06420  0.60890  0.85170  Biso   1.000  H
  H24      1.0000 0.56420  0.89110  0.35170  Biso   1.000  H
  C5       1.0000 0.05920  0.20330  0.13019  Biso   1.000  C
  C6       1.0000 0.55920  0.29670  0.63019  Biso   1.000  C
  C7       1.0000 0.94080  0.79670  0.86981  Biso   1.000  C
  C8       1.0000 0.44080  0.70330  0.36981  Biso   1.000  C
  C9       1.0000 0.23980  0.16160  0.15170  Biso   1.000  C
  C10      1.0000 0.73980  0.33840  0.65170  Biso   1.000  C
  C11      1.0000 0.76020  0.83840  0.84830  Biso   1.000  C
  C12      1.0000 0.26020  0.66160  0.34830  Biso   1.000  C
  C13      1.0000 0.32670  0.06230  0.10439  Biso   1.000  C
  C14      1.0000 0.82670  0.43770  0.60439  Biso   1.000  C
  C15      1.0000 0.67330  0.93770  0.89561  Biso   1.000  C
  C16      1.0000 0.17330  0.56230  0.39561  Biso   1.000  C
  C17      1.0000 0.52360  0.02740  0.12718  Biso   1.000  C
  C18      1.0000 0.02360  0.47260  0.62718  Biso   1.000  C
  C19      1.0000 0.47640  0.97260  0.87282  Biso   1.000  C
  C20      1.0000 0.97640  0.52740  0.37282  Biso   1.000  C
  H25      1.0000 0.54440  0.92880  0.11520  Biso   1.000  H
  H26      1.0000 0.04440  0.57120  0.61520  Biso   1.000  H
  H27      1.0000 0.45560  0.07120  0.88480  Biso   1.000  H
  H28      1.0000 0.95560  0.42880  0.38480  Biso   1.000  H
  H29      1.0000 0.55560  0.04520  0.18670  Biso   1.000  H
  H30      1.0000 0.05560  0.45480  0.68670  Biso   1.000  H
  H31      1.0000 0.44440  0.95480  0.81330  Biso   1.000  H
  H32      1.0000 0.94440  0.54520  0.31330  Biso   1.000  H
  H33      1.0000 0.59870  0.08570  0.09440  Biso   1.000  H
  H34      1.0000 0.09870  0.41430  0.59440  Biso   1.000  H
  H35      1.0000 0.40130  0.91430  0.90560  Biso   1.000  H
  H36      1.0000 0.90130  0.58570  0.40560  Biso   1.000  H
  C21      1.0000 0.34400  0.22470  0.22682  Biso   1.000  C
  C22      1.0000 0.84400  0.27530  0.72682  Biso   1.000  C
  C23      1.0000 0.65600  0.77530  0.77318  Biso   1.000  C
  C24      1.0000 0.15600  0.72470  0.27318  Biso   1.000  C
  C25      1.0000 0.45700  0.33950  0.22117  Biso   1.000  C
  C26      1.0000 0.95700  0.16050  0.72117  Biso   1.000  C
  C27      1.0000 0.54300  0.66050  0.77883  Biso   1.000  C
  C28      1.0000 0.04300  0.83950  0.27883  Biso   1.000  C
  H37      1.0000 0.47190  0.37970  0.16840  Biso   1.000  H
  H38      1.0000 0.97190  0.12030  0.66840  Biso   1.000  H
  H39      1.0000 0.52810  0.62030  0.83160  Biso   1.000  H
  H40      1.0000 0.02810  0.87970  0.33160  Biso   1.000  H
  C29      1.0000 0.04760  0.10540  0.79319  Biso   1.000  C
  C30      1.0000 0.54760  0.39460  0.29319  Biso   1.000  C
  C31      1.0000 0.95240  0.89460  0.20681  Biso   1.000  C
  C32      1.0000 0.45240  0.60540  0.70681  Biso   1.000  C
  H41      1.0000 0.12190  0.02590  0.78790  Biso   1.000  H
  H42      1.0000 0.62190  0.47410  0.28790  Biso   1.000  H
  H43      1.0000 0.87810  0.97410  0.21210  Biso   1.000  H
  H44      1.0000 0.37810  0.52590  0.71210  Biso   1.000  H
  C33      1.0000 0.93030  0.26890  0.87478  Biso   1.000  C
  C34      1.0000 0.43030  0.23110  0.37478  Biso   1.000  C
  C35      1.0000 0.06970  0.73110  0.12522  Biso   1.000  C
  C36      1.0000 0.56970  0.76890  0.62522  Biso   1.000  C
  H45      1.0000 0.92170  0.30910  0.92810  Biso   1.000  H
  H46      1.0000 0.42170  0.19090  0.42810  Biso   1.000  H
  H47      1.0000 0.07830  0.69090  0.07190  Biso   1.000  H
  H48      1.0000 0.57830  0.80910  0.57190  Biso   1.000  H
  C37      1.0000 0.33170  0.17080  0.30652  Biso   1.000  C
  C38      1.0000 0.83170  0.32920  0.80652  Biso   1.000  C
  C39      1.0000 0.66830  0.82920  0.69348  Biso   1.000  C
  C40      1.0000 0.16830  0.67080  0.19348  Biso   1.000  C
  H49      1.0000 0.25580  0.09300  0.31390  Biso   1.000  H
  H50      1.0000 0.75580  0.40700  0.81390  Biso   1.000  H
  H51      1.0000 0.74420  0.90700  0.68610  Biso   1.000  H
  H52      1.0000 0.24420  0.59300  0.18610  Biso   1.000  H
  C41      1.0000 0.60750  0.61300  0.01792  Biso   1.000  C
  C42      1.0000 0.10750  0.88700  0.51792  Biso   1.000  C
  C43      1.0000 0.39250  0.38700  0.98208  Biso   1.000  C
  C44      1.0000 0.89250  0.11300  0.48208  Biso   1.000  C
  H53      1.0000 0.68040  0.69330  0.02980  Biso   1.000  H
  H54      1.0000 0.18040  0.80670  0.52980  Biso   1.000  H
  H55      1.0000 0.31960  0.30670  0.97020  Biso   1.000  H
  H56      1.0000 0.81960  0.19330  0.47020  Biso   1.000  H
  C45      1.0000 0.42100  0.62650  0.00658  Biso   1.000  C
  C46      1.0000 0.92100  0.87350  0.50658  Biso   1.000  C
  C47      1.0000 0.57900  0.37350  0.99342  Biso   1.000  C
  C48      1.0000 0.07900  0.12650  0.49342  Biso   1.000  C
  H57      1.0000 0.36790  0.71580  0.01200  Biso   1.000  H
  H58      1.0000 0.86790  0.78420  0.51200  Biso   1.000  H
  H59      1.0000 0.63210  0.28420  0.98800  Biso   1.000  H
  H60      1.0000 0.13210  0.21580  0.48800  Biso   1.000  H
  C49      1.0000 0.68770  0.48570  0.01144  Biso   1.000  C
  C50      1.0000 0.18770  0.01430  0.51144  Biso   1.000  C
  C51      1.0000 0.31230  0.51430  0.98856  Biso   1.000  C
  C52      1.0000 0.81230  0.98570  0.48856  Biso   1.000  C
  H61      1.0000 0.81540  0.47580  0.01970  Biso   1.000  H
  H62      1.0000 0.31540  0.02420  0.51970  Biso   1.000  H
  H63      1.0000 0.18460  0.52420  0.98030  Biso   1.000  H
  H64      1.0000 0.68460  0.97580  0.48030  Biso   1.000  H
