data_image0
_cell_length_a       7.424
_cell_length_b       14.483
_cell_length_c       11.163
_cell_angle_alpha    90
_cell_angle_beta     95.711
_cell_angle_gamma    90

_symmetry_space_group_name_H-M    "P 1"
_symmetry_int_tables_number       1

loop_
  _symmetry_equiv_pos_as_xyz
  'x, y, z'

loop_
  _atom_site_label
  _atom_site_occupancy
  _atom_site_fract_x
  _atom_site_fract_y
  _atom_site_fract_z
  _atom_site_thermal_displace_type
  _atom_site_B_iso_or_equiv
  _atom_site_type_symbol
  Cu1      1.0000 0.50000  0.50000  0.50000  Biso   1.000  Cu
  Cu2      1.0000 0.00000  0.00000  0.00000  Biso   1.000  Cu
  O1       1.0000 0.25616  0.54988  0.49624  Biso   1.000  O
  O2       1.0000 0.75616  0.95012  0.99624  Biso   1.000  O
  O3       1.0000 0.74384  0.45012  0.50376  Biso   1.000  O
  O4       1.0000 0.24384  0.04988  0.00376  Biso   1.000  O
  O5       1.0000 0.57925  0.57516  0.63918  Biso   1.000  O
  O6       1.0000 0.07925  0.92484  0.13918  Biso   1.000  O
  O7       1.0000 0.42075  0.42484  0.36082  Biso   1.000  O
  O8       1.0000 0.92075  0.07516  0.86082  Biso   1.000  O
  N1       1.0000 0.56949  0.62784  0.36197  Biso   1.000  N
  N2       1.0000 0.06949  0.87216  0.86197  Biso   1.000  N
  N3       1.0000 0.43051  0.37216  0.63803  Biso   1.000  N
  N4       1.0000 0.93051  0.12784  0.13803  Biso   1.000  N
  C1       1.0000 0.00286  0.63804  0.53411  Biso   1.000  C
  C2       1.0000 0.50286  0.86196  0.03411  Biso   1.000  C
  C3       1.0000 0.99714  0.36196  0.46589  Biso   1.000  C
  C4       1.0000 0.49714  0.13804  0.96589  Biso   1.000  C
  H1       1.0000 0.95630  0.61070  0.45690  Biso   1.000  H
  H2       1.0000 0.45630  0.88930  0.95690  Biso   1.000  H
  H3       1.0000 0.04370  0.38930  0.54310  Biso   1.000  H
  H4       1.0000 0.54370  0.11070  0.04310  Biso   1.000  H
  H5       1.0000 0.99080  0.70540  0.52950  Biso   1.000  H
  H6       1.0000 0.49080  0.79460  0.02950  Biso   1.000  H
  H7       1.0000 0.00920  0.29460  0.47050  Biso   1.000  H
  H8       1.0000 0.50920  0.20540  0.97050  Biso   1.000  H
  H9       1.0000 0.93360  0.61440  0.59780  Biso   1.000  H
  H10      1.0000 0.43360  0.88560  0.09780  Biso   1.000  H
  H11      1.0000 0.06640  0.38560  0.40220  Biso   1.000  H
  H12      1.0000 0.56640  0.11440  0.90220  Biso   1.000  H
  C5       1.0000 0.19905  0.61286  0.56190  Biso   1.000  C
  C6       1.0000 0.69905  0.88714  0.06190  Biso   1.000  C
  C7       1.0000 0.80095  0.38714  0.43810  Biso   1.000  C
  C8       1.0000 0.30095  0.11286  0.93810  Biso   1.000  C
  C9       1.0000 0.30542  0.65769  0.65782  Biso   1.000  C
  C10      1.0000 0.80542  0.84231  0.15782  Biso   1.000  C
  C11      1.0000 0.69458  0.34231  0.34218  Biso   1.000  C
  C12      1.0000 0.19458  0.15769  0.84218  Biso   1.000  C
  C13      1.0000 0.48758  0.63475  0.69159  Biso   1.000  C
  C14      1.0000 0.98758  0.86525  0.19159  Biso   1.000  C
  C15      1.0000 0.51242  0.36525  0.30841  Biso   1.000  C
  C16      1.0000 0.01242  0.13475  0.80841  Biso   1.000  C
  C17      1.0000 0.59085  0.68117  0.79836  Biso   1.000  C
  C18      1.0000 0.09085  0.81883  0.29836  Biso   1.000  C
  C19      1.0000 0.40915  0.31883  0.20164  Biso   1.000  C
  C20      1.0000 0.90915  0.18117  0.70164  Biso   1.000  C
  H13      1.0000 0.57140  0.64730  0.87200  Biso   1.000  H
  H14      1.0000 0.07140  0.85270  0.37200  Biso   1.000  H
  H15      1.0000 0.42860  0.35270  0.12800  Biso   1.000  H
  H16      1.0000 0.92860  0.14730  0.62800  Biso   1.000  H
  H17      1.0000 0.54790  0.74480  0.80480  Biso   1.000  H
  H18      1.0000 0.04790  0.75520  0.30480  Biso   1.000  H
  H19      1.0000 0.45210  0.25520  0.19520  Biso   1.000  H
  H20      1.0000 0.95210  0.24480  0.69520  Biso   1.000  H
  H21      1.0000 0.72030  0.68160  0.78760  Biso   1.000  H
  H22      1.0000 0.22030  0.81840  0.28760  Biso   1.000  H
  H23      1.0000 0.27970  0.31840  0.21240  Biso   1.000  H
  H24      1.0000 0.77970  0.18160  0.71240  Biso   1.000  H
  C21      1.0000 0.21877  0.73118  0.72697  Biso   1.000  C
  C22      1.0000 0.71877  0.76882  0.22697  Biso   1.000  C
  C23      1.0000 0.78123  0.26882  0.27303  Biso   1.000  C
  C24      1.0000 0.28123  0.23118  0.77303  Biso   1.000  C
  C25      1.0000 0.15464  0.71312  0.83785  Biso   1.000  C
  C26      1.0000 0.65464  0.78688  0.33785  Biso   1.000  C
  C27      1.0000 0.84536  0.28688  0.16215  Biso   1.000  C
  C28      1.0000 0.34536  0.21312  0.66215  Biso   1.000  C
  H25      1.0000 0.16050  0.65240  0.87010  Biso   1.000  H
  H26      1.0000 0.66050  0.84760  0.37010  Biso   1.000  H
  H27      1.0000 0.83950  0.34760  0.12990  Biso   1.000  H
  H28      1.0000 0.33950  0.15240  0.62990  Biso   1.000  H
  C29      1.0000 0.58209  0.71533  0.40089  Biso   1.000  C
  C30      1.0000 0.08209  0.78467  0.90089  Biso   1.000  C
  C31      1.0000 0.41791  0.28467  0.59911  Biso   1.000  C
  C32      1.0000 0.91791  0.21533  0.09911  Biso   1.000  C
  H29      1.0000 0.53890  0.72930  0.47610  Biso   1.000  H
  H30      1.0000 0.03890  0.77070  0.97610  Biso   1.000  H
  H31      1.0000 0.46110  0.27070  0.52390  Biso   1.000  H
  H32      1.0000 0.96110  0.22930  0.02390  Biso   1.000  H
  C33      1.0000 0.62675  0.61110  0.25397  Biso   1.000  C
  C34      1.0000 0.12675  0.88890  0.75397  Biso   1.000  C
  C35      1.0000 0.37325  0.38890  0.74603  Biso   1.000  C
  C36      1.0000 0.87325  0.11110  0.24603  Biso   1.000  C
  H33      1.0000 0.61630  0.55000  0.22320  Biso   1.000  H
  H34      1.0000 0.11630  0.95000  0.72320  Biso   1.000  H
  H35      1.0000 0.38370  0.45000  0.77680  Biso   1.000  H
  H36      1.0000 0.88370  0.05000  0.27680  Biso   1.000  H
  C37      1.0000 0.20071  0.82172  0.68448  Biso   1.000  C
  C38      1.0000 0.70071  0.67828  0.18448  Biso   1.000  C
  C39      1.0000 0.79929  0.17828  0.31552  Biso   1.000  C
  C40      1.0000 0.29929  0.32172  0.81552  Biso   1.000  C
  H37      1.0000 0.23880  0.83740  0.60830  Biso   1.000  H
  H38      1.0000 0.73880  0.66260  0.10830  Biso   1.000  H
  H39      1.0000 0.76120  0.16260  0.39170  Biso   1.000  H
  H40      1.0000 0.26120  0.33740  0.89170  Biso   1.000  H
  N5       1.0000 0.75050  0.99281  0.49866  Biso   1.000  N
  N6       1.0000 0.25050  0.50719  0.99866  Biso   1.000  N
  N7       1.0000 0.24950  0.00719  0.50134  Biso   1.000  N
  N8       1.0000 0.74950  0.49281  0.00134  Biso   1.000  N
  C41      1.0000 0.69770  0.97257  0.58766  Biso   1.000  C
  C42      1.0000 0.19770  0.52743  0.08766  Biso   1.000  C
  C43      1.0000 0.30230  0.02743  0.41234  Biso   1.000  C
  C44      1.0000 0.80230  0.47257  0.91234  Biso   1.000  C
  C45      1.0000 0.63090  0.94704  0.70036  Biso   1.000  C
  C46      1.0000 0.13090  0.55296  0.20036  Biso   1.000  C
  C47      1.0000 0.36910  0.05296  0.29964  Biso   1.000  C
  C48      1.0000 0.86910  0.44704  0.79964  Biso   1.000  C
  H41      1.0000 0.63560  0.87980  0.70950  Biso   1.000  H
  H42      1.0000 0.13560  0.62020  0.20950  Biso   1.000  H
  H43      1.0000 0.36440  0.12020  0.29050  Biso   1.000  H
  H44      1.0000 0.86440  0.37980  0.79050  Biso   1.000  H
  H45      1.0000 0.50560  0.96820  0.70090  Biso   1.000  H
  H46      1.0000 0.00560  0.53180  0.20090  Biso   1.000  H
  H47      1.0000 0.49440  0.03180  0.29910  Biso   1.000  H
  H48      1.0000 0.99440  0.46820  0.79910  Biso   1.000  H
  H49      1.0000 0.70640  0.97590  0.76710  Biso   1.000  H
  H50      1.0000 0.20640  0.52410  0.26710  Biso   1.000  H
  H51      1.0000 0.29360  0.02410  0.23290  Biso   1.000  H
  H52      1.0000 0.79360  0.47590  0.73290  Biso   1.000  H
