data_image0
_cell_length_a       13.8877
_cell_length_b       17.1832
_cell_length_c       14.2117
_cell_angle_alpha    90
_cell_angle_beta     104.667
_cell_angle_gamma    90

_symmetry_space_group_name_H-M    "P 1"
_symmetry_int_tables_number       1

loop_
  _symmetry_equiv_pos_as_xyz
  'x, y, z'

loop_
  _atom_site_label
  _atom_site_occupancy
  _atom_site_fract_x
  _atom_site_fract_y
  _atom_site_fract_z
  _atom_site_thermal_displace_type
  _atom_site_B_iso_or_equiv
  _atom_site_type_symbol
  Cu1      1.0000 0.91250  0.19546  0.88405  Biso   1.000  Cu
  Cu2      1.0000 0.91250  0.30454  0.38405  Biso   1.000  Cu
  Cu3      1.0000 0.08750  0.80454  0.11595  Biso   1.000  Cu
  Cu4      1.0000 0.08750  0.69546  0.61595  Biso   1.000  Cu
  Cu5      1.0000 0.55050  0.30695  0.59244  Biso   1.000  Cu
  Cu6      1.0000 0.55050  0.19305  0.09244  Biso   1.000  Cu
  Cu7      1.0000 0.44950  0.69305  0.40756  Biso   1.000  Cu
  Cu8      1.0000 0.44950  0.80695  0.90756  Biso   1.000  Cu
  O1       1.0000 0.48370  0.26768  0.69110  Biso   1.000  O
  O2       1.0000 0.48370  0.23232  0.19110  Biso   1.000  O
  O3       1.0000 0.51630  0.73232  0.30890  Biso   1.000  O
  O4       1.0000 0.51630  0.76768  0.80890  Biso   1.000  O
  N1       1.0000 0.88490  0.13886  0.99830  Biso   1.000  N
  N2       1.0000 0.88490  0.36114  0.49830  Biso   1.000  N
  N3       1.0000 0.11510  0.86114  0.00170  Biso   1.000  N
  N4       1.0000 0.11510  0.63886  0.50170  Biso   1.000  N
  O5       1.0000 0.99410  0.22466  0.79340  Biso   1.000  O
  O6       1.0000 0.99410  0.27534  0.29340  Biso   1.000  O
  O7       1.0000 0.00590  0.77534  0.20660  Biso   1.000  O
  O8       1.0000 0.00590  0.72466  0.70660  Biso   1.000  O
  O9       1.0000 0.10540  0.17429  0.91890  Biso   1.000  O
  O10      1.0000 0.10540  0.32571  0.41890  Biso   1.000  O
  O11      1.0000 0.89460  0.82571  0.08110  Biso   1.000  O
  O12      1.0000 0.89460  0.67429  0.58110  Biso   1.000  O
  O13      1.0000 0.37220  0.32376  0.57190  Biso   1.000  O
  O14      1.0000 0.37220  0.17624  0.07190  Biso   1.000  O
  O15      1.0000 0.62780  0.67624  0.42810  Biso   1.000  O
  O16      1.0000 0.62780  0.82376  0.92810  Biso   1.000  O
  N5       1.0000 0.89130  0.08797  0.82860  Biso   1.000  N
  N6       1.0000 0.89130  0.41203  0.32860  Biso   1.000  N
  N7       1.0000 0.10870  0.91203  0.17140  Biso   1.000  N
  N8       1.0000 0.10870  0.58797  0.67140  Biso   1.000  N
  N9       1.0000 0.59450  0.40448  0.66700  Biso   1.000  N
  N10      1.0000 0.59450  0.09552  0.16700  Biso   1.000  N
  N11      1.0000 0.40550  0.59552  0.33300  Biso   1.000  N
  N12      1.0000 0.40550  0.90448  0.83300  Biso   1.000  N
  N13      1.0000 0.59270  0.36663  0.49020  Biso   1.000  N
  N14      1.0000 0.59270  0.13337  0.99020  Biso   1.000  N
  N15      1.0000 0.40730  0.63337  0.50980  Biso   1.000  N
  N16      1.0000 0.40730  0.86663  0.00980  Biso   1.000  N
  C1       1.0000 0.14250  0.23720  0.68810  Biso   1.000  C
  C2       1.0000 0.14250  0.26280  0.18810  Biso   1.000  C
  C3       1.0000 0.85750  0.76280  0.31190  Biso   1.000  C
  C4       1.0000 0.85750  0.73720  0.81190  Biso   1.000  C
  H1       1.0000 0.07750  0.23200  0.65060  Biso   1.000  H
  H2       1.0000 0.07750  0.26800  0.15060  Biso   1.000  H
  H3       1.0000 0.92250  0.76800  0.34940  Biso   1.000  H
  H4       1.0000 0.92250  0.73200  0.84940  Biso   1.000  H
  C5       1.0000 0.33550  0.25340  0.79900  Biso   1.000  C
  C6       1.0000 0.33550  0.24660  0.29900  Biso   1.000  C
  C7       1.0000 0.66450  0.74660  0.20100  Biso   1.000  C
  C8       1.0000 0.66450  0.75340  0.70100  Biso   1.000  C
  H5       1.0000 0.40050  0.25890  0.83670  Biso   1.000  H
  H6       1.0000 0.40050  0.24110  0.33670  Biso   1.000  H
  H7       1.0000 0.59950  0.74110  0.16330  Biso   1.000  H
  H8       1.0000 0.59950  0.75890  0.66330  Biso   1.000  H
  C9       1.0000 0.08310  0.20590  0.83810  Biso   1.000  C
  C10      1.0000 0.08310  0.29410  0.33810  Biso   1.000  C
  C11      1.0000 0.91690  0.79410  0.16190  Biso   1.000  C
  C12      1.0000 0.91690  0.70590  0.66190  Biso   1.000  C
  C13      1.0000 0.31440  0.26520  0.69860  Biso   1.000  C
  C14      1.0000 0.31440  0.23480  0.19860  Biso   1.000  C
  C15      1.0000 0.68560  0.73480  0.30140  Biso   1.000  C
  C16      1.0000 0.68560  0.76520  0.80140  Biso   1.000  C
  C17      1.0000 0.87680  0.03250  0.89080  Biso   1.000  C
  C18      1.0000 0.87680  0.46750  0.39080  Biso   1.000  C
  C19      1.0000 0.12320  0.96750  0.10920  Biso   1.000  C
  C20      1.0000 0.12320  0.53250  0.60920  Biso   1.000  C
  C21      1.0000 0.26080  0.23340  0.84300  Biso   1.000  C
  C22      1.0000 0.26080  0.26660  0.34300  Biso   1.000  C
  C23      1.0000 0.73920  0.76660  0.15700  Biso   1.000  C
  C24      1.0000 0.73920  0.73340  0.65700  Biso   1.000  C
  H9       1.0000 0.27620  0.22540  0.90990  Biso   1.000  H
  H10      1.0000 0.27620  0.27460  0.40990  Biso   1.000  H
  H11      1.0000 0.72380  0.77460  0.09010  Biso   1.000  H
  H12      1.0000 0.72380  0.72540  0.59010  Biso   1.000  H
  C25      1.0000 0.58800  0.34210  0.39870  Biso   1.000  C
  C26      1.0000 0.58800  0.15790  0.89870  Biso   1.000  C
  C27      1.0000 0.41200  0.65790  0.60130  Biso   1.000  C
  C28      1.0000 0.41200  0.84210  0.10130  Biso   1.000  C
  H13      1.0000 0.57480  0.28990  0.38360  Biso   1.000  H
  H14      1.0000 0.57480  0.21010  0.88360  Biso   1.000  H
  H15      1.0000 0.42520  0.71010  0.61640  Biso   1.000  H
  H16      1.0000 0.42520  0.78990  0.11640  Biso   1.000  H
  C29      1.0000 0.61850  0.46270  0.61380  Biso   1.000  C
  C30      1.0000 0.61850  0.03730  0.11380  Biso   1.000  C
  C31      1.0000 0.38150  0.53730  0.38620  Biso   1.000  C
  C32      1.0000 0.38150  0.96270  0.88620  Biso   1.000  C
  C33      1.0000 0.39380  0.28750  0.64960  Biso   1.000  C
  C34      1.0000 0.39380  0.21250  0.14960  Biso   1.000  C
  C35      1.0000 0.60620  0.71250  0.35040  Biso   1.000  C
  C36      1.0000 0.60620  0.78750  0.85040  Biso   1.000  C
  C37      1.0000 0.88570  0.17090  0.08480  Biso   1.000  C
  C38      1.0000 0.88570  0.32910  0.58480  Biso   1.000  C
  C39      1.0000 0.11430  0.82910  0.91520  Biso   1.000  C
  C40      1.0000 0.11430  0.67090  0.41520  Biso   1.000  C
  H17      1.0000 0.88960  0.22470  0.09130  Biso   1.000  H
  H18      1.0000 0.88960  0.27530  0.59130  Biso   1.000  H
  H19      1.0000 0.11040  0.77530  0.90870  Biso   1.000  H
  H20      1.0000 0.11040  0.72470  0.40870  Biso   1.000  H
  C41      1.0000 0.16380  0.22540  0.78880  Biso   1.000  C
  C42      1.0000 0.16380  0.27460  0.28880  Biso   1.000  C
  C43      1.0000 0.83620  0.77460  0.21120  Biso   1.000  C
  C44      1.0000 0.83620  0.72540  0.71120  Biso   1.000  C
  C45      1.0000 0.87870  0.06100  0.98930  Biso   1.000  C
  C46      1.0000 0.87870  0.43900  0.48930  Biso   1.000  C
  C47      1.0000 0.12130  0.93900  0.01070  Biso   1.000  C
  C48      1.0000 0.12130  0.56100  0.51070  Biso   1.000  C
  C49      1.0000 0.59660  0.41690  0.76050  Biso   1.000  C
  C50      1.0000 0.59660  0.08310  0.26050  Biso   1.000  C
  C51      1.0000 0.40340  0.58310  0.23950  Biso   1.000  C
  C52      1.0000 0.40340  0.91690  0.73950  Biso   1.000  C
  H21      1.0000 0.58040  0.37650  0.79710  Biso   1.000  H
  H22      1.0000 0.58040  0.12350  0.29710  Biso   1.000  H
  H23      1.0000 0.41960  0.62350  0.20290  Biso   1.000  H
  H24      1.0000 0.41960  0.87650  0.70290  Biso   1.000  H
  C53      1.0000 0.61360  0.44230  0.51150  Biso   1.000  C
  C54      1.0000 0.61360  0.05770  0.01150  Biso   1.000  C
  C55      1.0000 0.38640  0.55770  0.48850  Biso   1.000  C
  C56      1.0000 0.38640  0.94230  0.98850  Biso   1.000  C
  C57      1.0000 0.87400  0.01340  0.06680  Biso   1.000  C
  C58      1.0000 0.87400  0.48660  0.56680  Biso   1.000  C
  C59      1.0000 0.12600  0.98660  0.93320  Biso   1.000  C
  C60      1.0000 0.12600  0.51340  0.43320  Biso   1.000  C
  H25      1.0000 0.86990  0.95960  0.05940  Biso   1.000  H
  H26      1.0000 0.86990  0.54040  0.55940  Biso   1.000  H
  H27      1.0000 0.13010  0.04040  0.94060  Biso   1.000  H
  H28      1.0000 0.13010  0.45960  0.44060  Biso   1.000  H
  C61      1.0000 0.62240  0.48880  0.80390  Biso   1.000  C
  C62      1.0000 0.62240  0.01120  0.30390  Biso   1.000  C
  C63      1.0000 0.37760  0.51120  0.19610  Biso   1.000  C
  C64      1.0000 0.37760  0.98880  0.69610  Biso   1.000  C
  H29      1.0000 0.62330  0.49650  0.86890  Biso   1.000  H
  H30      1.0000 0.62330  0.00350  0.36890  Biso   1.000  H
  H31      1.0000 0.37670  0.50350  0.13110  Biso   1.000  H
  H32      1.0000 0.37670  0.99650  0.63110  Biso   1.000  H
  C65      1.0000 0.21710  0.25650  0.64390  Biso   1.000  C
  C66      1.0000 0.21710  0.24350  0.14390  Biso   1.000  C
  C67      1.0000 0.78290  0.74350  0.35610  Biso   1.000  C
  C68      1.0000 0.78290  0.75650  0.85610  Biso   1.000  C
  H33      1.0000 0.20190  0.26370  0.57690  Biso   1.000  H
  H34      1.0000 0.20190  0.23630  0.07690  Biso   1.000  H
  H35      1.0000 0.79810  0.73630  0.42310  Biso   1.000  H
  H36      1.0000 0.79810  0.76370  0.92310  Biso   1.000  H
  C69      1.0000 0.60200  0.39140  0.32740  Biso   1.000  C
  C70      1.0000 0.60200  0.10860  0.82740  Biso   1.000  C
  C71      1.0000 0.39800  0.60860  0.67260  Biso   1.000  C
  C72      1.0000 0.39800  0.89140  0.17260  Biso   1.000  C
  H37      1.0000 0.59780  0.37290  0.26500  Biso   1.000  H
  H38      1.0000 0.59780  0.12710  0.76500  Biso   1.000  H
  H39      1.0000 0.40220  0.62710  0.73500  Biso   1.000  H
  H40      1.0000 0.40220  0.87290  0.23500  Biso   1.000  H
  C73      1.0000 0.62930  0.49400  0.44260  Biso   1.000  C
  C74      1.0000 0.62930  0.00600  0.94260  Biso   1.000  C
  C75      1.0000 0.37070  0.50600  0.55740  Biso   1.000  C
  C76      1.0000 0.37070  0.99400  0.05740  Biso   1.000  C
  H41      1.0000 0.64450  0.54580  0.45890  Biso   1.000  H
  H42      1.0000 0.64450  0.95420  0.95890  Biso   1.000  H
  H43      1.0000 0.35550  0.45420  0.54110  Biso   1.000  H
  H44      1.0000 0.35550  0.04580  0.04110  Biso   1.000  H
  C77      1.0000 0.86100  0.95560  0.86130  Biso   1.000  C
  C78      1.0000 0.86100  0.54440  0.36130  Biso   1.000  C
  C79      1.0000 0.13900  0.04440  0.13870  Biso   1.000  C
  C80      1.0000 0.13900  0.45560  0.63870  Biso   1.000  C
  H45      1.0000 0.85240  0.91730  0.90470  Biso   1.000  H
  H46      1.0000 0.85240  0.58270  0.40470  Biso   1.000  H
  H47      1.0000 0.14760  0.08270  0.09530  Biso   1.000  H
  H48      1.0000 0.14760  0.41730  0.59530  Biso   1.000  H
  C81      1.0000 0.88080  0.12620  0.16420  Biso   1.000  C
  C82      1.0000 0.88080  0.37380  0.66420  Biso   1.000  C
  C83      1.0000 0.11920  0.87380  0.83580  Biso   1.000  C
  C84      1.0000 0.11920  0.62620  0.33580  Biso   1.000  C
  H49      1.0000 0.88100  0.14960  0.22320  Biso   1.000  H
  H50      1.0000 0.88100  0.35040  0.72320  Biso   1.000  H
  H51      1.0000 0.11900  0.85040  0.77680  Biso   1.000  H
  H52      1.0000 0.11900  0.64960  0.27680  Biso   1.000  H
  C85      1.0000 0.88920  0.06910  0.73720  Biso   1.000  C
  C86      1.0000 0.88920  0.43090  0.23720  Biso   1.000  C
  C87      1.0000 0.11080  0.93090  0.26280  Biso   1.000  C
  C88      1.0000 0.11080  0.56910  0.76280  Biso   1.000  C
  H53      1.0000 0.89940  0.10770  0.69490  Biso   1.000  H
  H54      1.0000 0.89940  0.39230  0.19490  Biso   1.000  H
  H55      1.0000 0.10060  0.89230  0.30510  Biso   1.000  H
  H56      1.0000 0.10060  0.60770  0.80510  Biso   1.000  H
  C89      1.0000 0.64430  0.53600  0.65340  Biso   1.000  C
  C90      1.0000 0.64430  0.96400  0.15340  Biso   1.000  C
  C91      1.0000 0.35570  0.46400  0.34660  Biso   1.000  C
  C92      1.0000 0.35570  0.03600  0.84660  Biso   1.000  C
  H57      1.0000 0.66000  0.57590  0.61560  Biso   1.000  H
  H58      1.0000 0.66000  0.92410  0.11560  Biso   1.000  H
  H59      1.0000 0.34000  0.42410  0.38440  Biso   1.000  H
  H60      1.0000 0.34000  0.07590  0.88440  Biso   1.000  H
  C93      1.0000 0.64640  0.54850  0.74990  Biso   1.000  C
  C94      1.0000 0.64640  0.95150  0.24990  Biso   1.000  C
  C95      1.0000 0.35360  0.45150  0.25010  Biso   1.000  C
  C96      1.0000 0.35360  0.04850  0.75010  Biso   1.000  C
  H61      1.0000 0.66400  0.59700  0.77800  Biso   1.000  H
  H62      1.0000 0.66400  0.90300  0.27800  Biso   1.000  H
  H63      1.0000 0.33600  0.40300  0.22200  Biso   1.000  H
  H64      1.0000 0.33600  0.09700  0.72200  Biso   1.000  H
  C97      1.0000 0.62210  0.46800  0.34940  Biso   1.000  C
  C98      1.0000 0.62210  0.03200  0.84940  Biso   1.000  C
  C99      1.0000 0.37790  0.53200  0.65060  Biso   1.000  C
  C100     1.0000 0.37790  0.96800  0.15060  Biso   1.000  C
  H65      1.0000 0.63080  0.50240  0.30170  Biso   1.000  H
  H66      1.0000 0.63080  0.99760  0.80170  Biso   1.000  H
  H67      1.0000 0.36920  0.49760  0.69830  Biso   1.000  H
  H68      1.0000 0.36920  0.00240  0.19830  Biso   1.000  H
  C101     1.0000 0.87560  0.04740  0.15470  Biso   1.000  C
  C102     1.0000 0.87560  0.45260  0.65470  Biso   1.000  C
  C103     1.0000 0.12440  0.95260  0.84530  Biso   1.000  C
  C104     1.0000 0.12440  0.54740  0.34530  Biso   1.000  C
  H69      1.0000 0.87320  0.01650  0.20780  Biso   1.000  H
  H70      1.0000 0.87320  0.48350  0.70780  Biso   1.000  H
  H71      1.0000 0.12680  0.98350  0.79220  Biso   1.000  H
  H72      1.0000 0.12680  0.51650  0.29220  Biso   1.000  H
  C105     1.0000 0.87240  0.99400  0.70370  Biso   1.000  C
  C106     1.0000 0.87240  0.50600  0.20370  Biso   1.000  C
  C107     1.0000 0.12760  0.00600  0.29630  Biso   1.000  C
  C108     1.0000 0.12760  0.49400  0.79630  Biso   1.000  C
  H73      1.0000 0.87060  0.98190  0.63950  Biso   1.000  H
  H74      1.0000 0.87060  0.51810  0.13950  Biso   1.000  H
  H75      1.0000 0.12940  0.01810  0.36050  Biso   1.000  H
  H76      1.0000 0.12940  0.48190  0.86050  Biso   1.000  H
  C109     1.0000 0.85830  0.93710  0.76650  Biso   1.000  C
  C110     1.0000 0.85830  0.56290  0.26650  Biso   1.000  C
  C111     1.0000 0.14170  0.06290  0.23350  Biso   1.000  C
  C112     1.0000 0.14170  0.43710  0.73350  Biso   1.000  C
  H77      1.0000 0.84680  0.88600  0.74500  Biso   1.000  H
  H78      1.0000 0.84680  0.61400  0.24500  Biso   1.000  H
  H79      1.0000 0.15320  0.11400  0.25500  Biso   1.000  H
  H80      1.0000 0.15320  0.38600  0.75500  Biso   1.000  H
  O17      1.0000 0.93670  0.29541  0.95120  Biso   1.000  O
  O18      1.0000 0.93670  0.20459  0.45120  Biso   1.000  O
  O19      1.0000 0.06330  0.70459  0.04880  Biso   1.000  O
  O20      1.0000 0.06330  0.79541  0.54880  Biso   1.000  O
  O21      1.0000 0.52390  0.21149  0.51810  Biso   1.000  O
  O22      1.0000 0.52390  0.28851  0.01810  Biso   1.000  O
  O23      1.0000 0.47610  0.78851  0.48190  Biso   1.000  O
  O24      1.0000 0.47610  0.71149  0.98190  Biso   1.000  O
  O25      1.0000 0.80910  0.36640  0.86840  Biso   1.000  O
  O26      1.0000 0.80910  0.13360  0.36840  Biso   1.000  O
  O27      1.0000 0.19090  0.63360  0.13160  Biso   1.000  O
  O28      1.0000 0.19090  0.86640  0.63160  Biso   1.000  O
  C113     1.0000 0.94840  0.43190  0.96590  Biso   1.000  C
  C114     1.0000 0.94840  0.06810  0.46590  Biso   1.000  C
  C115     1.0000 0.05160  0.56810  0.03410  Biso   1.000  C
  C116     1.0000 0.05160  0.93190  0.53410  Biso   1.000  C
  C117     1.0000 0.53720  0.07470  0.52630  Biso   1.000  C
  C118     1.0000 0.53720  0.42530  0.02630  Biso   1.000  C
  C119     1.0000 0.46280  0.92530  0.47370  Biso   1.000  C
  C120     1.0000 0.46280  0.57470  0.97370  Biso   1.000  C
  C121     1.0000 0.04460  0.42880  0.02310  Biso   1.000  C
  C122     1.0000 0.04460  0.07120  0.52310  Biso   1.000  C
  C123     1.0000 0.95540  0.57120  0.97690  Biso   1.000  C
  C124     1.0000 0.95540  0.92880  0.47690  Biso   1.000  C
  H81      1.0000 0.07540  0.38070  0.03900  Biso   1.000  H
  H82      1.0000 0.07540  0.11930  0.53900  Biso   1.000  H
  H83      1.0000 0.92460  0.61930  0.96100  Biso   1.000  H
  H84      1.0000 0.92460  0.88070  0.46100  Biso   1.000  H
  C125     1.0000 0.90400  0.50370  0.94280  Biso   1.000  C
  C126     1.0000 0.90400  0.99630  0.44280  Biso   1.000  C
  C127     1.0000 0.09600  0.49630  0.05720  Biso   1.000  C
  C128     1.0000 0.09600  0.00370  0.55720  Biso   1.000  C
  H85      1.0000 0.83910  0.50660  0.90410  Biso   1.000  H
  H86      1.0000 0.83910  0.99340  0.40410  Biso   1.000  H
  H87      1.0000 0.16090  0.49340  0.09590  Biso   1.000  H
  H88      1.0000 0.16090  0.00660  0.59590  Biso   1.000  H
  O29      1.0000 0.65560  0.16120  0.62120  Biso   1.000  O
  O30      1.0000 0.65560  0.33880  0.12120  Biso   1.000  O
  O31      1.0000 0.34440  0.83880  0.37880  Biso   1.000  O
  O32      1.0000 0.34440  0.66120  0.87880  Biso   1.000  O
  O33      1.0000 0.76030  0.22970  0.79290  Biso   1.000  O
  O34      1.0000 0.76030  0.27030  0.29290  Biso   1.000  O
  O35      1.0000 0.23970  0.77030  0.20710  Biso   1.000  O
  O36      1.0000 0.23970  0.72970  0.70710  Biso   1.000  O
  C129     1.0000 0.44510  0.06490  0.46240  Biso   1.000  C
  C130     1.0000 0.44510  0.43510  0.96240  Biso   1.000  C
  C131     1.0000 0.55490  0.93510  0.53760  Biso   1.000  C
  C132     1.0000 0.55490  0.56490  0.03760  Biso   1.000  C
  H89      1.0000 0.40740  0.10830  0.43680  Biso   1.000  H
  H90      1.0000 0.40740  0.39170  0.93680  Biso   1.000  H
  H91      1.0000 0.59260  0.89170  0.56320  Biso   1.000  H
  H92      1.0000 0.59260  0.60830  0.06320  Biso   1.000  H
  C133     1.0000 0.59190  0.00900  0.56390  Biso   1.000  C
  C134     1.0000 0.59190  0.49100  0.06390  Biso   1.000  C
  C135     1.0000 0.40810  0.99100  0.43610  Biso   1.000  C
  C136     1.0000 0.40810  0.50900  0.93610  Biso   1.000  C
  H93      1.0000 0.65400  0.01470  0.60720  Biso   1.000  H
  H94      1.0000 0.65400  0.48530  0.10720  Biso   1.000  H
  H95      1.0000 0.34600  0.98530  0.39280  Biso   1.000  H
  H96      1.0000 0.34600  0.51470  0.89280  Biso   1.000  H
  C137     1.0000 0.57710  0.15460  0.55760  Biso   1.000  C
  C138     1.0000 0.57710  0.34540  0.05760  Biso   1.000  C
  C139     1.0000 0.42290  0.84540  0.44240  Biso   1.000  C
  C140     1.0000 0.42290  0.65460  0.94240  Biso   1.000  C
  C141     1.0000 0.89180  0.35880  0.92480  Biso   1.000  C
  C142     1.0000 0.89180  0.14120  0.42480  Biso   1.000  C
  C143     1.0000 0.10820  0.64120  0.07520  Biso   1.000  C
  C144     1.0000 0.10820  0.85880  0.57520  Biso   1.000  C
