data_image0
_cell_length_a       13.732
_cell_length_b       17.188
_cell_length_c       14.127
_cell_angle_alpha    90
_cell_angle_beta     104.57
_cell_angle_gamma    90

_symmetry_space_group_name_H-M    "P 1"
_symmetry_int_tables_number       1

loop_
  _symmetry_equiv_pos_as_xyz
  'x, y, z'

loop_
  _atom_site_label
  _atom_site_occupancy
  _atom_site_fract_x
  _atom_site_fract_y
  _atom_site_fract_z
  _atom_site_thermal_displace_type
  _atom_site_B_iso_or_equiv
  _atom_site_type_symbol
  Cu1      1.0000 0.40877  0.19453  0.88513  Biso   1.000  Cu
  Cu2      1.0000 0.59123  0.69453  0.61487  Biso   1.000  Cu
  Cu3      1.0000 0.59123  0.80547  0.11487  Biso   1.000  Cu
  Cu4      1.0000 0.40877  0.30547  0.38513  Biso   1.000  Cu
  Cu5      1.0000 0.05085  0.30722  0.58803  Biso   1.000  Cu
  Cu6      1.0000 0.94915  0.80722  0.91197  Biso   1.000  Cu
  Cu7      1.0000 0.94915  0.69278  0.41197  Biso   1.000  Cu
  Cu8      1.0000 0.05085  0.19278  0.08803  Biso   1.000  Cu
  O1       1.0000 0.25738  0.22774  0.79725  Biso   1.000  O
  O2       1.0000 0.74262  0.72774  0.70275  Biso   1.000  O
  O3       1.0000 0.74262  0.77226  0.20275  Biso   1.000  O
  O4       1.0000 0.25738  0.27226  0.29725  Biso   1.000  O
  O5       1.0000 0.49033  0.22298  0.79227  Biso   1.000  O
  O6       1.0000 0.50967  0.72298  0.70773  Biso   1.000  O
  O7       1.0000 0.50967  0.77702  0.20773  Biso   1.000  O
  O8       1.0000 0.49033  0.27702  0.29227  Biso   1.000  O
  O9       1.0000 0.60334  0.17325  0.91934  Biso   1.000  O
  O10      1.0000 0.39666  0.67325  0.58066  Biso   1.000  O
  O11      1.0000 0.39666  0.82675  0.08066  Biso   1.000  O
  O12      1.0000 0.60334  0.32675  0.41934  Biso   1.000  O
  O13      1.0000 0.43486  0.29488  0.95190  Biso   1.000  O
  O14      1.0000 0.56514  0.79488  0.54810  Biso   1.000  O
  O15      1.0000 0.56514  0.70512  0.04810  Biso   1.000  O
  O16      1.0000 0.43486  0.20512  0.45190  Biso   1.000  O
  O17      1.0000 0.30404  0.36687  0.87148  Biso   1.000  O
  O18      1.0000 0.69596  0.86687  0.62852  Biso   1.000  O
  O19      1.0000 0.69596  0.63313  0.12852  Biso   1.000  O
  O20      1.0000 0.30404  0.13313  0.37148  Biso   1.000  O
  O21      1.0000 0.98570  0.26548  0.68814  Biso   1.000  O
  O22      1.0000 0.01430  0.76548  0.81186  Biso   1.000  O
  O23      1.0000 0.01430  0.73452  0.31186  Biso   1.000  O
  O24      1.0000 0.98570  0.23452  0.18814  Biso   1.000  O
  O25      1.0000 0.87223  0.32179  0.56812  Biso   1.000  O
  O26      1.0000 0.12777  0.82179  0.93188  Biso   1.000  O
  O27      1.0000 0.12777  0.67821  0.43188  Biso   1.000  O
  O28      1.0000 0.87223  0.17821  0.06812  Biso   1.000  O
  O29      1.0000 0.02487  0.21205  0.51254  Biso   1.000  O
  O30      1.0000 0.97513  0.71205  0.98746  Biso   1.000  O
  O31      1.0000 0.97513  0.78795  0.48746  Biso   1.000  O
  O32      1.0000 0.02487  0.28795  0.01254  Biso   1.000  O
  O33      1.0000 0.15876  0.16267  0.61854  Biso   1.000  O
  O34      1.0000 0.84124  0.66267  0.88146  Biso   1.000  O
  O35      1.0000 0.84124  0.83733  0.38146  Biso   1.000  O
  O36      1.0000 0.15876  0.33733  0.11854  Biso   1.000  O
  N1       1.0000 0.38277  0.13927  0.00193  Biso   1.000  N
  N2       1.0000 0.61723  0.63927  0.49807  Biso   1.000  N
  N3       1.0000 0.61723  0.86073  0.99807  Biso   1.000  N
  N4       1.0000 0.38277  0.36073  0.50193  Biso   1.000  N
  N5       1.0000 0.39021  0.08613  0.83226  Biso   1.000  N
  N6       1.0000 0.60979  0.58613  0.66774  Biso   1.000  N
  N7       1.0000 0.60979  0.91387  0.16774  Biso   1.000  N
  N8       1.0000 0.39021  0.41387  0.33226  Biso   1.000  N
  N9       1.0000 0.09284  0.36834  0.48596  Biso   1.000  N
  N10      1.0000 0.90716  0.86834  0.01404  Biso   1.000  N
  N11      1.0000 0.90716  0.63166  0.51404  Biso   1.000  N
  N12      1.0000 0.09284  0.13166  0.98596  Biso   1.000  N
  N13      1.0000 0.09368  0.40423  0.66450  Biso   1.000  N
  N14      1.0000 0.90632  0.90423  0.83550  Biso   1.000  N
  N15      1.0000 0.90632  0.59577  0.33550  Biso   1.000  N
  N16      1.0000 0.09368  0.09577  0.16450  Biso   1.000  N
  C1       1.0000 0.54610  0.42805  0.02078  Biso   1.000  C
  C2       1.0000 0.45390  0.92805  0.47922  Biso   1.000  C
  C3       1.0000 0.45390  0.57195  0.97922  Biso   1.000  C
  C4       1.0000 0.54610  0.07195  0.52078  Biso   1.000  C
  C5       1.0000 0.40100  0.50453  0.94600  Biso   1.000  C
  C6       1.0000 0.59900  0.00453  0.55400  Biso   1.000  C
  C7       1.0000 0.59900  0.49547  0.05400  Biso   1.000  C
  C8       1.0000 0.40100  0.99547  0.44600  Biso   1.000  C
  C9       1.0000 0.44730  0.43150  0.96610  Biso   1.000  C
  C10      1.0000 0.55270  0.93150  0.53390  Biso   1.000  C
  C11      1.0000 0.55270  0.56850  0.03390  Biso   1.000  C
  C12      1.0000 0.44730  0.06850  0.46610  Biso   1.000  C
  C13      1.0000 0.38920  0.35920  0.92644  Biso   1.000  C
  C14      1.0000 0.61080  0.85920  0.57356  Biso   1.000  C
  C15      1.0000 0.61080  0.64080  0.07356  Biso   1.000  C
  C16      1.0000 0.38920  0.14080  0.42644  Biso   1.000  C
  C17      1.0000 0.38230  0.17219  0.08770  Biso   1.000  C
  C18      1.0000 0.61770  0.67219  0.41230  Biso   1.000  C
  C19      1.0000 0.61770  0.82781  0.91230  Biso   1.000  C
  C20      1.0000 0.38230  0.32781  0.58770  Biso   1.000  C
  C21      1.0000 0.37830  0.12865  0.16890  Biso   1.000  C
  C22      1.0000 0.62170  0.62865  0.33110  Biso   1.000  C
  C23      1.0000 0.62170  0.87135  0.83110  Biso   1.000  C
  C24      1.0000 0.37830  0.37135  0.66890  Biso   1.000  C
  C25      1.0000 0.37390  0.04879  0.16150  Biso   1.000  C
  C26      1.0000 0.62610  0.54879  0.33850  Biso   1.000  C
  C27      1.0000 0.62610  0.95121  0.83850  Biso   1.000  C
  C28      1.0000 0.37390  0.45121  0.66150  Biso   1.000  C
  C29      1.0000 0.37330  0.01368  0.07270  Biso   1.000  C
  C30      1.0000 0.62670  0.51368  0.42730  Biso   1.000  C
  C31      1.0000 0.62670  0.98632  0.92730  Biso   1.000  C
  C32      1.0000 0.37330  0.48632  0.57270  Biso   1.000  C
  C33      1.0000 0.37823  0.06057  0.99407  Biso   1.000  C
  C34      1.0000 0.62177  0.56057  0.50593  Biso   1.000  C
  C35      1.0000 0.62177  0.93943  0.00593  Biso   1.000  C
  C36      1.0000 0.37823  0.43943  0.49407  Biso   1.000  C
  C37      1.0000 0.37653  0.03101  0.89562  Biso   1.000  C
  C38      1.0000 0.62347  0.53101  0.60438  Biso   1.000  C
  C39      1.0000 0.62347  0.96899  0.10438  Biso   1.000  C
  C40      1.0000 0.37653  0.46899  0.39562  Biso   1.000  C
  C41      1.0000 0.36270  0.95315  0.86820  Biso   1.000  C
  C42      1.0000 0.63730  0.45315  0.63180  Biso   1.000  C
  C43      1.0000 0.63730  0.04685  0.13180  Biso   1.000  C
  C44      1.0000 0.36270  0.54685  0.36820  Biso   1.000  C
  C45      1.0000 0.36000  0.93374  0.77270  Biso   1.000  C
  C46      1.0000 0.64000  0.43374  0.72730  Biso   1.000  C
  C47      1.0000 0.64000  0.06626  0.22730  Biso   1.000  C
  C48      1.0000 0.36000  0.56626  0.27270  Biso   1.000  C
  C49      1.0000 0.37300  0.99004  0.70780  Biso   1.000  C
  C50      1.0000 0.62700  0.49004  0.79220  Biso   1.000  C
  C51      1.0000 0.62700  0.00996  0.29220  Biso   1.000  C
  C52      1.0000 0.37300  0.50996  0.20780  Biso   1.000  C
  C53      1.0000 0.38720  0.06621  0.74000  Biso   1.000  C
  C54      1.0000 0.61280  0.56621  0.76000  Biso   1.000  C
  C55      1.0000 0.61280  0.93379  0.26000  Biso   1.000  C
  C56      1.0000 0.38720  0.43379  0.24000  Biso   1.000  C
  C57      1.0000 0.58060  0.20467  0.83764  Biso   1.000  C
  C58      1.0000 0.41940  0.70467  0.66236  Biso   1.000  C
  C59      1.0000 0.41940  0.79533  0.16236  Biso   1.000  C
  C60      1.0000 0.58060  0.29533  0.33764  Biso   1.000  C
  C61      1.0000 0.66161  0.22373  0.78677  Biso   1.000  C
  C62      1.0000 0.33839  0.72373  0.71323  Biso   1.000  C
  C63      1.0000 0.33839  0.77627  0.21323  Biso   1.000  C
  C64      1.0000 0.66161  0.27627  0.28677  Biso   1.000  C
  C65      1.0000 0.64050  0.23454  0.68587  Biso   1.000  C
  C66      1.0000 0.35950  0.73454  0.81413  Biso   1.000  C
  C67      1.0000 0.35950  0.76546  0.31413  Biso   1.000  C
  C68      1.0000 0.64050  0.26546  0.18587  Biso   1.000  C
  C69      1.0000 0.71520  0.25389  0.64064  Biso   1.000  C
  C70      1.0000 0.28480  0.75389  0.85936  Biso   1.000  C
  C71      1.0000 0.28480  0.74611  0.35936  Biso   1.000  C
  C72      1.0000 0.71520  0.24611  0.14064  Biso   1.000  C
  C73      1.0000 0.81405  0.26290  0.69631  Biso   1.000  C
  C74      1.0000 0.18595  0.76290  0.80369  Biso   1.000  C
  C75      1.0000 0.18595  0.73710  0.30369  Biso   1.000  C
  C76      1.0000 0.81405  0.23710  0.19631  Biso   1.000  C
  C77      1.0000 0.83600  0.25255  0.79741  Biso   1.000  C
  C78      1.0000 0.16400  0.75255  0.70259  Biso   1.000  C
  C79      1.0000 0.16400  0.74745  0.20259  Biso   1.000  C
  C80      1.0000 0.83600  0.24745  0.29741  Biso   1.000  C
  C81      1.0000 0.76050  0.23231  0.84218  Biso   1.000  C
  C82      1.0000 0.23950  0.73231  0.65782  Biso   1.000  C
  C83      1.0000 0.23950  0.76769  0.15782  Biso   1.000  C
  C84      1.0000 0.76050  0.26769  0.34218  Biso   1.000  C
  C85      1.0000 0.89521  0.28515  0.64701  Biso   1.000  C
  C86      1.0000 0.10479  0.78515  0.85299  Biso   1.000  C
  C87      1.0000 0.10479  0.71485  0.35299  Biso   1.000  C
  C88      1.0000 0.89521  0.21485  0.14701  Biso   1.000  C
  C89      1.0000 0.09590  0.41616  0.75895  Biso   1.000  C
  C90      1.0000 0.90410  0.91616  0.74105  Biso   1.000  C
  C91      1.0000 0.90410  0.58384  0.24105  Biso   1.000  C
  C92      1.0000 0.09590  0.08384  0.25895  Biso   1.000  C
  C93      1.0000 0.12070  0.48760  0.80420  Biso   1.000  C
  C94      1.0000 0.87930  0.98760  0.69580  Biso   1.000  C
  C95      1.0000 0.87930  0.51240  0.19580  Biso   1.000  C
  C96      1.0000 0.12070  0.01240  0.30420  Biso   1.000  C
  C97      1.0000 0.14480  0.54778  0.75010  Biso   1.000  C
  C98      1.0000 0.85520  0.04778  0.74990  Biso   1.000  C
  C99      1.0000 0.85520  0.45222  0.24990  Biso   1.000  C
  C100     1.0000 0.14480  0.95222  0.25010  Biso   1.000  C
  C101     1.0000 0.14340  0.53661  0.65270  Biso   1.000  C
  C102     1.0000 0.85660  0.03661  0.84730  Biso   1.000  C
  C103     1.0000 0.85660  0.46339  0.34730  Biso   1.000  C
  C104     1.0000 0.14340  0.96339  0.15270  Biso   1.000  C
  C105     1.0000 0.11799  0.46367  0.61202  Biso   1.000  C
  C106     1.0000 0.88201  0.96367  0.88798  Biso   1.000  C
  C107     1.0000 0.88201  0.53633  0.38798  Biso   1.000  C
  C108     1.0000 0.11799  0.03633  0.11202  Biso   1.000  C
  C109     1.0000 0.11381  0.44436  0.50935  Biso   1.000  C
  C110     1.0000 0.88619  0.94436  0.99065  Biso   1.000  C
  C111     1.0000 0.88619  0.55564  0.49065  Biso   1.000  C
  C112     1.0000 0.11381  0.05564  0.00935  Biso   1.000  C
  C113     1.0000 0.13010  0.49704  0.44100  Biso   1.000  C
  C114     1.0000 0.86990  0.99704  0.05900  Biso   1.000  C
  C115     1.0000 0.86990  0.50296  0.55900  Biso   1.000  C
  C116     1.0000 0.13010  0.00296  0.94100  Biso   1.000  C
  C117     1.0000 0.12240  0.47211  0.34590  Biso   1.000  C
  C118     1.0000 0.87760  0.97211  0.15410  Biso   1.000  C
  C119     1.0000 0.87760  0.52789  0.65410  Biso   1.000  C
  C120     1.0000 0.12240  0.02789  0.84590  Biso   1.000  C
  C121     1.0000 0.10280  0.39496  0.32300  Biso   1.000  C
  C122     1.0000 0.89720  0.89496  0.17700  Biso   1.000  C
  C123     1.0000 0.89720  0.60504  0.67700  Biso   1.000  C
  C124     1.0000 0.10280  0.10504  0.82300  Biso   1.000  C
  C125     1.0000 0.08780  0.34454  0.39403  Biso   1.000  C
  C126     1.0000 0.91220  0.84454  0.10597  Biso   1.000  C
  C127     1.0000 0.91220  0.65546  0.60597  Biso   1.000  C
  C128     1.0000 0.08780  0.15546  0.89403  Biso   1.000  C
  C129     1.0000 0.07920  0.15545  0.55484  Biso   1.000  C
  C130     1.0000 0.92080  0.65545  0.94516  Biso   1.000  C
  C131     1.0000 0.92080  0.84455  0.44516  Biso   1.000  C
  C132     1.0000 0.07920  0.34455  0.05484  Biso   1.000  C
  C133     1.0000 0.03870  0.07493  0.52491  Biso   1.000  C
  C134     1.0000 0.96130  0.57493  0.97509  Biso   1.000  C
  C135     1.0000 0.96130  0.92507  0.47509  Biso   1.000  C
  C136     1.0000 0.03870  0.42507  0.02491  Biso   1.000  C
  C137     1.0000 0.94400  0.06470  0.45995  Biso   1.000  C
  C138     1.0000 0.05600  0.56470  0.04005  Biso   1.000  C
  C139     1.0000 0.05600  0.93530  0.54005  Biso   1.000  C
  C140     1.0000 0.94400  0.43530  0.95995  Biso   1.000  C
  C141     1.0000 0.09380  0.00944  0.56460  Biso   1.000  C
  C142     1.0000 0.90620  0.50944  0.93540  Biso   1.000  C
  C143     1.0000 0.90620  0.99056  0.43540  Biso   1.000  C
  C144     1.0000 0.09380  0.49056  0.06460  Biso   1.000  C
  H1       1.0000 0.23400  0.21780  0.73800  Biso   1.000  H
  H2       1.0000 0.76600  0.71780  0.76200  Biso   1.000  H
  H3       1.0000 0.76600  0.78220  0.26200  Biso   1.000  H
  H4       1.0000 0.23400  0.28220  0.23800  Biso   1.000  H
  H5       1.0000 0.25600  0.27600  0.80700  Biso   1.000  H
  H6       1.0000 0.74400  0.77600  0.69300  Biso   1.000  H
  H7       1.0000 0.74400  0.72400  0.19300  Biso   1.000  H
  H8       1.0000 0.25600  0.22400  0.30700  Biso   1.000  H
  H9       1.0000 0.58000  0.37820  0.03400  Biso   1.000  H
  H10      1.0000 0.42000  0.87820  0.46600  Biso   1.000  H
  H11      1.0000 0.42000  0.62180  0.96600  Biso   1.000  H
  H12      1.0000 0.58000  0.12180  0.53400  Biso   1.000  H
  H13      1.0000 0.33100  0.50520  0.90940  Biso   1.000  H
  H14      1.0000 0.66900  0.00520  0.59060  Biso   1.000  H
  H15      1.0000 0.66900  0.49480  0.09060  Biso   1.000  H
  H16      1.0000 0.33100  0.99480  0.40940  Biso   1.000  H
  H17      1.0000 0.39000  0.22650  0.08900  Biso   1.000  H
  H18      1.0000 0.61000  0.72650  0.41100  Biso   1.000  H
  H19      1.0000 0.61000  0.77350  0.91100  Biso   1.000  H
  H20      1.0000 0.39000  0.27350  0.58900  Biso   1.000  H
  H21      1.0000 0.37600  0.15520  0.22200  Biso   1.000  H
  H22      1.0000 0.62400  0.65520  0.27800  Biso   1.000  H
  H23      1.0000 0.62400  0.84480  0.77800  Biso   1.000  H
  H24      1.0000 0.37600  0.34480  0.72200  Biso   1.000  H
  H25      1.0000 0.37100  0.01980  0.21600  Biso   1.000  H
  H26      1.0000 0.62900  0.51980  0.28400  Biso   1.000  H
  H27      1.0000 0.62900  0.98020  0.78400  Biso   1.000  H
  H28      1.0000 0.37100  0.48020  0.71600  Biso   1.000  H
  H29      1.0000 0.37300  0.95850  0.06700  Biso   1.000  H
  H30      1.0000 0.62700  0.45850  0.43300  Biso   1.000  H
  H31      1.0000 0.62700  0.04150  0.93300  Biso   1.000  H
  H32      1.0000 0.37300  0.54150  0.56700  Biso   1.000  H
  H33      1.0000 0.35500  0.91650  0.90800  Biso   1.000  H
  H34      1.0000 0.64500  0.41650  0.59200  Biso   1.000  H
  H35      1.0000 0.64500  0.08350  0.09200  Biso   1.000  H
  H36      1.0000 0.35500  0.58350  0.40800  Biso   1.000  H
  H37      1.0000 0.34700  0.88200  0.75900  Biso   1.000  H
  H38      1.0000 0.65300  0.38200  0.74100  Biso   1.000  H
  H39      1.0000 0.65300  0.11800  0.24100  Biso   1.000  H
  H40      1.0000 0.34700  0.61800  0.25900  Biso   1.000  H
  H41      1.0000 0.37100  0.97800  0.64700  Biso   1.000  H
  H42      1.0000 0.62900  0.47800  0.85300  Biso   1.000  H
  H43      1.0000 0.62900  0.02200  0.35300  Biso   1.000  H
  H44      1.0000 0.37100  0.52200  0.14700  Biso   1.000  H
  H45      1.0000 0.40000  0.10540  0.69700  Biso   1.000  H
  H46      1.0000 0.60000  0.60540  0.80300  Biso   1.000  H
  H47      1.0000 0.60000  0.89460  0.30300  Biso   1.000  H
  H48      1.0000 0.40000  0.39460  0.19700  Biso   1.000  H
  H49      1.0000 0.57300  0.22880  0.65080  Biso   1.000  H
  H50      1.0000 0.42700  0.72880  0.84920  Biso   1.000  H
  H51      1.0000 0.42700  0.77120  0.34920  Biso   1.000  H
  H52      1.0000 0.57300  0.27120  0.15080  Biso   1.000  H
  H53      1.0000 0.69600  0.26520  0.57300  Biso   1.000  H
  H54      1.0000 0.30400  0.76520  0.92700  Biso   1.000  H
  H55      1.0000 0.30400  0.73480  0.42700  Biso   1.000  H
  H56      1.0000 0.69600  0.23480  0.07300  Biso   1.000  H
  H57      1.0000 0.89800  0.25820  0.83400  Biso   1.000  H
  H58      1.0000 0.10200  0.75820  0.66600  Biso   1.000  H
  H59      1.0000 0.10200  0.74180  0.16600  Biso   1.000  H
  H60      1.0000 0.89800  0.24180  0.33400  Biso   1.000  H
  H61      1.0000 0.77800  0.22680  0.91200  Biso   1.000  H
  H62      1.0000 0.22200  0.72680  0.58800  Biso   1.000  H
  H63      1.0000 0.22200  0.77320  0.08800  Biso   1.000  H
  H64      1.0000 0.77800  0.27320  0.41200  Biso   1.000  H
  H65      1.0000 0.07500  0.37210  0.79200  Biso   1.000  H
  H66      1.0000 0.92500  0.87210  0.70800  Biso   1.000  H
  H67      1.0000 0.92500  0.62790  0.20800  Biso   1.000  H
  H68      1.0000 0.07500  0.12790  0.29200  Biso   1.000  H
  H69      1.0000 0.12100  0.49260  0.86900  Biso   1.000  H
  H70      1.0000 0.87900  0.99260  0.63100  Biso   1.000  H
  H71      1.0000 0.87900  0.50740  0.13100  Biso   1.000  H
  H72      1.0000 0.12100  0.00740  0.36900  Biso   1.000  H
  H73      1.0000 0.16200  0.59270  0.78200  Biso   1.000  H
  H74      1.0000 0.83800  0.09270  0.71800  Biso   1.000  H
  H75      1.0000 0.83800  0.40730  0.21800  Biso   1.000  H
  H76      1.0000 0.16200  0.90730  0.28200  Biso   1.000  H
  H77      1.0000 0.16200  0.58170  0.61600  Biso   1.000  H
  H78      1.0000 0.83800  0.08170  0.88400  Biso   1.000  H
  H79      1.0000 0.83800  0.41830  0.38400  Biso   1.000  H
  H80      1.0000 0.16200  0.91830  0.11600  Biso   1.000  H
  H81      1.0000 0.15100  0.54800  0.46000  Biso   1.000  H
  H82      1.0000 0.84900  0.04800  0.04000  Biso   1.000  H
  H83      1.0000 0.84900  0.45200  0.54000  Biso   1.000  H
  H84      1.0000 0.15100  0.95200  0.96000  Biso   1.000  H
  H85      1.0000 0.14000  0.50790  0.30200  Biso   1.000  H
  H86      1.0000 0.86000  0.00790  0.19800  Biso   1.000  H
  H87      1.0000 0.86000  0.49210  0.69800  Biso   1.000  H
  H88      1.0000 0.14000  0.99210  0.80200  Biso   1.000  H
  H89      1.0000 0.09900  0.37710  0.26300  Biso   1.000  H
  H90      1.0000 0.90100  0.87710  0.23700  Biso   1.000  H
  H91      1.0000 0.90100  0.62290  0.73700  Biso   1.000  H
  H92      1.0000 0.09900  0.12290  0.76300  Biso   1.000  H
  H93      1.0000 0.07600  0.29190  0.38300  Biso   1.000  H
  H94      1.0000 0.92400  0.79190  0.11700  Biso   1.000  H
  H95      1.0000 0.92400  0.70810  0.61700  Biso   1.000  H
  H96      1.0000 0.07600  0.20810  0.88300  Biso   1.000  H
  H97      1.0000 0.90200  0.10810  0.43180  Biso   1.000  H
  H98      1.0000 0.09800  0.60810  0.06820  Biso   1.000  H
  H99      1.0000 0.09800  0.89190  0.56820  Biso   1.000  H
  H100     1.0000 0.90200  0.39190  0.93180  Biso   1.000  H
  H101     1.0000 0.15800  0.01680  0.60700  Biso   1.000  H
  H102     1.0000 0.84200  0.51680  0.89300  Biso   1.000  H
  H103     1.0000 0.84200  0.98320  0.39300  Biso   1.000  H
  H104     1.0000 0.15800  0.48320  0.10700  Biso   1.000  H
