data_image0
_cell_length_a       18.766
_cell_length_b       19.365
_cell_length_c       19.286
_cell_angle_alpha    90
_cell_angle_beta     90
_cell_angle_gamma    90

_symmetry_space_group_name_H-M    "P 1"
_symmetry_int_tables_number       1

loop_
  _symmetry_equiv_pos_as_xyz
  'x, y, z'

loop_
  _atom_site_label
  _atom_site_occupancy
  _atom_site_fract_x
  _atom_site_fract_y
  _atom_site_fract_z
  _atom_site_thermal_displace_type
  _atom_site_B_iso_or_equiv
  _atom_site_type_symbol
  Cu1      1.0000 0.77864  0.50133  0.98865  Biso   1.000  Cu
  Cu2      1.0000 0.22136  0.49867  0.48865  Biso   1.000  Cu
  Cu3      1.0000 0.72136  0.00133  0.48865  Biso   1.000  Cu
  Cu4      1.0000 0.27864  0.99867  0.98865  Biso   1.000  Cu
  Si1      1.0000 0.76168  0.98738  0.97072  Biso   1.000  Si
  Si2      1.0000 0.23832  0.01262  0.47072  Biso   1.000  Si
  Si3      1.0000 0.73832  0.48738  0.47072  Biso   1.000  Si
  Si4      1.0000 0.26168  0.51262  0.97072  Biso   1.000  Si
  W1       1.0000 0.72520  0.91995  0.13648  Biso   1.000  W
  W2       1.0000 0.27480  0.08005  0.63648  Biso   1.000  W
  W3       1.0000 0.77480  0.41995  0.63648  Biso   1.000  W
  W4       1.0000 0.22520  0.58005  0.13648  Biso   1.000  W
  W5       1.0000 0.58254  0.98937  0.02708  Biso   1.000  W
  W6       1.0000 0.41746  0.01063  0.52708  Biso   1.000  W
  W7       1.0000 0.91746  0.48937  0.52708  Biso   1.000  W
  W8       1.0000 0.08254  0.51063  0.02708  Biso   1.000  W
  W9       1.0000 0.62164  0.04969  0.86710  Biso   1.000  W
  W10      1.0000 0.37836  0.95031  0.36710  Biso   1.000  W
  W11      1.0000 0.87836  0.54969  0.36710  Biso   1.000  W
  W12      1.0000 0.12164  0.45031  0.86710  Biso   1.000  W
  W13      1.0000 0.80655  0.04771  0.80406  Biso   1.000  W
  W14      1.0000 0.19345  0.95229  0.30406  Biso   1.000  W
  W15      1.0000 0.69345  0.54771  0.30406  Biso   1.000  W
  W16      1.0000 0.30655  0.45229  0.80406  Biso   1.000  W
  W17      1.0000 0.93815  0.98255  0.90534  Biso   1.000  W
  W18      1.0000 0.06185  0.01745  0.40534  Biso   1.000  W
  W19      1.0000 0.56185  0.48255  0.40534  Biso   1.000  W
  W20      1.0000 0.43815  0.51745  0.90534  Biso   1.000  W
  W21      1.0000 0.89601  0.91809  0.07870  Biso   1.000  W
  W22      1.0000 0.10399  0.08191  0.57870  Biso   1.000  W
  W23      1.0000 0.60399  0.41809  0.57870  Biso   1.000  W
  W24      1.0000 0.39601  0.58191  0.07870  Biso   1.000  W
  W25      1.0000 0.77453  0.80936  0.00817  Biso   1.000  W
  W26      1.0000 0.22547  0.19064  0.50817  Biso   1.000  W
  W27      1.0000 0.72547  0.30936  0.50817  Biso   1.000  W
  W28      1.0000 0.27453  0.69064  0.00817  Biso   1.000  W
  W29      1.0000 0.63085  0.87778  0.89978  Biso   1.000  W
  W30      1.0000 0.36915  0.12222  0.39978  Biso   1.000  W
  W31      1.0000 0.86915  0.37778  0.39978  Biso   1.000  W
  W32      1.0000 0.13085  0.62222  0.89978  Biso   1.000  W
  W33      1.0000 0.81455  0.87581  0.83464  Biso   1.000  W
  W34      1.0000 0.18545  0.12419  0.33464  Biso   1.000  W
  W35      1.0000 0.68545  0.37581  0.33464  Biso   1.000  W
  W36      1.0000 0.31455  0.62419  0.83464  Biso   1.000  W
  W37      1.0000 0.71611  0.10539  0.10331  Biso   1.000  W
  W38      1.0000 0.28389  0.89461  0.60331  Biso   1.000  W
  W39      1.0000 0.78389  0.60539  0.60331  Biso   1.000  W
  W40      1.0000 0.21611  0.39461  0.10331  Biso   1.000  W
  W41      1.0000 0.75288  0.16784  0.94292  Biso   1.000  W
  W42      1.0000 0.24712  0.83216  0.44292  Biso   1.000  W
  W43      1.0000 0.74712  0.66784  0.44292  Biso   1.000  W
  W44      1.0000 0.25288  0.33216  0.94292  Biso   1.000  W
  W45      1.0000 0.88597  0.10374  0.04261  Biso   1.000  W
  W46      1.0000 0.11403  0.89626  0.54261  Biso   1.000  W
  W47      1.0000 0.61403  0.60374  0.54261  Biso   1.000  W
  W48      1.0000 0.38597  0.39626  0.04261  Biso   1.000  W
  N1       1.0000 0.70300  0.57350  0.00260  Biso   1.000  N
  N2       1.0000 0.29700  0.42650  0.50260  Biso   1.000  N
  N3       1.0000 0.79700  0.07350  0.50260  Biso   1.000  N
  N4       1.0000 0.20300  0.92650  0.00260  Biso   1.000  N
  N5       1.0000 0.20730  0.07240  0.01600  Biso   1.000  N
  N6       1.0000 0.79270  0.92760  0.51600  Biso   1.000  N
  N7       1.0000 0.29270  0.57240  0.51600  Biso   1.000  N
  N8       1.0000 0.70730  0.42760  0.01600  Biso   1.000  N
  N9       1.0000 0.84110  0.42540  0.95180  Biso   1.000  N
  N10      1.0000 0.15890  0.57460  0.45180  Biso   1.000  N
  N11      1.0000 0.65890  0.92540  0.45180  Biso   1.000  N
  N12      1.0000 0.34110  0.07460  0.95180  Biso   1.000  N
  N13      1.0000 0.34060  0.92780  0.94120  Biso   1.000  N
  N14      1.0000 0.65940  0.07220  0.44120  Biso   1.000  N
  N15      1.0000 0.15940  0.42780  0.44120  Biso   1.000  N
  N16      1.0000 0.84060  0.57220  0.94120  Biso   1.000  N
  N17      1.0000 0.52740  0.75780  0.09020  Biso   1.000  N
  N18      1.0000 0.47260  0.24220  0.59020  Biso   1.000  N
  N19      1.0000 0.97260  0.25780  0.59020  Biso   1.000  N
  N20      1.0000 0.02740  0.74220  0.09020  Biso   1.000  N
  N21      1.0000 0.47420  0.80530  0.07080  Biso   1.000  N
  N22      1.0000 0.52580  0.19470  0.57080  Biso   1.000  N
  N23      1.0000 0.02580  0.30530  0.57080  Biso   1.000  N
  N24      1.0000 0.97420  0.69470  0.07080  Biso   1.000  N
  N25      1.0000 0.05630  0.28190  0.09110  Biso   1.000  N
  N26      1.0000 0.94370  0.71810  0.59110  Biso   1.000  N
  N27      1.0000 0.44370  0.78190  0.59110  Biso   1.000  N
  N28      1.0000 0.55630  0.21810  0.09110  Biso   1.000  N
  N29      1.0000 0.00330  0.32680  0.07070  Biso   1.000  N
  N30      1.0000 0.99670  0.67320  0.57070  Biso   1.000  N
  N31      1.0000 0.49670  0.82680  0.57070  Biso   1.000  N
  N32      1.0000 0.50330  0.17320  0.07070  Biso   1.000  N
  N33      1.0000 0.00250  0.19560  0.76620  Biso   1.000  N
  N34      1.0000 0.99750  0.80440  0.26620  Biso   1.000  N
  N35      1.0000 0.49750  0.69560  0.26620  Biso   1.000  N
  N36      1.0000 0.50250  0.30440  0.76620  Biso   1.000  N
  H1       1.0000 0.95790  0.20320  0.75440  Biso   1.000  H
  H2       1.0000 0.04210  0.79680  0.25440  Biso   1.000  H
  H3       1.0000 0.54210  0.70320  0.25440  Biso   1.000  H
  H4       1.0000 0.45790  0.29680  0.75440  Biso   1.000  H
  N37      1.0000 0.04120  0.74080  0.72330  Biso   1.000  N
  N38      1.0000 0.95880  0.25920  0.22330  Biso   1.000  N
  N39      1.0000 0.45880  0.24080  0.22330  Biso   1.000  N
  N40      1.0000 0.54120  0.75920  0.72330  Biso   1.000  N
  H5       1.0000 0.02500  0.69860  0.71690  Biso   1.000  H
  H6       1.0000 0.97500  0.30140  0.21690  Biso   1.000  H
  H7       1.0000 0.47500  0.19860  0.21690  Biso   1.000  H
  H8       1.0000 0.52500  0.80140  0.71690  Biso   1.000  H
  N41      1.0000 0.18220  0.02170  0.80550  Biso   1.000  N
  N42      1.0000 0.81780  0.97830  0.30550  Biso   1.000  N
  N43      1.0000 0.31780  0.52170  0.30550  Biso   1.000  N
  N44      1.0000 0.68220  0.47830  0.80550  Biso   1.000  N
  N45      1.0000 0.17940  0.95070  0.79220  Biso   1.000  N
  N46      1.0000 0.82060  0.04930  0.29220  Biso   1.000  N
  N47      1.0000 0.32060  0.45070  0.29220  Biso   1.000  N
  N48      1.0000 0.67940  0.54930  0.79220  Biso   1.000  N
  C1       1.0000 0.62740  0.63570  0.08000  Biso   1.000  C
  C2       1.0000 0.37260  0.36430  0.58000  Biso   1.000  C
  C3       1.0000 0.87260  0.13570  0.58000  Biso   1.000  C
  C4       1.0000 0.12740  0.86430  0.08000  Biso   1.000  C
  H9       1.0000 0.61210  0.64570  0.12590  Biso   1.000  H
  H10      1.0000 0.38790  0.35430  0.62590  Biso   1.000  H
  H11      1.0000 0.88790  0.14570  0.62590  Biso   1.000  H
  H12      1.0000 0.11210  0.85430  0.12590  Biso   1.000  H
  C5       1.0000 0.67910  0.58600  0.06850  Biso   1.000  C
  C6       1.0000 0.32090  0.41400  0.56850  Biso   1.000  C
  C7       1.0000 0.82090  0.08600  0.56850  Biso   1.000  C
  C8       1.0000 0.17910  0.91400  0.06850  Biso   1.000  C
  H13      1.0000 0.69800  0.56060  0.10630  Biso   1.000  H
  H14      1.0000 0.30200  0.43940  0.60630  Biso   1.000  H
  H15      1.0000 0.80200  0.06060  0.60630  Biso   1.000  H
  H16      1.0000 0.19800  0.93940  0.10630  Biso   1.000  H
  C9       1.0000 0.67500  0.60830  0.95010  Biso   1.000  C
  C10      1.0000 0.32500  0.39170  0.45010  Biso   1.000  C
  C11      1.0000 0.82500  0.10830  0.45010  Biso   1.000  C
  C12      1.0000 0.17500  0.89170  0.95010  Biso   1.000  C
  H17      1.0000 0.69210  0.59950  0.90460  Biso   1.000  H
  H18      1.0000 0.30790  0.40050  0.40460  Biso   1.000  H
  H19      1.0000 0.80790  0.09950  0.40460  Biso   1.000  H
  H20      1.0000 0.19210  0.90050  0.90460  Biso   1.000  H
  C13      1.0000 0.62280  0.65630  0.95880  Biso   1.000  C
  C14      1.0000 0.37720  0.34370  0.45880  Biso   1.000  C
  C15      1.0000 0.87720  0.15630  0.45880  Biso   1.000  C
  C16      1.0000 0.12280  0.84370  0.95880  Biso   1.000  C
  H21      1.0000 0.60340  0.67980  0.91990  Biso   1.000  H
  H22      1.0000 0.39660  0.32020  0.41990  Biso   1.000  H
  H23      1.0000 0.89660  0.17980  0.41990  Biso   1.000  H
  H24      1.0000 0.10340  0.82020  0.91990  Biso   1.000  H
  C17      1.0000 0.59840  0.67050  0.02460  Biso   1.000  C
  C18      1.0000 0.40160  0.32950  0.52460  Biso   1.000  C
  C19      1.0000 0.90160  0.17050  0.52460  Biso   1.000  C
  C20      1.0000 0.09840  0.82950  0.02460  Biso   1.000  C
  C21      1.0000 0.54440  0.72420  0.03520  Biso   1.000  C
  C22      1.0000 0.45560  0.27580  0.53520  Biso   1.000  C
  C23      1.0000 0.95560  0.22420  0.53520  Biso   1.000  C
  C24      1.0000 0.04440  0.77580  0.03520  Biso   1.000  C
  C25      1.0000 0.46550  0.79660  0.00560  Biso   1.000  C
  C26      1.0000 0.53450  0.20340  0.50560  Biso   1.000  C
  C27      1.0000 0.03450  0.29660  0.50560  Biso   1.000  C
  C28      1.0000 0.96550  0.70340  0.00560  Biso   1.000  C
  C29      1.0000 0.42080  0.83290  0.95640  Biso   1.000  C
  C30      1.0000 0.57920  0.16710  0.45640  Biso   1.000  C
  C31      1.0000 0.07920  0.33290  0.45640  Biso   1.000  C
  C32      1.0000 0.92080  0.66710  0.95640  Biso   1.000  C
  C33      1.0000 0.41150  0.81350  0.88760  Biso   1.000  C
  C34      1.0000 0.58850  0.18650  0.38760  Biso   1.000  C
  C35      1.0000 0.08850  0.31350  0.38760  Biso   1.000  C
  C36      1.0000 0.91150  0.68650  0.88760  Biso   1.000  C
  H25      1.0000 0.43500  0.77390  0.86970  Biso   1.000  H
  H26      1.0000 0.56500  0.22610  0.36970  Biso   1.000  H
  H27      1.0000 0.06500  0.27390  0.36970  Biso   1.000  H
  H28      1.0000 0.93500  0.72610  0.86970  Biso   1.000  H
  C37      1.0000 0.36750  0.85270  0.84570  Biso   1.000  C
  C38      1.0000 0.63250  0.14730  0.34570  Biso   1.000  C
  C39      1.0000 0.13250  0.35270  0.34570  Biso   1.000  C
  C40      1.0000 0.86750  0.64730  0.84570  Biso   1.000  C
  H29      1.0000 0.36000  0.84030  0.79860  Biso   1.000  H
  H30      1.0000 0.64000  0.15970  0.29860  Biso   1.000  H
  H31      1.0000 0.14000  0.34030  0.29860  Biso   1.000  H
  H32      1.0000 0.86000  0.65970  0.79860  Biso   1.000  H
  C41      1.0000 0.33410  0.91120  0.87420  Biso   1.000  C
  C42      1.0000 0.66590  0.08880  0.37420  Biso   1.000  C
  C43      1.0000 0.16590  0.41120  0.37420  Biso   1.000  C
  C44      1.0000 0.83410  0.58880  0.87420  Biso   1.000  C
  H33      1.0000 0.30600  0.93980  0.84490  Biso   1.000  H
  H34      1.0000 0.69400  0.06020  0.34490  Biso   1.000  H
  H35      1.0000 0.19400  0.43980  0.34490  Biso   1.000  H
  H36      1.0000 0.80600  0.56020  0.84490  Biso   1.000  H
  C45      1.0000 0.38380  0.89070  0.98020  Biso   1.000  C
  C46      1.0000 0.61620  0.10930  0.48020  Biso   1.000  C
  C47      1.0000 0.11620  0.39070  0.48020  Biso   1.000  C
  C48      1.0000 0.88380  0.60930  0.98020  Biso   1.000  C
  H37      1.0000 0.39010  0.90420  0.02720  Biso   1.000  H
  H38      1.0000 0.60990  0.09580  0.52720  Biso   1.000  H
  H39      1.0000 0.10990  0.40420  0.52720  Biso   1.000  H
  H40      1.0000 0.89010  0.59580  0.02720  Biso   1.000  H
  C49      1.0000 0.10120  0.13370  0.98290  Biso   1.000  C
  C50      1.0000 0.89880  0.86630  0.48290  Biso   1.000  C
  C51      1.0000 0.39880  0.63370  0.48290  Biso   1.000  C
  C52      1.0000 0.60120  0.36630  0.98290  Biso   1.000  C
  H41      1.0000 0.06060  0.13680  0.95360  Biso   1.000  H
  H42      1.0000 0.93940  0.86320  0.45360  Biso   1.000  H
  H43      1.0000 0.43940  0.63680  0.45360  Biso   1.000  H
  H44      1.0000 0.56060  0.36320  0.95360  Biso   1.000  H
  C53      1.0000 0.15030  0.07730  0.97640  Biso   1.000  C
  C54      1.0000 0.84970  0.92270  0.47640  Biso   1.000  C
  C55      1.0000 0.34970  0.57730  0.47640  Biso   1.000  C
  C56      1.0000 0.65030  0.42270  0.97640  Biso   1.000  C
  H45      1.0000 0.14150  0.04270  0.94260  Biso   1.000  H
  H46      1.0000 0.85850  0.95730  0.44260  Biso   1.000  H
  H47      1.0000 0.35850  0.54270  0.44260  Biso   1.000  H
  H48      1.0000 0.64150  0.45730  0.94260  Biso   1.000  H
  C57      1.0000 0.21830  0.11940  0.06420  Biso   1.000  C
  C58      1.0000 0.78170  0.88060  0.56420  Biso   1.000  C
  C59      1.0000 0.28170  0.61940  0.56420  Biso   1.000  C
  C60      1.0000 0.71830  0.38060  0.06420  Biso   1.000  C
  H49      1.0000 0.25870  0.11490  0.09360  Biso   1.000  H
  H50      1.0000 0.74130  0.88510  0.59360  Biso   1.000  H
  H51      1.0000 0.24130  0.61490  0.59360  Biso   1.000  H
  H52      1.0000 0.75870  0.38510  0.09360  Biso   1.000  H
  C61      1.0000 0.17260  0.17590  0.07360  Biso   1.000  C
  C62      1.0000 0.82740  0.82410  0.57360  Biso   1.000  C
  C63      1.0000 0.32740  0.67590  0.57360  Biso   1.000  C
  C64      1.0000 0.67260  0.32410  0.07360  Biso   1.000  C
  H53      1.0000 0.18200  0.20920  0.10860  Biso   1.000  H
  H54      1.0000 0.81800  0.79080  0.60860  Biso   1.000  H
  H55      1.0000 0.31800  0.70920  0.60860  Biso   1.000  H
  H56      1.0000 0.68200  0.29080  0.10860  Biso   1.000  H
  C65      1.0000 0.11380  0.18220  0.03130  Biso   1.000  C
  C66      1.0000 0.88620  0.81780  0.53130  Biso   1.000  C
  C67      1.0000 0.38620  0.68220  0.53130  Biso   1.000  C
  C68      1.0000 0.61380  0.31780  0.03130  Biso   1.000  C
  C69      1.0000 0.06580  0.24140  0.03900  Biso   1.000  C
  C70      1.0000 0.93420  0.75860  0.53900  Biso   1.000  C
  C71      1.0000 0.43420  0.74140  0.53900  Biso   1.000  C
  C72      1.0000 0.56580  0.25860  0.03900  Biso   1.000  C
  C73      1.0000 0.98450  0.31020  0.00930  Biso   1.000  C
  C74      1.0000 0.01550  0.68980  0.50930  Biso   1.000  C
  C75      1.0000 0.51550  0.81020  0.50930  Biso   1.000  C
  C76      1.0000 0.48450  0.18980  0.00930  Biso   1.000  C
  C77      1.0000 0.93010  0.33920  0.96640  Biso   1.000  C
  C78      1.0000 0.06990  0.66080  0.46640  Biso   1.000  C
  C79      1.0000 0.56990  0.83920  0.46640  Biso   1.000  C
  C80      1.0000 0.43010  0.16080  0.96640  Biso   1.000  C
  C81      1.0000 0.91290  0.31250  0.90240  Biso   1.000  C
  C82      1.0000 0.08710  0.68750  0.40240  Biso   1.000  C
  C83      1.0000 0.58710  0.81250  0.40240  Biso   1.000  C
  C84      1.0000 0.41290  0.18750  0.90240  Biso   1.000  C
  H57      1.0000 0.93660  0.27230  0.88590  Biso   1.000  H
  H58      1.0000 0.06340  0.72770  0.38590  Biso   1.000  H
  H59      1.0000 0.56340  0.77230  0.38590  Biso   1.000  H
  H60      1.0000 0.43660  0.22770  0.88590  Biso   1.000  H
  C85      1.0000 0.86130  0.34380  0.86170  Biso   1.000  C
  C86      1.0000 0.13870  0.65620  0.36170  Biso   1.000  C
  C87      1.0000 0.63870  0.84380  0.36170  Biso   1.000  C
  C88      1.0000 0.36130  0.15620  0.86170  Biso   1.000  C
  H61      1.0000 0.85040  0.32720  0.81660  Biso   1.000  H
  H62      1.0000 0.14960  0.67280  0.31660  Biso   1.000  H
  H63      1.0000 0.64960  0.82720  0.31660  Biso   1.000  H
  H64      1.0000 0.35040  0.17280  0.81660  Biso   1.000  H
  C89      1.0000 0.82630  0.39990  0.88930  Biso   1.000  C
  C90      1.0000 0.17370  0.60010  0.38930  Biso   1.000  C
  C91      1.0000 0.67370  0.89990  0.38930  Biso   1.000  C
  C92      1.0000 0.32630  0.10010  0.88930  Biso   1.000  C
  H65      1.0000 0.79010  0.42140  0.86260  Biso   1.000  H
  H66      1.0000 0.20990  0.57860  0.36260  Biso   1.000  H
  H67      1.0000 0.70990  0.92140  0.36260  Biso   1.000  H
  H68      1.0000 0.29010  0.07860  0.86260  Biso   1.000  H
  C93      1.0000 0.89300  0.39790  0.98950  Biso   1.000  C
  C94      1.0000 0.10700  0.60210  0.48950  Biso   1.000  C
  C95      1.0000 0.60700  0.89790  0.48950  Biso   1.000  C
  C96      1.0000 0.39300  0.10210  0.98950  Biso   1.000  C
  H69      1.0000 0.90540  0.41830  0.03260  Biso   1.000  H
  H70      1.0000 0.09460  0.58170  0.53260  Biso   1.000  H
  H71      1.0000 0.59460  0.91830  0.53260  Biso   1.000  H
  H72      1.0000 0.40540  0.08170  0.03260  Biso   1.000  H
  C97      1.0000 0.02490  0.13100  0.76890  Biso   1.000  C
  C98      1.0000 0.97510  0.86900  0.26890  Biso   1.000  C
  C99      1.0000 0.47510  0.63100  0.26890  Biso   1.000  C
  C100     1.0000 0.52490  0.36900  0.76890  Biso   1.000  C
  H73      1.0000 0.99220  0.09440  0.76080  Biso   1.000  H
  H74      1.0000 0.00780  0.90560  0.26080  Biso   1.000  H
  H75      1.0000 0.50780  0.59440  0.26080  Biso   1.000  H
  H76      1.0000 0.49220  0.40560  0.76080  Biso   1.000  H
  C101     1.0000 0.04480  0.25110  0.78080  Biso   1.000  C
  C102     1.0000 0.95520  0.74890  0.28080  Biso   1.000  C
  C103     1.0000 0.45520  0.75110  0.28080  Biso   1.000  C
  C104     1.0000 0.54480  0.24890  0.78080  Biso   1.000  C
  H77      1.0000 0.02730  0.29720  0.77960  Biso   1.000  H
  H78      1.0000 0.97270  0.70280  0.27960  Biso   1.000  H
  H79      1.0000 0.47270  0.79720  0.27960  Biso   1.000  H
  H80      1.0000 0.52730  0.20280  0.77960  Biso   1.000  H
  C105     1.0000 0.11550  0.23570  0.79750  Biso   1.000  C
  C106     1.0000 0.88450  0.76430  0.29750  Biso   1.000  C
  C107     1.0000 0.38450  0.73570  0.29750  Biso   1.000  C
  C108     1.0000 0.61550  0.26430  0.79750  Biso   1.000  C
  H81      1.0000 0.14660  0.27220  0.81070  Biso   1.000  H
  H82      1.0000 0.85340  0.72780  0.31070  Biso   1.000  H
  H83      1.0000 0.35340  0.77220  0.31070  Biso   1.000  H
  H84      1.0000 0.64660  0.22780  0.81070  Biso   1.000  H
  C109     1.0000 0.14050  0.17140  0.79560  Biso   1.000  C
  C110     1.0000 0.85950  0.82860  0.29560  Biso   1.000  C
  C111     1.0000 0.35950  0.67140  0.29560  Biso   1.000  C
  C112     1.0000 0.64050  0.32860  0.79560  Biso   1.000  C
  H85      1.0000 0.18990  0.16300  0.80270  Biso   1.000  H
  H86      1.0000 0.81010  0.83700  0.30270  Biso   1.000  H
  H87      1.0000 0.31010  0.66300  0.30270  Biso   1.000  H
  H88      1.0000 0.68990  0.33700  0.80270  Biso   1.000  H
  C113     1.0000 0.09420  0.11610  0.78330  Biso   1.000  C
  C114     1.0000 0.90580  0.88390  0.28330  Biso   1.000  C
  C115     1.0000 0.40580  0.61610  0.28330  Biso   1.000  C
  C116     1.0000 0.59420  0.38390  0.78330  Biso   1.000  C
  C117     1.0000 0.12130  0.04720  0.78110  Biso   1.000  C
  C118     1.0000 0.87870  0.95280  0.28110  Biso   1.000  C
  C119     1.0000 0.37870  0.54720  0.28110  Biso   1.000  C
  C120     1.0000 0.62130  0.45280  0.78110  Biso   1.000  C
  C121     1.0000 0.12200  0.93620  0.76320  Biso   1.000  C
  C122     1.0000 0.87800  0.06380  0.26320  Biso   1.000  C
  C123     1.0000 0.37800  0.43620  0.26320  Biso   1.000  C
  C124     1.0000 0.62200  0.56380  0.76320  Biso   1.000  C
  C125     1.0000 0.09420  0.87120  0.74710  Biso   1.000  C
  C126     1.0000 0.90580  0.12880  0.24710  Biso   1.000  C
  C127     1.0000 0.40580  0.37120  0.24710  Biso   1.000  C
  C128     1.0000 0.59420  0.62880  0.74710  Biso   1.000  C
  C129     1.0000 0.02050  0.85940  0.73650  Biso   1.000  C
  C130     1.0000 0.97950  0.14060  0.23650  Biso   1.000  C
  C131     1.0000 0.47950  0.35940  0.23650  Biso   1.000  C
  C132     1.0000 0.52050  0.64060  0.73650  Biso   1.000  C
  H89      1.0000 0.98840  0.89730  0.73730  Biso   1.000  H
  H90      1.0000 0.01160  0.10270  0.23730  Biso   1.000  H
  H91      1.0000 0.51160  0.39730  0.23730  Biso   1.000  H
  H92      1.0000 0.48840  0.60270  0.73730  Biso   1.000  H
  C133     1.0000 0.99440  0.79320  0.72490  Biso   1.000  C
  C134     1.0000 0.00560  0.20680  0.22490  Biso   1.000  C
  C135     1.0000 0.50560  0.29320  0.22490  Biso   1.000  C
  C136     1.0000 0.49440  0.70680  0.72490  Biso   1.000  C
  H93      1.0000 0.94490  0.78530  0.71830  Biso   1.000  H
  H94      1.0000 0.05510  0.21470  0.21830  Biso   1.000  H
  H95      1.0000 0.55510  0.28530  0.21830  Biso   1.000  H
  H96      1.0000 0.44490  0.71470  0.71830  Biso   1.000  H
  C137     1.0000 0.11060  0.75000  0.73080  Biso   1.000  C
  C138     1.0000 0.88940  0.25000  0.23080  Biso   1.000  C
  C139     1.0000 0.38940  0.25000  0.23080  Biso   1.000  C
  C140     1.0000 0.61060  0.75000  0.73080  Biso   1.000  C
  H97      1.0000 0.14140  0.71120  0.72800  Biso   1.000  H
  H98      1.0000 0.85860  0.28880  0.22800  Biso   1.000  H
  H99      1.0000 0.35860  0.21120  0.22800  Biso   1.000  H
  H100     1.0000 0.64140  0.78880  0.72800  Biso   1.000  H
  C141     1.0000 0.13890  0.81370  0.74250  Biso   1.000  C
  C142     1.0000 0.86110  0.18630  0.24250  Biso   1.000  C
  C143     1.0000 0.36110  0.31370  0.24250  Biso   1.000  C
  C144     1.0000 0.63890  0.68630  0.74250  Biso   1.000  C
  H101     1.0000 0.18890  0.81900  0.74750  Biso   1.000  H
  H102     1.0000 0.81110  0.18100  0.24750  Biso   1.000  H
  H103     1.0000 0.31110  0.31900  0.24750  Biso   1.000  H
  H104     1.0000 0.68890  0.68100  0.74750  Biso   1.000  H
  O1       1.0000 0.78170  0.92850  0.02740  Biso   1.000  O
  O2       1.0000 0.21830  0.07150  0.52740  Biso   1.000  O
  O3       1.0000 0.71830  0.42850  0.52740  Biso   1.000  O
  O4       1.0000 0.28170  0.57150  0.02740  Biso   1.000  O
  O5       1.0000 0.67930  0.97910  0.94770  Biso   1.000  O
  O6       1.0000 0.32070  0.02090  0.44770  Biso   1.000  O
  O7       1.0000 0.82070  0.47910  0.44770  Biso   1.000  O
  O8       1.0000 0.17930  0.52090  0.94770  Biso   1.000  O
  O9       1.0000 0.81220  0.97710  0.90160  Biso   1.000  O
  O10      1.0000 0.18780  0.02290  0.40160  Biso   1.000  O
  O11      1.0000 0.68780  0.47710  0.40160  Biso   1.000  O
  O12      1.0000 0.31220  0.52290  0.90160  Biso   1.000  O
  O13      1.0000 0.77350  0.06400  0.00170  Biso   1.000  O
  O14      1.0000 0.22650  0.93600  0.50170  Biso   1.000  O
  O15      1.0000 0.72650  0.56400  0.50170  Biso   1.000  O
  O16      1.0000 0.27350  0.43600  0.00170  Biso   1.000  O
  O17      1.0000 0.63820  0.93360  0.08750  Biso   1.000  O
  O18      1.0000 0.36180  0.06640  0.58750  Biso   1.000  O
  O19      1.0000 0.86180  0.43360  0.58750  Biso   1.000  O
  O20      1.0000 0.13820  0.56640  0.08750  Biso   1.000  O
  O21      1.0000 0.55790  0.04300  0.94620  Biso   1.000  O
  O22      1.0000 0.44210  0.95700  0.44620  Biso   1.000  O
  O23      1.0000 0.94210  0.54300  0.44620  Biso   1.000  O
  O24      1.0000 0.05790  0.45700  0.94620  Biso   1.000  O
  O25      1.0000 0.70440  0.03780  0.81360  Biso   1.000  O
  O26      1.0000 0.29560  0.96220  0.31360  Biso   1.000  O
  O27      1.0000 0.79560  0.53780  0.31360  Biso   1.000  O
  O28      1.0000 0.20440  0.46220  0.81360  Biso   1.000  O
  O29      1.0000 0.90560  0.03760  0.82710  Biso   1.000  O
  O30      1.0000 0.09440  0.96240  0.32710  Biso   1.000  O
  O31      1.0000 0.59440  0.53760  0.32710  Biso   1.000  O
  O32      1.0000 0.40560  0.46240  0.82710  Biso   1.000  O
  O33      1.0000 0.93100  0.92970  0.98650  Biso   1.000  O
  O34      1.0000 0.06900  0.07030  0.48650  Biso   1.000  O
  O35      1.0000 0.56900  0.42970  0.48650  Biso   1.000  O
  O36      1.0000 0.43100  0.57030  0.98650  Biso   1.000  O
  O37      1.0000 0.82620  0.91340  0.15150  Biso   1.000  O
  O38      1.0000 0.17380  0.08660  0.65150  Biso   1.000  O
  O39      1.0000 0.67380  0.41340  0.65150  Biso   1.000  O
  O40      1.0000 0.32620  0.58660  0.15150  Biso   1.000  O
  O41      1.0000 0.73220  0.82770  0.09750  Biso   1.000  O
  O42      1.0000 0.26780  0.17230  0.59750  Biso   1.000  O
  O43      1.0000 0.76780  0.32770  0.59750  Biso   1.000  O
  O44      1.0000 0.23220  0.67230  0.09750  Biso   1.000  O
  O45      1.0000 0.56760  0.90780  0.97240  Biso   1.000  O
  O46      1.0000 0.43240  0.09220  0.47240  Biso   1.000  O
  O47      1.0000 0.93240  0.40780  0.47240  Biso   1.000  O
  O48      1.0000 0.06760  0.59220  0.97240  Biso   1.000  O
  O49      1.0000 0.59640  0.95560  0.84540  Biso   1.000  O
  O50      1.0000 0.40360  0.04440  0.34540  Biso   1.000  O
  O51      1.0000 0.90360  0.45560  0.34540  Biso   1.000  O
  O52      1.0000 0.09640  0.54440  0.84540  Biso   1.000  O
  O53      1.0000 0.80680  0.95390  0.77200  Biso   1.000  O
  O54      1.0000 0.19320  0.04610  0.27200  Biso   1.000  O
  O55      1.0000 0.69320  0.45390  0.27200  Biso   1.000  O
  O56      1.0000 0.30680  0.54610  0.77200  Biso   1.000  O
  O57      1.0000 0.91170  0.90200  0.85140  Biso   1.000  O
  O58      1.0000 0.08830  0.09800  0.35140  Biso   1.000  O
  O59      1.0000 0.58830  0.40200  0.35140  Biso   1.000  O
  O60      1.0000 0.41170  0.59800  0.85140  Biso   1.000  O
  O61      1.0000 0.86430  0.82680  0.05090  Biso   1.000  O
  O62      1.0000 0.13570  0.17320  0.55090  Biso   1.000  O
  O63      1.0000 0.63570  0.32680  0.55090  Biso   1.000  O
  O64      1.0000 0.36430  0.67320  0.05090  Biso   1.000  O
  O65      1.0000 0.73440  0.01630  0.13930  Biso   1.000  O
  O66      1.0000 0.26560  0.98370  0.63930  Biso   1.000  O
  O67      1.0000 0.76560  0.51630  0.63930  Biso   1.000  O
  O68      1.0000 0.23440  0.48370  0.13930  Biso   1.000  O
  O69      1.0000 0.63290  0.06600  0.06310  Biso   1.000  O
  O70      1.0000 0.36710  0.93400  0.56310  Biso   1.000  O
  O71      1.0000 0.86710  0.56600  0.56310  Biso   1.000  O
  O72      1.0000 0.13290  0.43400  0.06310  Biso   1.000  O
  O73      1.0000 0.66880  0.12400  0.91100  Biso   1.000  O
  O74      1.0000 0.33120  0.87600  0.41100  Biso   1.000  O
  O75      1.0000 0.83120  0.62400  0.41100  Biso   1.000  O
  O76      1.0000 0.16880  0.37600  0.91100  Biso   1.000  O
  O77      1.0000 0.79760  0.12190  0.86560  Biso   1.000  O
  O78      1.0000 0.20240  0.87810  0.36560  Biso   1.000  O
  O79      1.0000 0.70240  0.62190  0.36560  Biso   1.000  O
  O80      1.0000 0.29760  0.37810  0.86560  Biso   1.000  O
  O81      1.0000 0.92500  0.06180  0.96060  Biso   1.000  O
  O82      1.0000 0.07500  0.93820  0.46060  Biso   1.000  O
  O83      1.0000 0.57500  0.56180  0.46060  Biso   1.000  O
  O84      1.0000 0.42500  0.43820  0.96060  Biso   1.000  O
  O85      1.0000 0.89450  0.01560  0.08380  Biso   1.000  O
  O86      1.0000 0.10550  0.98440  0.58380  Biso   1.000  O
  O87      1.0000 0.60550  0.51560  0.58380  Biso   1.000  O
  O88      1.0000 0.39450  0.48440  0.08380  Biso   1.000  O
  O89      1.0000 0.68450  0.82820  0.96490  Biso   1.000  O
  O90      1.0000 0.31550  0.17180  0.46490  Biso   1.000  O
  O91      1.0000 0.81550  0.32820  0.46490  Biso   1.000  O
  O92      1.0000 0.18450  0.67180  0.96490  Biso   1.000  O
  O93      1.0000 0.71300  0.87710  0.84370  Biso   1.000  O
  O94      1.0000 0.28700  0.12290  0.34370  Biso   1.000  O
  O95      1.0000 0.78700  0.37710  0.34370  Biso   1.000  O
  O96      1.0000 0.21300  0.62290  0.84370  Biso   1.000  O
  O97      1.0000 0.81520  0.82730  0.91970  Biso   1.000  O
  O98      1.0000 0.18480  0.17270  0.41970  Biso   1.000  O
  O99      1.0000 0.68480  0.32730  0.41970  Biso   1.000  O
  O100     1.0000 0.31520  0.67270  0.91970  Biso   1.000  O
  O101     1.0000 0.71080  0.17510  0.03240  Biso   1.000  O
  O102     1.0000 0.28920  0.82490  0.53240  Biso   1.000  O
  O103     1.0000 0.78920  0.67510  0.53240  Biso   1.000  O
  O104     1.0000 0.21080  0.32490  0.03240  Biso   1.000  O
  O105     1.0000 0.84610  0.17500  0.98540  Biso   1.000  O
  O106     1.0000 0.15390  0.82500  0.48540  Biso   1.000  O
  O107     1.0000 0.65390  0.67500  0.48540  Biso   1.000  O
  O108     1.0000 0.34610  0.32500  0.98540  Biso   1.000  O
  O109     1.0000 0.81540  0.12610  0.11090  Biso   1.000  O
  O110     1.0000 0.18460  0.87390  0.61090  Biso   1.000  O
  O111     1.0000 0.68460  0.62610  0.61090  Biso   1.000  O
  O112     1.0000 0.31540  0.37390  0.11090  Biso   1.000  O
  O113     1.0000 0.69630  0.89860  0.21700  Biso   1.000  O
  O114     1.0000 0.30370  0.10140  0.71700  Biso   1.000  O
  O115     1.0000 0.80370  0.39860  0.71700  Biso   1.000  O
  O116     1.0000 0.19630  0.60140  0.21700  Biso   1.000  O
  O117     1.0000 0.50370  0.99290  0.06940  Biso   1.000  O
  O118     1.0000 0.49630  0.00710  0.56940  Biso   1.000  O
  O119     1.0000 0.99630  0.49290  0.56940  Biso   1.000  O
  O120     1.0000 0.00370  0.50710  0.06940  Biso   1.000  O
  O121     1.0000 0.56640  0.09210  0.81000  Biso   1.000  O
  O122     1.0000 0.43360  0.90790  0.31000  Biso   1.000  O
  O123     1.0000 0.93360  0.59210  0.31000  Biso   1.000  O
  O124     1.0000 0.06640  0.40790  0.81000  Biso   1.000  O
  O125     1.0000 0.81510  0.08800  0.72640  Biso   1.000  O
  O126     1.0000 0.18490  0.91200  0.22640  Biso   1.000  O
  O127     1.0000 0.68490  0.58800  0.22640  Biso   1.000  O
  O128     1.0000 0.31510  0.41200  0.72640  Biso   1.000  O
  O129     1.0000 0.02690  0.98480  0.88970  Biso   1.000  O
  O130     1.0000 0.97310  0.01520  0.38970  Biso   1.000  O
  O131     1.0000 0.47310  0.48480  0.38970  Biso   1.000  O
  O132     1.0000 0.52690  0.51520  0.88970  Biso   1.000  O
  O133     1.0000 0.97030  0.89730  0.12270  Biso   1.000  O
  O134     1.0000 0.02970  0.10270  0.62270  Biso   1.000  O
  O135     1.0000 0.52970  0.39730  0.62270  Biso   1.000  O
  O136     1.0000 0.47030  0.60270  0.12270  Biso   1.000  O
  O137     1.0000 0.58070  0.81540  0.86360  Biso   1.000  O
  O138     1.0000 0.41930  0.18460  0.36360  Biso   1.000  O
  O139     1.0000 0.91930  0.31540  0.36360  Biso   1.000  O
  O140     1.0000 0.08070  0.68460  0.86360  Biso   1.000  O
  O141     1.0000 0.82830  0.81040  0.77650  Biso   1.000  O
  O142     1.0000 0.17170  0.18960  0.27650  Biso   1.000  O
  O143     1.0000 0.67170  0.31040  0.27650  Biso   1.000  O
  O144     1.0000 0.32830  0.68960  0.77650  Biso   1.000  O
  O145     1.0000 0.77460  0.72180  0.01330  Biso   1.000  O
  O146     1.0000 0.22540  0.27820  0.51330  Biso   1.000  O
  O147     1.0000 0.72540  0.22180  0.51330  Biso   1.000  O
  O148     1.0000 0.27460  0.77820  0.01330  Biso   1.000  O
  O149     1.0000 0.68510  0.14980  0.17230  Biso   1.000  O
  O150     1.0000 0.31490  0.85020  0.67230  Biso   1.000  O
  O151     1.0000 0.81490  0.64980  0.67230  Biso   1.000  O
  O152     1.0000 0.18510  0.35020  0.17230  Biso   1.000  O
  O153     1.0000 0.74210  0.24980  0.91440  Biso   1.000  O
  O154     1.0000 0.25790  0.75020  0.41440  Biso   1.000  O
  O155     1.0000 0.75790  0.74980  0.41440  Biso   1.000  O
  O156     1.0000 0.24210  0.25020  0.91440  Biso   1.000  O
  O157     1.0000 0.95530  0.14770  0.07550  Biso   1.000  O
  O158     1.0000 0.04470  0.85230  0.57550  Biso   1.000  O
  O159     1.0000 0.54470  0.64770  0.57550  Biso   1.000  O
  O160     1.0000 0.45530  0.35230  0.07550  Biso   1.000  O
  O161     1.0000 0.50790  0.74530  0.97870  Biso   1.000  O
  O162     1.0000 0.49210  0.25470  0.47870  Biso   1.000  O
  O163     1.0000 0.99210  0.24530  0.47870  Biso   1.000  O
  O164     1.0000 0.00790  0.75470  0.97870  Biso   1.000  O
  O165     1.0000 0.02330  0.25540  0.98510  Biso   1.000  O
  O166     1.0000 0.97670  0.74460  0.48510  Biso   1.000  O
  O167     1.0000 0.47670  0.75540  0.48510  Biso   1.000  O
  O168     1.0000 0.52330  0.24460  0.98510  Biso   1.000  O
  O169     1.0000 0.07910  0.99580  0.75440  Biso   1.000  O
  O170     1.0000 0.92090  0.00420  0.25440  Biso   1.000  O
  O171     1.0000 0.42090  0.49580  0.25440  Biso   1.000  O
  O172     1.0000 0.57910  0.50420  0.75440  Biso   1.000  O
  O173     1.0000 0.82160  0.51070  0.09570  Biso   1.000  O
  O174     1.0000 0.17840  0.48930  0.59570  Biso   1.000  O
  O175     1.0000 0.67840  0.01070  0.59570  Biso   1.000  O
  O176     1.0000 0.32160  0.98930  0.09570  Biso   1.000  O
  O177     1.0000 0.84590  0.41730  0.19700  Biso   1.000  O
  O178     1.0000 0.15410  0.58270  0.69700  Biso   1.000  O
  O179     1.0000 0.65410  0.91730  0.69700  Biso   1.000  O
  O180     1.0000 0.34590  0.08270  0.19700  Biso   1.000  O
  O181     1.0000 0.00830  0.60100  0.70190  Biso   1.000  O
  O182     1.0000 0.99170  0.39900  0.20190  Biso   1.000  O
  O183     1.0000 0.49170  0.10100  0.20190  Biso   1.000  O
  O184     1.0000 0.50830  0.89900  0.70190  Biso   1.000  O
  O185     1.0000 0.87470  0.62510  0.16460  Biso   1.000  O
  O186     1.0000 0.12530  0.37490  0.66460  Biso   1.000  O
  O187     1.0000 0.62530  0.12510  0.66460  Biso   1.000  O
  O188     1.0000 0.37470  0.87490  0.16460  Biso   1.000  O
  O189     1.0000 0.93650  0.49560  0.76880  Biso   1.000  O
  O190     1.0000 0.06350  0.50440  0.26880  Biso   1.000  O
  O191     1.0000 0.56350  0.99560  0.26880  Biso   1.000  O
  O192     1.0000 0.43650  0.00440  0.76880  Biso   1.000  O
  O193     1.0000 0.75730  0.72520  0.20050  Biso   1.000  O
  O194     1.0000 0.24270  0.27480  0.70050  Biso   1.000  O
  O195     1.0000 0.74270  0.22520  0.70050  Biso   1.000  O
  O196     1.0000 0.25730  0.77480  0.20050  Biso   1.000  O
  O197     1.0000 0.88320  0.24480  0.72250  Biso   1.000  O
  O198     1.0000 0.11680  0.75520  0.22250  Biso   1.000  O
  O199     1.0000 0.61680  0.74480  0.22250  Biso   1.000  O
  O200     1.0000 0.38320  0.25520  0.72250  Biso   1.000  O
  O201     1.0000 0.46190  0.10960  0.70830  Biso   1.000  O
  O202     1.0000 0.53810  0.89040  0.20830  Biso   1.000  O
  O203     1.0000 0.03810  0.60960  0.20830  Biso   1.000  O
  O204     1.0000 0.96190  0.39040  0.70830  Biso   1.000  O
