data_image0
_cell_length_a       26.529
_cell_length_b       20.292
_cell_length_c       14.004
_cell_angle_alpha    90
_cell_angle_beta     114.81
_cell_angle_gamma    90

_symmetry_space_group_name_H-M    "P 1"
_symmetry_int_tables_number       1

loop_
  _symmetry_equiv_pos_as_xyz
  'x, y, z'

loop_
  _atom_site_label
  _atom_site_occupancy
  _atom_site_fract_x
  _atom_site_fract_y
  _atom_site_fract_z
  _atom_site_thermal_displace_type
  _atom_site_B_iso_or_equiv
  _atom_site_type_symbol
  Cu1      1.0000 0.00000  0.15902  0.75000  Biso   1.000  Cu
  Cu2      1.0000 0.50000  0.65902  0.75000  Biso   1.000  Cu
  Cu3      1.0000 0.00000  0.84098  0.25000  Biso   1.000  Cu
  Cu4      1.0000 0.50000  0.34098  0.25000  Biso   1.000  Cu
  Si1      1.0000 0.75000  0.25000  0.00000  Biso   1.000  Si
  Si2      1.0000 0.25000  0.25000  0.50000  Biso   1.000  Si
  Si3      1.0000 0.25000  0.75000  0.00000  Biso   1.000  Si
  Si4      1.0000 0.75000  0.75000  0.50000  Biso   1.000  Si
  W1       1.0000 0.83553  0.12513  0.16957  Biso   1.000  W
  W2       1.0000 0.16447  0.12513  0.33043  Biso   1.000  W
  W3       1.0000 0.33553  0.62513  0.16957  Biso   1.000  W
  W4       1.0000 0.66447  0.62513  0.33043  Biso   1.000  W
  W5       1.0000 0.16447  0.87487  0.83043  Biso   1.000  W
  W6       1.0000 0.83553  0.87487  0.66957  Biso   1.000  W
  W7       1.0000 0.66447  0.37487  0.83043  Biso   1.000  W
  W8       1.0000 0.33553  0.37487  0.66957  Biso   1.000  W
  W9       1.0000 0.80438  0.12340  0.89790  Biso   1.000  W
  W10      1.0000 0.19562  0.12340  0.60210  Biso   1.000  W
  W11      1.0000 0.30438  0.62340  0.89790  Biso   1.000  W
  W12      1.0000 0.69562  0.62340  0.60210  Biso   1.000  W
  W13      1.0000 0.19562  0.87660  0.10210  Biso   1.000  W
  W14      1.0000 0.80438  0.87660  0.39790  Biso   1.000  W
  W15      1.0000 0.69562  0.37660  0.10210  Biso   1.000  W
  W16      1.0000 0.30438  0.37660  0.39790  Biso   1.000  W
  W17      1.0000 0.69979  0.08873  0.98406  Biso   1.000  W
  W18      1.0000 0.30021  0.08873  0.51594  Biso   1.000  W
  W19      1.0000 0.19979  0.58873  0.98406  Biso   1.000  W
  W20      1.0000 0.80021  0.58873  0.51594  Biso   1.000  W
  W21      1.0000 0.30021  0.91127  0.01594  Biso   1.000  W
  W22      1.0000 0.69979  0.91127  0.48406  Biso   1.000  W
  W23      1.0000 0.80021  0.41127  0.01594  Biso   1.000  W
  W24      1.0000 0.19979  0.41127  0.48406  Biso   1.000  W
  W25      1.0000 0.85322  0.28577  0.91002  Biso   1.000  W
  W26      1.0000 0.14678  0.28577  0.58998  Biso   1.000  W
  W27      1.0000 0.35322  0.78577  0.91002  Biso   1.000  W
  W28      1.0000 0.64678  0.78577  0.58998  Biso   1.000  W
  W29      1.0000 0.14678  0.71423  0.08998  Biso   1.000  W
  W30      1.0000 0.85322  0.71423  0.41002  Biso   1.000  W
  W31      1.0000 0.64678  0.21423  0.08998  Biso   1.000  W
  W32      1.0000 0.35322  0.21423  0.41002  Biso   1.000  W
  W33      1.0000 0.71667  0.24546  0.72954  Biso   1.000  W
  W34      1.0000 0.28333  0.24546  0.77046  Biso   1.000  W
  W35      1.0000 0.21667  0.74546  0.72954  Biso   1.000  W
  W36      1.0000 0.78333  0.74546  0.77046  Biso   1.000  W
  W37      1.0000 0.28333  0.75454  0.27046  Biso   1.000  W
  W38      1.0000 0.71667  0.75454  0.22954  Biso   1.000  W
  W39      1.0000 0.78333  0.25454  0.27046  Biso   1.000  W
  W40      1.0000 0.21667  0.25454  0.22954  Biso   1.000  W
  W41      1.0000 0.61360  0.21192  0.81845  Biso   1.000  W
  W42      1.0000 0.38640  0.21192  0.68155  Biso   1.000  W
  W43      1.0000 0.11360  0.71192  0.81845  Biso   1.000  W
  W44      1.0000 0.88640  0.71192  0.68155  Biso   1.000  W
  W45      1.0000 0.38640  0.78808  0.18155  Biso   1.000  W
  W46      1.0000 0.61360  0.78808  0.31845  Biso   1.000  W
  W47      1.0000 0.88640  0.28808  0.18155  Biso   1.000  W
  W48      1.0000 0.11360  0.28808  0.31845  Biso   1.000  W
  N1       1.0000 0.08120  0.14530  0.84890  Biso   1.000  N
  N2       1.0000 0.91880  0.14530  0.65110  Biso   1.000  N
  N3       1.0000 0.58120  0.64530  0.84890  Biso   1.000  N
  N4       1.0000 0.41880  0.64530  0.65110  Biso   1.000  N
  N5       1.0000 0.91880  0.85470  0.15110  Biso   1.000  N
  N6       1.0000 0.08120  0.85470  0.34890  Biso   1.000  N
  N7       1.0000 0.41880  0.35470  0.15110  Biso   1.000  N
  N8       1.0000 0.58120  0.35470  0.34890  Biso   1.000  N
  N9       1.0000 0.02070  0.15100  0.62740  Biso   1.000  N
  N10      1.0000 0.97930  0.15100  0.87260  Biso   1.000  N
  N11      1.0000 0.52070  0.65100  0.62740  Biso   1.000  N
  N12      1.0000 0.47930  0.65100  0.87260  Biso   1.000  N
  N13      1.0000 0.97930  0.84900  0.37260  Biso   1.000  N
  N14      1.0000 0.02070  0.84900  0.12740  Biso   1.000  N
  N15      1.0000 0.47930  0.34900  0.37260  Biso   1.000  N
  N16      1.0000 0.52070  0.34900  0.12740  Biso   1.000  N
  N17      1.0000 0.39780  0.92760  0.41800  Biso   1.000  N
  N18      1.0000 0.60220  0.92760  0.08200  Biso   1.000  N
  N19      1.0000 0.89780  0.42760  0.41800  Biso   1.000  N
  N20      1.0000 0.10220  0.42760  0.08200  Biso   1.000  N
  N21      1.0000 0.60220  0.07240  0.58200  Biso   1.000  N
  N22      1.0000 0.39780  0.07240  0.91800  Biso   1.000  N
  N23      1.0000 0.10220  0.57240  0.58200  Biso   1.000  N
  N24      1.0000 0.89780  0.57240  0.91800  Biso   1.000  N
  H1       1.0000 0.41470  0.89900  0.46900  Biso   1.000  H
  H2       1.0000 0.58530  0.89900  0.03100  Biso   1.000  H
  H3       1.0000 0.91470  0.39900  0.46900  Biso   1.000  H
  H4       1.0000 0.08530  0.39900  0.03100  Biso   1.000  H
  H5       1.0000 0.58530  0.10100  0.53100  Biso   1.000  H
  H6       1.0000 0.41470  0.10100  0.96900  Biso   1.000  H
  H7       1.0000 0.08530  0.60100  0.53100  Biso   1.000  H
  H8       1.0000 0.91470  0.60100  0.96900  Biso   1.000  H
  N25      1.0000 0.29230  0.14210  0.07040  Biso   1.000  N
  N26      1.0000 0.70770  0.14210  0.42960  Biso   1.000  N
  N27      1.0000 0.79230  0.64210  0.07040  Biso   1.000  N
  N28      1.0000 0.20770  0.64210  0.42960  Biso   1.000  N
  N29      1.0000 0.70770  0.85790  0.92960  Biso   1.000  N
  N30      1.0000 0.29230  0.85790  0.57040  Biso   1.000  N
  N31      1.0000 0.20770  0.35790  0.92960  Biso   1.000  N
  N32      1.0000 0.79230  0.35790  0.57040  Biso   1.000  N
  N33      1.0000 0.33560  0.11550  0.15120  Biso   1.000  N
  N34      1.0000 0.66440  0.11550  0.34880  Biso   1.000  N
  N35      1.0000 0.83560  0.61550  0.15120  Biso   1.000  N
  N36      1.0000 0.16440  0.61550  0.34880  Biso   1.000  N
  N37      1.0000 0.66440  0.88450  0.84880  Biso   1.000  N
  N38      1.0000 0.33560  0.88450  0.65120  Biso   1.000  N
  N39      1.0000 0.16440  0.38450  0.84880  Biso   1.000  N
  N40      1.0000 0.83560  0.38450  0.65120  Biso   1.000  N
  N41      1.0000 0.00670  0.02560  0.30570  Biso   1.000  N
  N42      1.0000 0.99330  0.02560  0.19430  Biso   1.000  N
  N43      1.0000 0.50670  0.52560  0.30570  Biso   1.000  N
  N44      1.0000 0.49330  0.52560  0.19430  Biso   1.000  N
  N45      1.0000 0.99330  0.97440  0.69430  Biso   1.000  N
  N46      1.0000 0.00670  0.97440  0.80570  Biso   1.000  N
  N47      1.0000 0.49330  0.47440  0.69430  Biso   1.000  N
  N48      1.0000 0.50670  0.47440  0.80570  Biso   1.000  N
  C1       1.0000 0.17600  0.17260  0.91270  Biso   1.000  C
  C2       1.0000 0.82400  0.17260  0.58730  Biso   1.000  C
  C3       1.0000 0.67600  0.67260  0.91270  Biso   1.000  C
  C4       1.0000 0.32400  0.67260  0.58730  Biso   1.000  C
  C5       1.0000 0.82400  0.82740  0.08730  Biso   1.000  C
  C6       1.0000 0.17600  0.82740  0.41270  Biso   1.000  C
  C7       1.0000 0.32400  0.32740  0.08730  Biso   1.000  C
  C8       1.0000 0.67600  0.32740  0.41270  Biso   1.000  C
  H9       1.0000 0.20370  0.19980  0.90650  Biso   1.000  H
  H10      1.0000 0.79630  0.19980  0.59350  Biso   1.000  H
  H11      1.0000 0.70370  0.69980  0.90650  Biso   1.000  H
  H12      1.0000 0.29630  0.69980  0.59350  Biso   1.000  H
  H13      1.0000 0.79630  0.80020  0.09350  Biso   1.000  H
  H14      1.0000 0.20370  0.80020  0.40650  Biso   1.000  H
  H15      1.0000 0.29630  0.30020  0.09350  Biso   1.000  H
  H16      1.0000 0.70370  0.30020  0.40650  Biso   1.000  H
  C9       1.0000 0.12270  0.17970  0.84570  Biso   1.000  C
  C10      1.0000 0.87730  0.17970  0.65430  Biso   1.000  C
  C11      1.0000 0.62270  0.67970  0.84570  Biso   1.000  C
  C12      1.0000 0.37730  0.67970  0.65430  Biso   1.000  C
  C13      1.0000 0.87730  0.82030  0.15430  Biso   1.000  C
  C14      1.0000 0.12270  0.82030  0.34570  Biso   1.000  C
  C15      1.0000 0.37730  0.32030  0.15430  Biso   1.000  C
  C16      1.0000 0.62270  0.32030  0.34570  Biso   1.000  C
  H17      1.0000 0.11410  0.21180  0.79180  Biso   1.000  H
  H18      1.0000 0.88590  0.21180  0.70820  Biso   1.000  H
  H19      1.0000 0.61410  0.71180  0.79180  Biso   1.000  H
  H20      1.0000 0.38590  0.71180  0.70820  Biso   1.000  H
  H21      1.0000 0.88590  0.78820  0.20820  Biso   1.000  H
  H22      1.0000 0.11410  0.78820  0.29180  Biso   1.000  H
  H23      1.0000 0.38590  0.28820  0.20820  Biso   1.000  H
  H24      1.0000 0.61410  0.28820  0.29180  Biso   1.000  H
  C17      1.0000 0.09620  0.09720  0.92630  Biso   1.000  C
  C18      1.0000 0.90380  0.09720  0.57370  Biso   1.000  C
  C19      1.0000 0.59620  0.59720  0.92630  Biso   1.000  C
  C20      1.0000 0.40380  0.59720  0.57370  Biso   1.000  C
  C21      1.0000 0.90380  0.90280  0.07370  Biso   1.000  C
  C22      1.0000 0.09620  0.90280  0.42630  Biso   1.000  C
  C23      1.0000 0.40380  0.40280  0.07370  Biso   1.000  C
  C24      1.0000 0.59620  0.40280  0.42630  Biso   1.000  C
  H25      1.0000 0.06770  0.07000  0.92900  Biso   1.000  H
  H26      1.0000 0.93230  0.07000  0.57100  Biso   1.000  H
  H27      1.0000 0.56770  0.57000  0.92900  Biso   1.000  H
  H28      1.0000 0.43230  0.57000  0.57100  Biso   1.000  H
  H29      1.0000 0.93230  0.93000  0.07100  Biso   1.000  H
  H30      1.0000 0.06770  0.93000  0.42900  Biso   1.000  H
  H31      1.0000 0.43230  0.43000  0.07100  Biso   1.000  H
  H32      1.0000 0.56770  0.43000  0.42900  Biso   1.000  H
  C25      1.0000 0.14740  0.08670  0.99620  Biso   1.000  C
  C26      1.0000 0.85260  0.08670  0.50380  Biso   1.000  C
  C27      1.0000 0.64740  0.58670  0.99620  Biso   1.000  C
  C28      1.0000 0.35260  0.58670  0.50380  Biso   1.000  C
  C29      1.0000 0.85260  0.91330  0.00380  Biso   1.000  C
  C30      1.0000 0.14740  0.91330  0.49620  Biso   1.000  C
  C31      1.0000 0.35260  0.41330  0.00380  Biso   1.000  C
  C32      1.0000 0.64740  0.41330  0.49620  Biso   1.000  C
  H33      1.0000 0.15460  0.05370  0.04850  Biso   1.000  H
  H34      1.0000 0.84540  0.05370  0.45150  Biso   1.000  H
  H35      1.0000 0.65460  0.55370  0.04850  Biso   1.000  H
  H36      1.0000 0.34540  0.55370  0.45150  Biso   1.000  H
  H37      1.0000 0.84540  0.94630  0.95150  Biso   1.000  H
  H38      1.0000 0.15460  0.94630  0.54850  Biso   1.000  H
  H39      1.0000 0.34540  0.44630  0.95150  Biso   1.000  H
  H40      1.0000 0.65460  0.44630  0.54850  Biso   1.000  H
  C33      1.0000 0.19120  0.12370  0.99400  Biso   1.000  C
  C34      1.0000 0.80880  0.12370  0.50600  Biso   1.000  C
  C35      1.0000 0.69120  0.62370  0.99400  Biso   1.000  C
  C36      1.0000 0.30880  0.62370  0.50600  Biso   1.000  C
  C37      1.0000 0.80880  0.87630  0.00600  Biso   1.000  C
  C38      1.0000 0.19120  0.87630  0.49400  Biso   1.000  C
  C39      1.0000 0.30880  0.37630  0.00600  Biso   1.000  C
  C40      1.0000 0.69120  0.37630  0.49400  Biso   1.000  C
  C41      1.0000 0.24610  0.11560  0.06070  Biso   1.000  C
  C42      1.0000 0.75390  0.11560  0.43930  Biso   1.000  C
  C43      1.0000 0.74610  0.61560  0.06070  Biso   1.000  C
  C44      1.0000 0.25390  0.61560  0.43930  Biso   1.000  C
  C45      1.0000 0.75390  0.88440  0.93930  Biso   1.000  C
  C46      1.0000 0.24610  0.88440  0.56070  Biso   1.000  C
  C47      1.0000 0.25390  0.38440  0.93930  Biso   1.000  C
  C48      1.0000 0.74610  0.38440  0.56070  Biso   1.000  C
  C49      1.0000 0.31440  0.07140  0.19590  Biso   1.000  C
  C50      1.0000 0.68560  0.07140  0.30410  Biso   1.000  C
  C51      1.0000 0.81440  0.57140  0.19590  Biso   1.000  C
  C52      1.0000 0.18560  0.57140  0.30410  Biso   1.000  C
  C53      1.0000 0.68560  0.92860  0.80410  Biso   1.000  C
  C54      1.0000 0.31440  0.92860  0.69590  Biso   1.000  C
  C55      1.0000 0.18560  0.42860  0.80410  Biso   1.000  C
  C56      1.0000 0.81440  0.42860  0.69590  Biso   1.000  C
  C57      1.0000 0.34390  0.02400  0.27490  Biso   1.000  C
  C58      1.0000 0.65610  0.02400  0.22510  Biso   1.000  C
  C59      1.0000 0.84390  0.52400  0.27490  Biso   1.000  C
  C60      1.0000 0.15610  0.52400  0.22510  Biso   1.000  C
  C61      1.0000 0.65610  0.97600  0.72510  Biso   1.000  C
  C62      1.0000 0.34390  0.97600  0.77490  Biso   1.000  C
  C63      1.0000 0.15610  0.47600  0.72510  Biso   1.000  C
  C64      1.0000 0.84390  0.47600  0.77490  Biso   1.000  C
  C65      1.0000 0.31390  0.98110  0.30800  Biso   1.000  C
  C66      1.0000 0.68610  0.98110  0.19200  Biso   1.000  C
  C67      1.0000 0.81390  0.48110  0.30800  Biso   1.000  C
  C68      1.0000 0.18610  0.48110  0.19200  Biso   1.000  C
  C69      1.0000 0.68610  0.01890  0.69200  Biso   1.000  C
  C70      1.0000 0.31390  0.01890  0.80800  Biso   1.000  C
  C71      1.0000 0.18610  0.51890  0.69200  Biso   1.000  C
  C72      1.0000 0.81390  0.51890  0.80800  Biso   1.000  C
  H41      1.0000 0.27480  0.98470  0.28360  Biso   1.000  H
  H42      1.0000 0.72520  0.98470  0.21640  Biso   1.000  H
  H43      1.0000 0.77480  0.48470  0.28360  Biso   1.000  H
  H44      1.0000 0.22520  0.48470  0.21640  Biso   1.000  H
  H45      1.0000 0.72520  0.01530  0.71640  Biso   1.000  H
  H46      1.0000 0.27480  0.01530  0.78360  Biso   1.000  H
  H47      1.0000 0.22520  0.51530  0.71640  Biso   1.000  H
  H48      1.0000 0.77480  0.51530  0.78360  Biso   1.000  H
  C73      1.0000 0.34290  0.93420  0.37600  Biso   1.000  C
  C74      1.0000 0.65710  0.93420  0.12400  Biso   1.000  C
  C75      1.0000 0.84290  0.43420  0.37600  Biso   1.000  C
  C76      1.0000 0.15710  0.43420  0.12400  Biso   1.000  C
  C77      1.0000 0.65710  0.06580  0.62400  Biso   1.000  C
  C78      1.0000 0.34290  0.06580  0.87600  Biso   1.000  C
  C79      1.0000 0.15710  0.56580  0.62400  Biso   1.000  C
  C80      1.0000 0.84290  0.56580  0.87600  Biso   1.000  C
  H49      1.0000 0.32250  0.90290  0.39590  Biso   1.000  H
  H50      1.0000 0.67750  0.90290  0.10410  Biso   1.000  H
  H51      1.0000 0.82250  0.40290  0.39590  Biso   1.000  H
  H52      1.0000 0.17750  0.40290  0.10410  Biso   1.000  H
  H53      1.0000 0.67750  0.09710  0.60410  Biso   1.000  H
  H54      1.0000 0.32250  0.09710  0.89590  Biso   1.000  H
  H55      1.0000 0.17750  0.59710  0.60410  Biso   1.000  H
  H56      1.0000 0.82250  0.59710  0.89590  Biso   1.000  H
  C81      1.0000 0.42900  0.96900  0.37800  Biso   1.000  C
  C82      1.0000 0.57100  0.96900  0.12200  Biso   1.000  C
  C83      1.0000 0.92900  0.46900  0.37800  Biso   1.000  C
  C84      1.0000 0.07100  0.46900  0.12200  Biso   1.000  C
  C85      1.0000 0.57100  0.03100  0.62200  Biso   1.000  C
  C86      1.0000 0.42900  0.03100  0.87800  Biso   1.000  C
  C87      1.0000 0.07100  0.53100  0.62200  Biso   1.000  C
  C88      1.0000 0.92900  0.53100  0.87800  Biso   1.000  C
  H57      1.0000 0.46650  0.96120  0.39170  Biso   1.000  H
  H58      1.0000 0.53350  0.96120  0.10830  Biso   1.000  H
  H59      1.0000 0.96650  0.46120  0.39170  Biso   1.000  H
  H60      1.0000 0.03350  0.46120  0.10830  Biso   1.000  H
  H61      1.0000 0.53350  0.03880  0.60830  Biso   1.000  H
  H62      1.0000 0.46650  0.03880  0.89170  Biso   1.000  H
  H63      1.0000 0.03350  0.53880  0.60830  Biso   1.000  H
  H64      1.0000 0.96650  0.53880  0.89170  Biso   1.000  H
  C89      1.0000 0.40080  0.01950  0.32100  Biso   1.000  C
  C90      1.0000 0.59920  0.01950  0.17900  Biso   1.000  C
  C91      1.0000 0.90080  0.51950  0.32100  Biso   1.000  C
  C92      1.0000 0.09920  0.51950  0.17900  Biso   1.000  C
  C93      1.0000 0.59920  0.98050  0.67900  Biso   1.000  C
  C94      1.0000 0.40080  0.98050  0.82100  Biso   1.000  C
  C95      1.0000 0.09920  0.48050  0.67900  Biso   1.000  C
  C96      1.0000 0.90080  0.48050  0.82100  Biso   1.000  C
  H65      1.0000 0.42140  0.05520  0.31150  Biso   1.000  H
  H66      1.0000 0.57860  0.05520  0.18850  Biso   1.000  H
  H67      1.0000 0.92140  0.55520  0.31150  Biso   1.000  H
  H68      1.0000 0.07860  0.55520  0.18850  Biso   1.000  H
  H69      1.0000 0.57860  0.94480  0.68850  Biso   1.000  H
  H70      1.0000 0.42140  0.94480  0.81150  Biso   1.000  H
  H71      1.0000 0.07860  0.44480  0.68850  Biso   1.000  H
  H72      1.0000 0.92140  0.44480  0.81150  Biso   1.000  H
  C97      1.0000 0.99900  0.17430  0.44800  Biso   1.000  C
  C98      1.0000 0.00100  0.17430  0.05200  Biso   1.000  C
  C99      1.0000 0.49900  0.67430  0.44800  Biso   1.000  C
  C100     1.0000 0.50100  0.67430  0.05200  Biso   1.000  C
  C101     1.0000 0.00100  0.82570  0.55200  Biso   1.000  C
  C102     1.0000 0.99900  0.82570  0.94800  Biso   1.000  C
  C103     1.0000 0.50100  0.32570  0.55200  Biso   1.000  C
  C104     1.0000 0.49900  0.32570  0.94800  Biso   1.000  C
  H73      1.0000 0.98480  0.20490  0.39120  Biso   1.000  H
  H74      1.0000 0.01520  0.20490  0.10880  Biso   1.000  H
  H75      1.0000 0.48480  0.70490  0.39120  Biso   1.000  H
  H76      1.0000 0.51520  0.70490  0.10880  Biso   1.000  H
  H77      1.0000 0.01520  0.79510  0.60880  Biso   1.000  H
  H78      1.0000 0.98480  0.79510  0.89120  Biso   1.000  H
  H79      1.0000 0.51520  0.29510  0.60880  Biso   1.000  H
  H80      1.0000 0.48480  0.29510  0.89120  Biso   1.000  H
  C105     1.0000 0.00050  0.19000  0.54430  Biso   1.000  C
  C106     1.0000 0.99950  0.19000  0.95570  Biso   1.000  C
  C107     1.0000 0.50050  0.69000  0.54430  Biso   1.000  C
  C108     1.0000 0.49950  0.69000  0.95570  Biso   1.000  C
  C109     1.0000 0.99950  0.81000  0.45570  Biso   1.000  C
  C110     1.0000 0.00050  0.81000  0.04430  Biso   1.000  C
  C111     1.0000 0.49950  0.31000  0.45570  Biso   1.000  C
  C112     1.0000 0.50050  0.31000  0.04430  Biso   1.000  C
  H81      1.0000 0.98610  0.23160  0.55180  Biso   1.000  H
  H82      1.0000 0.01390  0.23160  0.94820  Biso   1.000  H
  H83      1.0000 0.48610  0.73160  0.55180  Biso   1.000  H
  H84      1.0000 0.51390  0.73160  0.94820  Biso   1.000  H
  H85      1.0000 0.01390  0.76840  0.44820  Biso   1.000  H
  H86      1.0000 0.98610  0.76840  0.05180  Biso   1.000  H
  H87      1.0000 0.51390  0.26840  0.44820  Biso   1.000  H
  H88      1.0000 0.48610  0.26840  0.05180  Biso   1.000  H
  C113     1.0000 0.04460  0.09390  0.61790  Biso   1.000  C
  C114     1.0000 0.95540  0.09390  0.88210  Biso   1.000  C
  C115     1.0000 0.54460  0.59390  0.61790  Biso   1.000  C
  C116     1.0000 0.45540  0.59390  0.88210  Biso   1.000  C
  C117     1.0000 0.95540  0.90610  0.38210  Biso   1.000  C
  C118     1.0000 0.04460  0.90610  0.11790  Biso   1.000  C
  C119     1.0000 0.45540  0.40610  0.38210  Biso   1.000  C
  C120     1.0000 0.54460  0.40610  0.11790  Biso   1.000  C
  H89      1.0000 0.06300  0.06780  0.67920  Biso   1.000  H
  H90      1.0000 0.93700  0.06780  0.82080  Biso   1.000  H
  H91      1.0000 0.56300  0.56780  0.67920  Biso   1.000  H
  H92      1.0000 0.43700  0.56780  0.82080  Biso   1.000  H
  H93      1.0000 0.93700  0.93220  0.32080  Biso   1.000  H
  H94      1.0000 0.06300  0.93220  0.17920  Biso   1.000  H
  H95      1.0000 0.43700  0.43220  0.32080  Biso   1.000  H
  H96      1.0000 0.56300  0.43220  0.17920  Biso   1.000  H
  C121     1.0000 0.04380  0.07090  0.52250  Biso   1.000  C
  C122     1.0000 0.95620  0.07090  0.97750  Biso   1.000  C
  C123     1.0000 0.54380  0.57090  0.52250  Biso   1.000  C
  C124     1.0000 0.45620  0.57090  0.97750  Biso   1.000  C
  C125     1.0000 0.95620  0.92910  0.47750  Biso   1.000  C
  C126     1.0000 0.04380  0.92910  0.02250  Biso   1.000  C
  C127     1.0000 0.45620  0.42910  0.47750  Biso   1.000  C
  C128     1.0000 0.54380  0.42910  0.02250  Biso   1.000  C
  H97      1.0000 0.05930  0.02950  0.51770  Biso   1.000  H
  H98      1.0000 0.94070  0.02950  0.98230  Biso   1.000  H
  H99      1.0000 0.55930  0.52950  0.51770  Biso   1.000  H
  H100     1.0000 0.44070  0.52950  0.98230  Biso   1.000  H
  H101     1.0000 0.94070  0.97050  0.48230  Biso   1.000  H
  H102     1.0000 0.05930  0.97050  0.01770  Biso   1.000  H
  H103     1.0000 0.44070  0.47050  0.48230  Biso   1.000  H
  H104     1.0000 0.55930  0.47050  0.01770  Biso   1.000  H
  C129     1.0000 0.01870  0.11290  0.43390  Biso   1.000  C
  C130     1.0000 0.98130  0.11290  0.06610  Biso   1.000  C
  C131     1.0000 0.51870  0.61290  0.43390  Biso   1.000  C
  C132     1.0000 0.48130  0.61290  0.06610  Biso   1.000  C
  C133     1.0000 0.98130  0.88710  0.56610  Biso   1.000  C
  C134     1.0000 0.01870  0.88710  0.93390  Biso   1.000  C
  C135     1.0000 0.48130  0.38710  0.56610  Biso   1.000  C
  C136     1.0000 0.51870  0.38710  0.93390  Biso   1.000  C
  C137     1.0000 0.01060  0.08940  0.33090  Biso   1.000  C
  C138     1.0000 0.98940  0.08940  0.16910  Biso   1.000  C
  C139     1.0000 0.51060  0.58940  0.33090  Biso   1.000  C
  C140     1.0000 0.48940  0.58940  0.16910  Biso   1.000  C
  C141     1.0000 0.98940  0.91060  0.66910  Biso   1.000  C
  C142     1.0000 0.01060  0.91060  0.83090  Biso   1.000  C
  C143     1.0000 0.48940  0.41060  0.66910  Biso   1.000  C
  C144     1.0000 0.51060  0.41060  0.83090  Biso   1.000  C
  O1       1.0000 0.77010  0.17210  0.02000  Biso   1.000  O
  O2       1.0000 0.22990  0.17210  0.48000  Biso   1.000  O
  O3       1.0000 0.27010  0.67210  0.02000  Biso   1.000  O
  O4       1.0000 0.72990  0.67210  0.48000  Biso   1.000  O
  O5       1.0000 0.22990  0.82790  0.98000  Biso   1.000  O
  O6       1.0000 0.77010  0.82790  0.52000  Biso   1.000  O
  O7       1.0000 0.72990  0.32790  0.98000  Biso   1.000  O
  O8       1.0000 0.27010  0.32790  0.52000  Biso   1.000  O
  O9       1.0000 0.59270  0.17600  0.43100  Biso   1.000  O
  O10      1.0000 0.40730  0.17600  0.06900  Biso   1.000  O
  O11      1.0000 0.09270  0.67600  0.43100  Biso   1.000  O
  O12      1.0000 0.90730  0.67600  0.06900  Biso   1.000  O
  O13      1.0000 0.40730  0.82400  0.56900  Biso   1.000  O
  O14      1.0000 0.59270  0.82400  0.93100  Biso   1.000  O
  O15      1.0000 0.90730  0.32400  0.56900  Biso   1.000  O
  O16      1.0000 0.09270  0.32400  0.93100  Biso   1.000  O
  O17      1.0000 0.70420  0.26590  0.89000  Biso   1.000  O
  O18      1.0000 0.29580  0.26590  0.61000  Biso   1.000  O
  O19      1.0000 0.20420  0.76590  0.89000  Biso   1.000  O
  O20      1.0000 0.79580  0.76590  0.61000  Biso   1.000  O
  O21      1.0000 0.29580  0.73410  0.11000  Biso   1.000  O
  O22      1.0000 0.70420  0.73410  0.39000  Biso   1.000  O
  O23      1.0000 0.79580  0.23410  0.11000  Biso   1.000  O
  O24      1.0000 0.20420  0.23410  0.39000  Biso   1.000  O
  O25      1.0000 0.50300  0.14200  0.98900  Biso   1.000  O
  O26      1.0000 0.49700  0.14200  0.51100  Biso   1.000  O
  O27      1.0000 0.00300  0.64200  0.98900  Biso   1.000  O
  O28      1.0000 0.99700  0.64200  0.51100  Biso   1.000  O
  O29      1.0000 0.49700  0.85800  0.01100  Biso   1.000  O
  O30      1.0000 0.50300  0.85800  0.48900  Biso   1.000  O
  O31      1.0000 0.99700  0.35800  0.01100  Biso   1.000  O
  O32      1.0000 0.00300  0.35800  0.48900  Biso   1.000  O
  O33      1.0000 0.80590  0.29470  0.02600  Biso   1.000  O
  O34      1.0000 0.19410  0.29470  0.47400  Biso   1.000  O
  O35      1.0000 0.30590  0.79470  0.02600  Biso   1.000  O
  O36      1.0000 0.69410  0.79470  0.47400  Biso   1.000  O
  O37      1.0000 0.19410  0.70530  0.97400  Biso   1.000  O
  O38      1.0000 0.80590  0.70530  0.52600  Biso   1.000  O
  O39      1.0000 0.69410  0.20530  0.97400  Biso   1.000  O
  O40      1.0000 0.30590  0.20530  0.52600  Biso   1.000  O
  O41      1.0000 0.72770  0.26880  0.09100  Biso   1.000  O
  O42      1.0000 0.27230  0.26880  0.40900  Biso   1.000  O
  O43      1.0000 0.22770  0.76880  0.09100  Biso   1.000  O
  O44      1.0000 0.77230  0.76880  0.40900  Biso   1.000  O
  O45      1.0000 0.27230  0.73120  0.90900  Biso   1.000  O
  O46      1.0000 0.72770  0.73120  0.59100  Biso   1.000  O
  O47      1.0000 0.77230  0.23120  0.90900  Biso   1.000  O
  O48      1.0000 0.22770  0.23120  0.59100  Biso   1.000  O
  O49      1.0000 0.76670  0.08370  0.10880  Biso   1.000  O
  O50      1.0000 0.23330  0.08370  0.39120  Biso   1.000  O
  O51      1.0000 0.26670  0.58370  0.10880  Biso   1.000  O
  O52      1.0000 0.73330  0.58370  0.39120  Biso   1.000  O
  O53      1.0000 0.23330  0.91630  0.89120  Biso   1.000  O
  O54      1.0000 0.76670  0.91630  0.60880  Biso   1.000  O
  O55      1.0000 0.73330  0.41630  0.89120  Biso   1.000  O
  O56      1.0000 0.26670  0.41630  0.60880  Biso   1.000  O
  O57      1.0000 0.80970  0.16940  0.25860  Biso   1.000  O
  O58      1.0000 0.19030  0.16940  0.24140  Biso   1.000  O
  O59      1.0000 0.30970  0.66940  0.25860  Biso   1.000  O
  O60      1.0000 0.69030  0.66940  0.24140  Biso   1.000  O
  O61      1.0000 0.19030  0.83060  0.74140  Biso   1.000  O
  O62      1.0000 0.80970  0.83060  0.75860  Biso   1.000  O
  O63      1.0000 0.69030  0.33060  0.74140  Biso   1.000  O
  O64      1.0000 0.30970  0.33060  0.75860  Biso   1.000  O
  O65      1.0000 0.88520  0.19530  0.19130  Biso   1.000  O
  O66      1.0000 0.11480  0.19530  0.30870  Biso   1.000  O
  O67      1.0000 0.38520  0.69530  0.19130  Biso   1.000  O
  O68      1.0000 0.61480  0.69530  0.30870  Biso   1.000  O
  O69      1.0000 0.11480  0.80470  0.80870  Biso   1.000  O
  O70      1.0000 0.88520  0.80470  0.69130  Biso   1.000  O
  O71      1.0000 0.61480  0.30470  0.80870  Biso   1.000  O
  O72      1.0000 0.38520  0.30470  0.69130  Biso   1.000  O
  O73      1.0000 0.84420  0.10830  0.04350  Biso   1.000  O
  O74      1.0000 0.15580  0.10830  0.45650  Biso   1.000  O
  O75      1.0000 0.34420  0.60830  0.04350  Biso   1.000  O
  O76      1.0000 0.65580  0.60830  0.45650  Biso   1.000  O
  O77      1.0000 0.15580  0.89170  0.95650  Biso   1.000  O
  O78      1.0000 0.84420  0.89170  0.54350  Biso   1.000  O
  O79      1.0000 0.65580  0.39170  0.95650  Biso   1.000  O
  O80      1.0000 0.34420  0.39170  0.54350  Biso   1.000  O
  O81      1.0000 0.85230  0.19230  0.90420  Biso   1.000  O
  O82      1.0000 0.14770  0.19230  0.59580  Biso   1.000  O
  O83      1.0000 0.35230  0.69230  0.90420  Biso   1.000  O
  O84      1.0000 0.64770  0.69230  0.59580  Biso   1.000  O
  O85      1.0000 0.14770  0.80770  0.09580  Biso   1.000  O
  O86      1.0000 0.85230  0.80770  0.40420  Biso   1.000  O
  O87      1.0000 0.64770  0.30770  0.09580  Biso   1.000  O
  O88      1.0000 0.35230  0.30770  0.40420  Biso   1.000  O
  O89      1.0000 0.89970  0.28170  0.06100  Biso   1.000  O
  O90      1.0000 0.10030  0.28170  0.43900  Biso   1.000  O
  O91      1.0000 0.39970  0.78170  0.06100  Biso   1.000  O
  O92      1.0000 0.60030  0.78170  0.43900  Biso   1.000  O
  O93      1.0000 0.10030  0.71830  0.93900  Biso   1.000  O
  O94      1.0000 0.89970  0.71830  0.56100  Biso   1.000  O
  O95      1.0000 0.60030  0.21830  0.93900  Biso   1.000  O
  O96      1.0000 0.39970  0.21830  0.56100  Biso   1.000  O
  O97      1.0000 0.65320  0.20910  0.73100  Biso   1.000  O
  O98      1.0000 0.34680  0.20910  0.76900  Biso   1.000  O
  O99      1.0000 0.15320  0.70910  0.73100  Biso   1.000  O
  O100     1.0000 0.84680  0.70910  0.76900  Biso   1.000  O
  O101     1.0000 0.34680  0.79090  0.26900  Biso   1.000  O
  O102     1.0000 0.65320  0.79090  0.23100  Biso   1.000  O
  O103     1.0000 0.84680  0.29090  0.26900  Biso   1.000  O
  O104     1.0000 0.15320  0.29090  0.23100  Biso   1.000  O
  O105     1.0000 0.78980  0.28650  0.78500  Biso   1.000  O
  O106     1.0000 0.21020  0.28650  0.71500  Biso   1.000  O
  O107     1.0000 0.28980  0.78650  0.78500  Biso   1.000  O
  O108     1.0000 0.71020  0.78650  0.71500  Biso   1.000  O
  O109     1.0000 0.21020  0.71350  0.21500  Biso   1.000  O
  O110     1.0000 0.78980  0.71350  0.28500  Biso   1.000  O
  O111     1.0000 0.71020  0.21350  0.21500  Biso   1.000  O
  O112     1.0000 0.28980  0.21350  0.28500  Biso   1.000  O
  O113     1.0000 0.67100  0.13060  0.07000  Biso   1.000  O
  O114     1.0000 0.32900  0.13060  0.43000  Biso   1.000  O
  O115     1.0000 0.17100  0.63060  0.07000  Biso   1.000  O
  O116     1.0000 0.82900  0.63060  0.43000  Biso   1.000  O
  O117     1.0000 0.32900  0.86940  0.93000  Biso   1.000  O
  O118     1.0000 0.67100  0.86940  0.57000  Biso   1.000  O
  O119     1.0000 0.82900  0.36940  0.93000  Biso   1.000  O
  O120     1.0000 0.17100  0.36940  0.57000  Biso   1.000  O
  O121     1.0000 0.74190  0.08370  0.90580  Biso   1.000  O
  O122     1.0000 0.25810  0.08370  0.59420  Biso   1.000  O
  O123     1.0000 0.24190  0.58370  0.90580  Biso   1.000  O
  O124     1.0000 0.75810  0.58370  0.59420  Biso   1.000  O
  O125     1.0000 0.25810  0.91630  0.09420  Biso   1.000  O
  O126     1.0000 0.74190  0.91630  0.40580  Biso   1.000  O
  O127     1.0000 0.75810  0.41630  0.09420  Biso   1.000  O
  O128     1.0000 0.24190  0.41630  0.40580  Biso   1.000  O
  O129     1.0000 0.75270  0.16240  0.76800  Biso   1.000  O
  O130     1.0000 0.24730  0.16240  0.73200  Biso   1.000  O
  O131     1.0000 0.25270  0.66240  0.76800  Biso   1.000  O
  O132     1.0000 0.74730  0.66240  0.73200  Biso   1.000  O
  O133     1.0000 0.24730  0.83760  0.23200  Biso   1.000  O
  O134     1.0000 0.75270  0.83760  0.26800  Biso   1.000  O
  O135     1.0000 0.74730  0.33760  0.23200  Biso   1.000  O
  O136     1.0000 0.25270  0.33760  0.26800  Biso   1.000  O
  O137     1.0000 0.64540  0.12730  0.86650  Biso   1.000  O
  O138     1.0000 0.35460  0.12730  0.63350  Biso   1.000  O
  O139     1.0000 0.14540  0.62730  0.86650  Biso   1.000  O
  O140     1.0000 0.85460  0.62730  0.63350  Biso   1.000  O
  O141     1.0000 0.35460  0.87270  0.13350  Biso   1.000  O
  O142     1.0000 0.64540  0.87270  0.36650  Biso   1.000  O
  O143     1.0000 0.85460  0.37270  0.13350  Biso   1.000  O
  O144     1.0000 0.14540  0.37270  0.36650  Biso   1.000  O
  O145     1.0000 0.87730  0.06700  0.24730  Biso   1.000  O
  O146     1.0000 0.12270  0.06700  0.25270  Biso   1.000  O
  O147     1.0000 0.37730  0.56700  0.24730  Biso   1.000  O
  O148     1.0000 0.62270  0.56700  0.25270  Biso   1.000  O
  O149     1.0000 0.12270  0.93300  0.75270  Biso   1.000  O
  O150     1.0000 0.87730  0.93300  0.74730  Biso   1.000  O
  O151     1.0000 0.62270  0.43300  0.75270  Biso   1.000  O
  O152     1.0000 0.37730  0.43300  0.74730  Biso   1.000  O
  O153     1.0000 0.82930  0.06250  0.84920  Biso   1.000  O
  O154     1.0000 0.17070  0.06250  0.65080  Biso   1.000  O
  O155     1.0000 0.32930  0.56250  0.84920  Biso   1.000  O
  O156     1.0000 0.67070  0.56250  0.65080  Biso   1.000  O
  O157     1.0000 0.17070  0.93750  0.15080  Biso   1.000  O
  O158     1.0000 0.82930  0.93750  0.34920  Biso   1.000  O
  O159     1.0000 0.67070  0.43750  0.15080  Biso   1.000  O
  O160     1.0000 0.32930  0.43750  0.34920  Biso   1.000  O
  O161     1.0000 0.67520  0.01150  0.97280  Biso   1.000  O
  O162     1.0000 0.32480  0.01150  0.52720  Biso   1.000  O
  O163     1.0000 0.17520  0.51150  0.97280  Biso   1.000  O
  O164     1.0000 0.82480  0.51150  0.52720  Biso   1.000  O
  O165     1.0000 0.32480  0.98850  0.02720  Biso   1.000  O
  O166     1.0000 0.67520  0.98850  0.47280  Biso   1.000  O
  O167     1.0000 0.82480  0.48850  0.02720  Biso   1.000  O
  O168     1.0000 0.17520  0.48850  0.47280  Biso   1.000  O
  O169     1.0000 0.90210  0.30040  0.86670  Biso   1.000  O
  O170     1.0000 0.09790  0.30040  0.63330  Biso   1.000  O
  O171     1.0000 0.40210  0.80040  0.86670  Biso   1.000  O
  O172     1.0000 0.59790  0.80040  0.63330  Biso   1.000  O
  O173     1.0000 0.09790  0.69960  0.13330  Biso   1.000  O
  O174     1.0000 0.90210  0.69960  0.36670  Biso   1.000  O
  O175     1.0000 0.59790  0.19960  0.13330  Biso   1.000  O
  O176     1.0000 0.40210  0.19960  0.36670  Biso   1.000  O
  O177     1.0000 0.70290  0.24250  0.60320  Biso   1.000  O
  O178     1.0000 0.29710  0.24250  0.89680  Biso   1.000  O
  O179     1.0000 0.20290  0.74250  0.60320  Biso   1.000  O
  O180     1.0000 0.79710  0.74250  0.89680  Biso   1.000  O
  O181     1.0000 0.29710  0.75750  0.39680  Biso   1.000  O
  O182     1.0000 0.70290  0.75750  0.10320  Biso   1.000  O
  O183     1.0000 0.79710  0.25750  0.39680  Biso   1.000  O
  O184     1.0000 0.20290  0.25750  0.10320  Biso   1.000  O
  O185     1.0000 0.55040  0.19270  0.73120  Biso   1.000  O
  O186     1.0000 0.44960  0.19270  0.76880  Biso   1.000  O
  O187     1.0000 0.05040  0.69270  0.73120  Biso   1.000  O
  O188     1.0000 0.94960  0.69270  0.76880  Biso   1.000  O
  O189     1.0000 0.44960  0.80730  0.26880  Biso   1.000  O
  O190     1.0000 0.55040  0.80730  0.23120  Biso   1.000  O
  O191     1.0000 0.94960  0.30730  0.26880  Biso   1.000  O
  O192     1.0000 0.05040  0.30730  0.23120  Biso   1.000  O
  O193     1.0000 0.25740  0.07010  0.14420  Biso   1.000  O
  O194     1.0000 0.74260  0.07010  0.35580  Biso   1.000  O
  O195     1.0000 0.75740  0.57010  0.14420  Biso   1.000  O
  O196     1.0000 0.24260  0.57010  0.35580  Biso   1.000  O
  O197     1.0000 0.74260  0.92990  0.85580  Biso   1.000  O
  O198     1.0000 0.25740  0.92990  0.64420  Biso   1.000  O
  O199     1.0000 0.24260  0.42990  0.85580  Biso   1.000  O
  O200     1.0000 0.75740  0.42990  0.64420  Biso   1.000  O
  O201     1.0000 0.00000  0.13090  0.25000  Biso   1.000  O
  O202     1.0000 0.50000  0.63090  0.25000  Biso   1.000  O
  O203     1.0000 0.00000  0.86910  0.75000  Biso   1.000  O
  O204     1.0000 0.50000  0.36910  0.75000  Biso   1.000  O
  O205     1.0000 0.00000  0.26790  0.75000  Biso   1.000  O
  O206     1.0000 0.50000  0.76790  0.75000  Biso   1.000  O
  O207     1.0000 0.00000  0.73210  0.25000  Biso   1.000  O
  O208     1.0000 0.50000  0.23210  0.25000  Biso   1.000  O
