data_image0
_cell_length_a       4.88
_cell_length_b       6.652
_cell_length_c       13.502
_cell_angle_alpha    90
_cell_angle_beta     104.499
_cell_angle_gamma    90

_symmetry_space_group_name_H-M    "P 1"
_symmetry_int_tables_number       1

loop_
  _symmetry_equiv_pos_as_xyz
  'x, y, z'

loop_
  _atom_site_label
  _atom_site_occupancy
  _atom_site_fract_x
  _atom_site_fract_y
  _atom_site_fract_z
  _atom_site_thermal_displace_type
  _atom_site_B_iso_or_equiv
  _atom_site_type_symbol
  Cu1      1.0000 0.00000  0.50000  0.50000  Biso   1.000  Cu
  Cu2      1.0000 0.00000  0.00000  0.00000  Biso   1.000  Cu
  O1       1.0000 0.81350  0.25660  0.43938  Biso   1.000  O
  O2       1.0000 0.18650  0.75660  0.06062  Biso   1.000  O
  O3       1.0000 0.18650  0.74340  0.56062  Biso   1.000  O
  O4       1.0000 0.81350  0.24340  0.93938  Biso   1.000  O
  O5       1.0000 0.65940  0.63750  0.42941  Biso   1.000  O
  O6       1.0000 0.34060  0.13750  0.07059  Biso   1.000  O
  O7       1.0000 0.34060  0.36250  0.57059  Biso   1.000  O
  O8       1.0000 0.65940  0.86250  0.92941  Biso   1.000  O
  O9       1.0000 0.22050  0.55910  0.34203  Biso   1.000  O
  O10      1.0000 0.77950  0.05910  0.15797  Biso   1.000  O
  O11      1.0000 0.77950  0.44090  0.65797  Biso   1.000  O
  O12      1.0000 0.22050  0.94090  0.84203  Biso   1.000  O
  O13      1.0000 0.41380  0.16930  0.32553  Biso   1.000  O
  O14      1.0000 0.58620  0.66930  0.17447  Biso   1.000  O
  O15      1.0000 0.58620  0.83070  0.67447  Biso   1.000  O
  O16      1.0000 0.41380  0.33070  0.82553  Biso   1.000  O
  C1       1.0000 0.46910  0.51470  0.38183  Biso   1.000  C
  C2       1.0000 0.53090  0.01470  0.11817  Biso   1.000  C
  C3       1.0000 0.53090  0.48530  0.61817  Biso   1.000  C
  C4       1.0000 0.46910  0.98530  0.88183  Biso   1.000  C
  C5       1.0000 0.56660  0.29280  0.38020  Biso   1.000  C
  C6       1.0000 0.43340  0.79280  0.11980  Biso   1.000  C
  C7       1.0000 0.43340  0.70720  0.61980  Biso   1.000  C
  C8       1.0000 0.56660  0.20720  0.88020  Biso   1.000  C
  K1       1.0000 0.97947  0.92222  0.34875  Biso   1.000  K
  K2       1.0000 0.02053  0.42222  0.15125  Biso   1.000  K
  K3       1.0000 0.02053  0.07778  0.65125  Biso   1.000  K
  K4       1.0000 0.97947  0.57778  0.84875  Biso   1.000  K
