data_image0
_cell_length_a       5.608
_cell_length_b       7.736
_cell_length_c       22.985
_cell_angle_alpha    90
_cell_angle_beta     103.409
_cell_angle_gamma    90

_symmetry_space_group_name_H-M    "P 1"
_symmetry_int_tables_number       1

loop_
  _symmetry_equiv_pos_as_xyz
  'x, y, z'

loop_
  _atom_site_label
  _atom_site_occupancy
  _atom_site_fract_x
  _atom_site_fract_y
  _atom_site_fract_z
  _atom_site_thermal_displace_type
  _atom_site_B_iso_or_equiv
  _atom_site_type_symbol
  Cu1      1.0000 0.00000  0.00000  0.00000  Biso   1.000  Cu
  Cu2      1.0000 0.00000  0.50000  0.50000  Biso   1.000  Cu
  O1       1.0000 0.32410  0.94087  0.05130  Biso   1.000  O
  O2       1.0000 0.67590  0.44087  0.44870  Biso   1.000  O
  O3       1.0000 0.67590  0.05913  0.94870  Biso   1.000  O
  O4       1.0000 0.32410  0.55913  0.55130  Biso   1.000  O
  O5       1.0000 0.72050  0.89750  0.05551  Biso   1.000  O
  O6       1.0000 0.27950  0.39750  0.44449  Biso   1.000  O
  O7       1.0000 0.27950  0.10250  0.94449  Biso   1.000  O
  O8       1.0000 0.72050  0.60250  0.55551  Biso   1.000  O
  N1       1.0000 0.00660  0.23083  0.04239  Biso   1.000  N
  N2       1.0000 0.99340  0.73083  0.45761  Biso   1.000  N
  N3       1.0000 0.99340  0.76917  0.95761  Biso   1.000  N
  N4       1.0000 0.00660  0.26917  0.54239  Biso   1.000  N
  N5       1.0000 0.15330  0.46117  0.09535  Biso   1.000  N
  N6       1.0000 0.84670  0.96117  0.40465  Biso   1.000  N
  N7       1.0000 0.84670  0.53883  0.90465  Biso   1.000  N
  N8       1.0000 0.15330  0.03883  0.59535  Biso   1.000  N
  C1       1.0000 0.82530  0.35570  0.03566  Biso   1.000  C
  C2       1.0000 0.17470  0.85570  0.46434  Biso   1.000  C
  C3       1.0000 0.17470  0.64430  0.96434  Biso   1.000  C
  C4       1.0000 0.82530  0.14430  0.53566  Biso   1.000  C
  H1       1.0000 0.66340  0.34350  0.01190  Biso   1.000  H
  H2       1.0000 0.33660  0.84350  0.48810  Biso   1.000  H
  H3       1.0000 0.33660  0.65650  0.98810  Biso   1.000  H
  H4       1.0000 0.66340  0.15650  0.51190  Biso   1.000  H
  C5       1.0000 0.91330  0.49790  0.06808  Biso   1.000  C
  C6       1.0000 0.08670  0.99790  0.43192  Biso   1.000  C
  C7       1.0000 0.08670  0.50210  0.93192  Biso   1.000  C
  C8       1.0000 0.91330  0.00210  0.56808  Biso   1.000  C
  H5       1.0000 0.82680  0.60180  0.07130  Biso   1.000  H
  H6       1.0000 0.17320  0.10180  0.42870  Biso   1.000  H
  H7       1.0000 0.17320  0.39820  0.92870  Biso   1.000  H
  H8       1.0000 0.82680  0.89820  0.57130  Biso   1.000  H
  C9       1.0000 0.20070  0.30000  0.07888  Biso   1.000  C
  C10      1.0000 0.79930  0.80000  0.42112  Biso   1.000  C
  C11      1.0000 0.79930  0.70000  0.92112  Biso   1.000  C
  C12      1.0000 0.20070  0.20000  0.57888  Biso   1.000  C
  H9       1.0000 0.35410  0.24320  0.09180  Biso   1.000  H
  H10      1.0000 0.64590  0.74320  0.40820  Biso   1.000  H
  H11      1.0000 0.64590  0.75680  0.90820  Biso   1.000  H
  H12      1.0000 0.35410  0.25680  0.59180  Biso   1.000  H
  C13      1.0000 0.32850  0.57870  0.13377  Biso   1.000  C
  C14      1.0000 0.67150  0.07870  0.36623  Biso   1.000  C
  C15      1.0000 0.67150  0.42130  0.86623  Biso   1.000  C
  C16      1.0000 0.32850  0.92130  0.63377  Biso   1.000  C
  H13      1.0000 0.31620  0.69440  0.11480  Biso   1.000  H
  H14      1.0000 0.68380  0.19440  0.38520  Biso   1.000  H
  H15      1.0000 0.68380  0.30560  0.88520  Biso   1.000  H
  H16      1.0000 0.31620  0.80560  0.61480  Biso   1.000  H
  H17      1.0000 0.49700  0.53540  0.13680  Biso   1.000  H
  H18      1.0000 0.50300  0.03540  0.36320  Biso   1.000  H
  H19      1.0000 0.50300  0.46460  0.86320  Biso   1.000  H
  H20      1.0000 0.49700  0.96460  0.63680  Biso   1.000  H
  C17      1.0000 0.28480  0.59590  0.19569  Biso   1.000  C
  C18      1.0000 0.71520  0.09590  0.30431  Biso   1.000  C
  C19      1.0000 0.71520  0.40410  0.80431  Biso   1.000  C
  C20      1.0000 0.28480  0.90410  0.69569  Biso   1.000  C
  C21      1.0000 0.08540  0.68930  0.20552  Biso   1.000  C
  C22      1.0000 0.91460  0.18930  0.29448  Biso   1.000  C
  C23      1.0000 0.91460  0.31070  0.79448  Biso   1.000  C
  C24      1.0000 0.08540  0.81070  0.70552  Biso   1.000  C
  H21      1.0000 0.97730  0.74510  0.17300  Biso   1.000  H
  H22      1.0000 0.02270  0.24510  0.32700  Biso   1.000  H
  H23      1.0000 0.02270  0.25490  0.82700  Biso   1.000  H
  H24      1.0000 0.97730  0.75490  0.67300  Biso   1.000  H
  C25      1.0000 0.04400  0.70140  0.26273  Biso   1.000  C
  C26      1.0000 0.95600  0.20140  0.23727  Biso   1.000  C
  C27      1.0000 0.95600  0.29860  0.73727  Biso   1.000  C
  C28      1.0000 0.04400  0.79860  0.76273  Biso   1.000  C
  H25      1.0000 0.90680  0.76430  0.26910  Biso   1.000  H
  H26      1.0000 0.09320  0.26430  0.23090  Biso   1.000  H
  H27      1.0000 0.09320  0.23570  0.73090  Biso   1.000  H
  H28      1.0000 0.90680  0.73570  0.76910  Biso   1.000  H
  C29      1.0000 0.20290  0.62160  0.31060  Biso   1.000  C
  C30      1.0000 0.79710  0.12160  0.18940  Biso   1.000  C
  C31      1.0000 0.79710  0.37840  0.68940  Biso   1.000  C
  C32      1.0000 0.20290  0.87840  0.81060  Biso   1.000  C
  H29      1.0000 0.17370  0.62890  0.34960  Biso   1.000  H
  H30      1.0000 0.82630  0.12890  0.15040  Biso   1.000  H
  H31      1.0000 0.82630  0.37110  0.65040  Biso   1.000  H
  H32      1.0000 0.17370  0.87110  0.84960  Biso   1.000  H
  C33      1.0000 0.40400  0.53140  0.30118  Biso   1.000  C
  C34      1.0000 0.59600  0.03140  0.19882  Biso   1.000  C
  C35      1.0000 0.59600  0.46860  0.69882  Biso   1.000  C
  C36      1.0000 0.40400  0.96860  0.80118  Biso   1.000  C
  H33      1.0000 0.51450  0.47830  0.33390  Biso   1.000  H
  H34      1.0000 0.48550  0.97830  0.16610  Biso   1.000  H
  H35      1.0000 0.48550  0.52170  0.66610  Biso   1.000  H
  H36      1.0000 0.51450  0.02170  0.83390  Biso   1.000  H
  C37      1.0000 0.44430  0.51830  0.24385  Biso   1.000  C
  C38      1.0000 0.55570  0.01830  0.25615  Biso   1.000  C
  C39      1.0000 0.55570  0.48170  0.75615  Biso   1.000  C
  C40      1.0000 0.44430  0.98170  0.74385  Biso   1.000  C
  H37      1.0000 0.58210  0.45580  0.23760  Biso   1.000  H
  H38      1.0000 0.41790  0.95580  0.26240  Biso   1.000  H
  H39      1.0000 0.41790  0.54420  0.76240  Biso   1.000  H
  H40      1.0000 0.58210  0.04420  0.73760  Biso   1.000  H
  C41      1.0000 0.51550  0.95330  0.03099  Biso   1.000  C
  C42      1.0000 0.48450  0.45330  0.46901  Biso   1.000  C
  C43      1.0000 0.48450  0.04670  0.96901  Biso   1.000  C
  C44      1.0000 0.51550  0.54670  0.53099  Biso   1.000  C
