data_image0
_cell_length_a       5.2572
_cell_length_b       8.8411
_cell_length_c       12.6839
_cell_angle_alpha    83.184
_cell_angle_beta     79.708
_cell_angle_gamma    83.425

_symmetry_space_group_name_H-M    "P 1"
_symmetry_int_tables_number       1

loop_
  _symmetry_equiv_pos_as_xyz
  'x, y, z'

loop_
  _atom_site_label
  _atom_site_occupancy
  _atom_site_fract_x
  _atom_site_fract_y
  _atom_site_fract_z
  _atom_site_thermal_displace_type
  _atom_site_B_iso_or_equiv
  _atom_site_type_symbol
  Cu1      1.0000 0.65134  0.43196  0.64047  Biso   1.000  Cu
  O1       1.0000 0.89320  0.51070  0.74869  Biso   1.000  O
  N1       1.0000 0.48400  0.25230  0.72590  Biso   1.000  N
  C1       1.0000 0.21140  0.29800  0.90000  Biso   1.000  C
  H1       1.0000 0.25040  0.19210  0.92960  Biso   1.000  H
  H2       1.0000 0.03860  0.33740  0.93460  Biso   1.000  H
  H3       1.0000 0.34140  0.36110  0.91370  Biso   1.000  H
  Cu2      1.0000 0.84539  0.95491  0.42618  Biso   1.000  Cu
  O2       1.0000 0.70690  0.61990  0.53274  Biso   1.000  O
  N2       1.0000 0.32310  0.54150  0.68172  Biso   1.000  N
  C2       1.0000 0.21740  0.30350  0.78140  Biso   1.000  C
  H4       1.0000 0.09460  0.23170  0.76870  Biso   1.000  H
  H5       1.0000 0.57800  0.20900  0.77300  Biso   1.000  H
  H6       1.0000 0.47000  0.20200  0.67300  Biso   1.000  H
  O3       1.0000 0.54670  0.86170  0.50810  Biso   1.000  O
  N3       1.0000 0.48960  0.64840  0.91850  Biso   1.000  N
  C3       1.0000 0.13250  0.46310  0.73310  Biso   1.000  C
  H7       1.0000 0.46300  0.60000  0.98350  Biso   1.000  H
  H8       1.0000 0.63200  0.64100  0.87300  Biso   1.000  H
  O4       1.0000 0.07240  0.74120  0.93318  Biso   1.000  O
  N4       1.0000 0.02260  0.78920  0.33310  Biso   1.000  N
  C4       1.0000 0.27500  0.69270  0.62440  Biso   1.000  C
  H9       1.0000 0.14010  0.68700  0.57890  Biso   1.000  H
  H10      1.0000 0.07000  0.71400  0.37900  Biso   1.000  H
  H11      1.0000 0.92900  0.78600  0.28430  Biso   1.000  H
  O5       1.0000 0.58120  0.01030  0.28882  Biso   1.000  O
  N5       1.0000 0.15770  0.04790  0.37441  Biso   1.000  N
  C5       1.0000 0.52960  0.72640  0.54920  Biso   1.000  C
  H12      1.0000 0.76200  0.52200  0.16100  Biso   1.000  H
  H13      1.0000 0.97500  0.60500  0.07240  Biso   1.000  H
  O6       1.0000 0.77200  0.12990  0.51861  Biso   1.000  O
  N6       1.0000 0.91460  0.54650  0.12950  Biso   1.000  N
  C6       1.0000 0.17990  0.82030  0.69740  Biso   1.000  C
  H14      1.0000 0.16320  0.91900  0.65210  Biso   1.000  H
  H15      1.0000 0.00530  0.80150  0.73780  Biso   1.000  H
  O7       1.0000 0.95750  0.32360  0.56141  Biso   1.000  O
  C7       1.0000 0.35890  0.83310  0.77690  Biso   1.000  C
  H16      1.0000 0.53990  0.80290  0.74370  Biso   1.000  H
  H17      1.0000 0.34860  0.94130  0.79160  Biso   1.000  H
  O8       1.0000 0.33750  0.48310  0.13672  Biso   1.000  O
  C8       1.0000 0.29560  0.73580  0.88210  Biso   1.000  C
  H18      1.0000 0.66200  0.13200  0.15250  Biso   1.000  H
  H19      1.0000 0.55500  0.25700  0.08900  Biso   1.000  H
  O9       1.0000 0.68820  0.18870  0.09120  Biso   1.000  O
  C9       1.0000 0.26100  0.87530  0.15250  Biso   1.000  C
  H20      1.0000 0.23550  0.78350  0.12070  Biso   1.000  H
  H21      1.0000 0.42280  0.91570  0.11520  Biso   1.000  H
  H22      1.0000 0.11480  0.95290  0.14490  Biso   1.000  H
  O10      1.0000 0.75390  0.03650  0.89490  Biso   1.000  O
  C10      1.0000 0.27620  0.83470  0.27100  Biso   1.000  C
  H23      1.0000 0.41320  0.74770  0.27860  Biso   1.000  H
  H24      1.0000 0.81000  0.94290  0.90900  Biso   1.000  H
  H25      1.0000 0.71600  0.07900  0.95390  Biso   1.000  H
  C11      1.0000 0.35120  0.97410  0.31540  Biso   1.000  C
  C12      1.0000 0.19720  0.18130  0.42430  Biso   1.000  C
  H26      1.0000 0.35090  0.15630  0.46180  Biso   1.000  H
  C13      1.0000 0.95520  0.21310  0.50800  Biso   1.000  C
  C14      1.0000 0.24340  0.32190  0.34240  Biso   1.000  C
  H27      1.0000 0.25200  0.41130  0.38130  Biso   1.000  H
  H28      1.0000 0.41280  0.30320  0.29500  Biso   1.000  H
  C15      1.0000 0.03220  0.35880  0.27360  Biso   1.000  C
  H29      1.0000 0.87350  0.40420  0.31760  Biso   1.000  H
  H30      1.0000 0.99060  0.26250  0.25070  Biso   1.000  H
  C16      1.0000 0.10750  0.46850  0.17420  Biso   1.000  C
