data_image0
_cell_length_a       6.827
_cell_length_b       14.119
_cell_length_c       11.708
_cell_angle_alpha    90
_cell_angle_beta     91.758
_cell_angle_gamma    90

_symmetry_space_group_name_H-M    "P 1"
_symmetry_int_tables_number       1

loop_
  _symmetry_equiv_pos_as_xyz
  'x, y, z'

loop_
  _atom_site_label
  _atom_site_occupancy
  _atom_site_fract_x
  _atom_site_fract_y
  _atom_site_fract_z
  _atom_site_thermal_displace_type
  _atom_site_B_iso_or_equiv
  _atom_site_type_symbol
  Cu1      1.0000 0.50000  0.50000  0.00000  Biso   1.000  Cu
  Cu2      1.0000 0.50000  0.00000  0.50000  Biso   1.000  Cu
  Cl1      1.0000 0.34920  0.21500  0.22126  Biso   1.000  Cl
  Cl2      1.0000 0.34920  0.28500  0.72126  Biso   1.000  Cl
  Cl3      1.0000 0.65080  0.78500  0.77874  Biso   1.000  Cl
  Cl4      1.0000 0.65080  0.71500  0.27874  Biso   1.000  Cl
  Cl5      1.0000 0.37163  0.10063  0.01895  Biso   1.000  Cl
  Cl6      1.0000 0.37163  0.39937  0.51895  Biso   1.000  Cl
  Cl7      1.0000 0.62837  0.89937  0.98105  Biso   1.000  Cl
  Cl8      1.0000 0.62837  0.60063  0.48105  Biso   1.000  Cl
  Cl9      1.0000 0.05480  0.23440  0.03829  Biso   1.000  Cl
  Cl10     1.0000 0.05480  0.26560  0.53829  Biso   1.000  Cl
  Cl11     1.0000 0.94520  0.76560  0.96171  Biso   1.000  Cl
  Cl12     1.0000 0.94520  0.73440  0.46171  Biso   1.000  Cl
  N1       1.0000 0.68950  0.48182  0.13316  Biso   1.000  N
  N2       1.0000 0.68950  0.01818  0.63316  Biso   1.000  N
  N3       1.0000 0.31050  0.51818  0.86684  Biso   1.000  N
  N4       1.0000 0.31050  0.98182  0.36684  Biso   1.000  N
  O1       1.0000 0.37318  0.37511  0.03534  Biso   1.000  O
  O2       1.0000 0.37318  0.12489  0.53534  Biso   1.000  O
  O3       1.0000 0.62682  0.62489  0.96466  Biso   1.000  O
  O4       1.0000 0.62682  0.87511  0.46466  Biso   1.000  O
  O5       1.0000 0.58580  0.26737  0.97085  Biso   1.000  O
  O6       1.0000 0.58580  0.23263  0.47085  Biso   1.000  O
  O7       1.0000 0.41420  0.73263  0.02915  Biso   1.000  O
  O8       1.0000 0.41420  0.76737  0.52915  Biso   1.000  O
  O9       1.0000 0.26130  0.57438  0.11056  Biso   1.000  O
  O10      1.0000 0.26130  0.92562  0.61056  Biso   1.000  O
  O11      1.0000 0.73870  0.42562  0.88944  Biso   1.000  O
  O12      1.0000 0.73870  0.07438  0.38944  Biso   1.000  O
  C1       1.0000 0.43730  0.29292  0.01854  Biso   1.000  C
  C2       1.0000 0.43730  0.20708  0.51854  Biso   1.000  C
  C3       1.0000 0.56270  0.70708  0.98146  Biso   1.000  C
  C4       1.0000 0.56270  0.79292  0.48146  Biso   1.000  C
  C5       1.0000 0.30610  0.21376  0.07075  Biso   1.000  C
  C6       1.0000 0.30610  0.28624  0.57075  Biso   1.000  C
  C7       1.0000 0.69390  0.78624  0.92925  Biso   1.000  C
  C8       1.0000 0.69390  0.71376  0.42925  Biso   1.000  C
  C9       1.0000 0.86720  0.52340  0.13383  Biso   1.000  C
  C10      1.0000 0.86720  0.97660  0.63383  Biso   1.000  C
  C11      1.0000 0.13280  0.47660  0.86617  Biso   1.000  C
  C12      1.0000 0.13280  0.02340  0.36617  Biso   1.000  C
  C13      1.0000 0.00310  0.51319  0.22386  Biso   1.000  C
  C14      1.0000 0.00310  0.98681  0.72386  Biso   1.000  C
  C15      1.0000 0.99690  0.48681  0.77614  Biso   1.000  C
  C16      1.0000 0.99690  0.01319  0.27614  Biso   1.000  C
  C17      1.0000 0.95580  0.45468  0.31413  Biso   1.000  C
  C18      1.0000 0.95580  0.04532  0.81413  Biso   1.000  C
  C19      1.0000 0.04420  0.54532  0.68587  Biso   1.000  C
  C20      1.0000 0.04420  0.95468  0.18587  Biso   1.000  C
  C21      1.0000 0.77420  0.41081  0.31364  Biso   1.000  C
  C22      1.0000 0.77420  0.08919  0.81364  Biso   1.000  C
  C23      1.0000 0.22580  0.58919  0.68636  Biso   1.000  C
  C24      1.0000 0.22580  0.91081  0.18636  Biso   1.000  C
  C25      1.0000 0.64470  0.42703  0.22309  Biso   1.000  C
  C26      1.0000 0.64470  0.07297  0.72309  Biso   1.000  C
  C27      1.0000 0.35530  0.57297  0.77691  Biso   1.000  C
  C28      1.0000 0.35530  0.92703  0.27691  Biso   1.000  C
  C29      1.0000 0.19350  0.56735  0.22359  Biso   1.000  C
  C30      1.0000 0.19350  0.93265  0.72359  Biso   1.000  C
  C31      1.0000 0.80650  0.43265  0.77641  Biso   1.000  C
  C32      1.0000 0.80650  0.06735  0.27641  Biso   1.000  C
  H1       1.0000 0.89300  0.56180  0.06800  Biso   1.000  H
  H2       1.0000 0.89300  0.93820  0.56800  Biso   1.000  H
  H3       1.0000 0.10700  0.43820  0.93200  Biso   1.000  H
  H4       1.0000 0.10700  0.06180  0.43200  Biso   1.000  H
  H5       1.0000 0.04500  0.44540  0.37600  Biso   1.000  H
  H6       1.0000 0.04500  0.05460  0.87600  Biso   1.000  H
  H7       1.0000 0.95500  0.55460  0.62400  Biso   1.000  H
  H8       1.0000 0.95500  0.94540  0.12400  Biso   1.000  H
  H9       1.0000 0.73500  0.37100  0.37200  Biso   1.000  H
  H10      1.0000 0.73500  0.12900  0.87200  Biso   1.000  H
  H11      1.0000 0.26500  0.62900  0.62800  Biso   1.000  H
  H12      1.0000 0.26500  0.87100  0.12800  Biso   1.000  H
  H13      1.0000 0.51800  0.39750  0.22000  Biso   1.000  H
  H14      1.0000 0.51800  0.10250  0.72000  Biso   1.000  H
  H15      1.0000 0.48200  0.60250  0.78000  Biso   1.000  H
  H16      1.0000 0.48200  0.89750  0.28000  Biso   1.000  H
  H17      1.0000 0.28600  0.53300  0.27200  Biso   1.000  H
  H18      1.0000 0.28600  0.96700  0.77200  Biso   1.000  H
  H19      1.0000 0.71400  0.46700  0.72800  Biso   1.000  H
  H20      1.0000 0.71400  0.03300  0.22800  Biso   1.000  H
  H21      1.0000 0.17800  0.62900  0.25400  Biso   1.000  H
  H22      1.0000 0.17800  0.87100  0.75400  Biso   1.000  H
  H23      1.0000 0.82200  0.37100  0.74600  Biso   1.000  H
  H24      1.0000 0.82200  0.12900  0.24600  Biso   1.000  H
  H25      1.0000 0.29300  0.62500  0.09600  Biso   1.000  H
  H26      1.0000 0.29300  0.87500  0.59600  Biso   1.000  H
  H27      1.0000 0.70700  0.37500  0.90400  Biso   1.000  H
  H28      1.0000 0.70700  0.12500  0.40400  Biso   1.000  H
