data_image0
_cell_length_a       9.2032
_cell_length_b       9.3709
_cell_length_c       12.0704
_cell_angle_alpha    83.024
_cell_angle_beta     83.501
_cell_angle_gamma    87.392

_symmetry_space_group_name_H-M    "P 1"
_symmetry_int_tables_number       1

loop_
  _symmetry_equiv_pos_as_xyz
  'x, y, z'

loop_
  _atom_site_label
  _atom_site_occupancy
  _atom_site_fract_x
  _atom_site_fract_y
  _atom_site_fract_z
  _atom_site_thermal_displace_type
  _atom_site_B_iso_or_equiv
  _atom_site_type_symbol
  Cu1      1.0000 0.50000  0.50000  0.00000  Biso   1.000  Cu
  C1       1.0000 0.66010  0.49980  0.71930  Biso   1.000  C
  C2       1.0000 0.33990  0.50020  0.28070  Biso   1.000  C
  Cu2      1.0000 0.50000  0.00000  0.50000  Biso   1.000  Cu
  O1       1.0000 0.20530  0.70530  0.06120  Biso   1.000  O
  O2       1.0000 0.79470  0.29470  0.93880  Biso   1.000  O
  O3       1.0000 0.32750  0.58450  0.92801  Biso   1.000  O
  O4       1.0000 0.67250  0.41550  0.07199  Biso   1.000  O
  O5       1.0000 0.29040  0.16930  0.67570  Biso   1.000  O
  O6       1.0000 0.70960  0.83070  0.32430  Biso   1.000  O
  C3       1.0000 0.56190  0.71550  0.60830  Biso   1.000  C
  C4       1.0000 0.43810  0.28450  0.39170  Biso   1.000  C
  O7       1.0000 0.59500  0.41910  0.81740  Biso   1.000  O
  O8       1.0000 0.40500  0.58090  0.18260  Biso   1.000  O
  Cl1      1.0000 0.15928  0.84174  0.79218  Biso   1.000  Cl
  Cl2      1.0000 0.84072  0.15826  0.20782  Biso   1.000  Cl
  C5       1.0000 0.22210  0.65910  0.96900  Biso   1.000  C
  C6       1.0000 0.77790  0.34090  0.03100  Biso   1.000  C
  N1       1.0000 0.40500  0.30670  0.02210  Biso   1.000  N
  N2       1.0000 0.59500  0.69330  0.97790  Biso   1.000  N
  C7       1.0000 0.54320  0.57490  0.65480  Biso   1.000  C
  C8       1.0000 0.45680  0.42510  0.34520  Biso   1.000  C
  C9       1.0000 0.42060  0.20850  0.11150  Biso   1.000  C
  C10      1.0000 0.57940  0.79150  0.88850  Biso   1.000  C
  O9       1.0000 0.47140  0.00070  0.29650  Biso   1.000  O
  O10      1.0000 0.52860  0.99930  0.70350  Biso   1.000  O
  N3       1.0000 0.46560  0.79100  0.54700  Biso   1.000  N
  N4       1.0000 0.53440  0.20900  0.45300  Biso   1.000  N
  C11      1.0000 0.23090  0.11910  0.60400  Biso   1.000  C
  C12      1.0000 0.76910  0.88090  0.39600  Biso   1.000  C
  O11      1.0000 0.28660  0.04010  0.53089  Biso   1.000  O
  O12      1.0000 0.71340  0.95990  0.46911  Biso   1.000  O
  C13      1.0000 0.09820  0.70120  0.89560  Biso   1.000  C
  C14      1.0000 0.90180  0.29880  0.10440  Biso   1.000  C
  C15      1.0000 0.32120  0.27510  0.94460  Biso   1.000  C
  C16      1.0000 0.67880  0.72490  0.05540  Biso   1.000  C
  C17      1.0000 0.34980  0.07800  0.12860  Biso   1.000  C
  C18      1.0000 0.65020  0.92200  0.87140  Biso   1.000  C
  C19      1.0000 0.36010  0.97190  0.23220  Biso   1.000  C
  C20      1.0000 0.63990  0.02810  0.76780  Biso   1.000  C
  C21      1.0000 0.41640  0.50860  0.63820  Biso   1.000  C
  C22      1.0000 0.58360  0.49140  0.36180  Biso   1.000  C
  Cl3      1.0000 0.98026  0.23129  0.71147  Biso   1.000  Cl
  Cl4      1.0000 0.01974  0.76871  0.28853  Biso   1.000  Cl
  C23      1.0000 0.34440  0.72580  0.53030  Biso   1.000  C
  C24      1.0000 0.65560  0.27420  0.46970  Biso   1.000  C
  C25      1.0000 0.06660  0.15090  0.59620  Biso   1.000  C
  C26      1.0000 0.93340  0.84910  0.40380  Biso   1.000  C
  Cl5      1.0000 0.04419  0.25882  0.46790  Biso   1.000  Cl
  Cl6      1.0000 0.95581  0.74118  0.53210  Biso   1.000  Cl
  Cl7      1.0000 0.04168  0.55633  0.83324  Biso   1.000  Cl
  Cl8      1.0000 0.95832  0.44367  0.16676  Biso   1.000  Cl
  C27      1.0000 0.24970  0.14760  0.95470  Biso   1.000  C
  C28      1.0000 0.75030  0.85240  0.04530  Biso   1.000  C
  C29      1.0000 0.31630  0.58560  0.57510  Biso   1.000  C
  C30      1.0000 0.68370  0.41440  0.42490  Biso   1.000  C
  C31      1.0000 0.26240  0.04850  0.04750  Biso   1.000  C
  C32      1.0000 0.73760  0.95150  0.95250  Biso   1.000  C
  H1       1.0000 0.73100  0.57800  0.74200  Biso   1.000  H
  H2       1.0000 0.26900  0.42200  0.25800  Biso   1.000  H
  H3       1.0000 0.64300  0.76200  0.61900  Biso   1.000  H
  H4       1.0000 0.35700  0.23800  0.38100  Biso   1.000  H
  H5       1.0000 0.71400  0.43400  0.67400  Biso   1.000  H
  H6       1.0000 0.28600  0.56600  0.32600  Biso   1.000  H
  H7       1.0000 0.65600  0.37100  0.84900  Biso   1.000  H
  H8       1.0000 0.34400  0.62900  0.15100  Biso   1.000  H
  H9       1.0000 0.48200  0.23500  0.16500  Biso   1.000  H
  H10      1.0000 0.51800  0.76500  0.83500  Biso   1.000  H
  H11      1.0000 0.54300  0.93900  0.28800  Biso   1.000  H
  H12      1.0000 0.45700  0.06100  0.71200  Biso   1.000  H
  H13      1.0000 0.31500  0.34300  0.88300  Biso   1.000  H
  H14      1.0000 0.68500  0.65700  0.11700  Biso   1.000  H
  H15      1.0000 0.01800  0.73800  0.93900  Biso   1.000  H
  H16      1.0000 0.98200  0.26200  0.06100  Biso   1.000  H
  H17      1.0000 0.37700  0.88200  0.21400  Biso   1.000  H
  H18      1.0000 0.62300  0.11800  0.78600  Biso   1.000  H
  H19      1.0000 0.39800  0.42400  0.66800  Biso   1.000  H
  H20      1.0000 0.60200  0.57600  0.33200  Biso   1.000  H
  H21      1.0000 0.26600  0.97500  0.28200  Biso   1.000  H
  H22      1.0000 0.73400  0.02500  0.71800  Biso   1.000  H
  H23      1.0000 0.27900  0.78000  0.48800  Biso   1.000  H
  H24      1.0000 0.72100  0.22000  0.51200  Biso   1.000  H
  H25      1.0000 0.00900  0.06500  0.60000  Biso   1.000  H
  H26      1.0000 0.99100  0.93500  0.40000  Biso   1.000  H
  H27      1.0000 0.19700  0.13500  0.90200  Biso   1.000  H
  H28      1.0000 0.80300  0.86500  0.09800  Biso   1.000  H
  H29      1.0000 0.21400  0.96200  0.05600  Biso   1.000  H
  H30      1.0000 0.78600  0.03800  0.94400  Biso   1.000  H
  H31      1.0000 0.23300  0.54100  0.56300  Biso   1.000  H
  H32      1.0000 0.76700  0.45900  0.43700  Biso   1.000  H
