data_image0
_cell_length_a       15.945
_cell_length_b       15.488
_cell_length_c       17.342
_cell_angle_alpha    90
_cell_angle_beta     98.21
_cell_angle_gamma    90

_symmetry_space_group_name_H-M    "P 1"
_symmetry_int_tables_number       1

loop_
  _symmetry_equiv_pos_as_xyz
  'x, y, z'

loop_
  _atom_site_label
  _atom_site_occupancy
  _atom_site_fract_x
  _atom_site_fract_y
  _atom_site_fract_z
  _atom_site_thermal_displace_type
  _atom_site_B_iso_or_equiv
  _atom_site_type_symbol
  Cu1      1.0000 0.16590  0.73669  0.01115  Biso   1.000  Cu
  Cu2      1.0000 0.16590  0.76331  0.51115  Biso   1.000  Cu
  Cu3      1.0000 0.83410  0.26331  0.98885  Biso   1.000  Cu
  Cu4      1.0000 0.83410  0.23669  0.48885  Biso   1.000  Cu
  Cu5      1.0000 0.27682  0.59324  0.06855  Biso   1.000  Cu
  Cu6      1.0000 0.27682  0.90676  0.56855  Biso   1.000  Cu
  Cu7      1.0000 0.72318  0.40676  0.93145  Biso   1.000  Cu
  Cu8      1.0000 0.72318  0.09324  0.43145  Biso   1.000  Cu
  O1       1.0000 0.16810  0.75960  0.87510  Biso   1.000  O
  O2       1.0000 0.16810  0.74040  0.37510  Biso   1.000  O
  O3       1.0000 0.83190  0.24040  0.12490  Biso   1.000  O
  O4       1.0000 0.83190  0.25960  0.62490  Biso   1.000  O
  H1       1.0000 0.18420  0.70470  0.85600  Biso   1.000  H
  H2       1.0000 0.18420  0.79530  0.35600  Biso   1.000  H
  H3       1.0000 0.81580  0.29530  0.14400  Biso   1.000  H
  H4       1.0000 0.81580  0.20470  0.64400  Biso   1.000  H
  O5       1.0000 0.09530  0.72400  0.12800  Biso   1.000  O
  O6       1.0000 0.09530  0.77600  0.62800  Biso   1.000  O
  O7       1.0000 0.90470  0.27600  0.87200  Biso   1.000  O
  O8       1.0000 0.90470  0.22400  0.37200  Biso   1.000  O
  H5       1.0000 0.12350  0.68040  0.15640  Biso   1.000  H
  H6       1.0000 0.12350  0.81960  0.65640  Biso   1.000  H
  H7       1.0000 0.87650  0.31960  0.84360  Biso   1.000  H
  H8       1.0000 0.87650  0.18040  0.34360  Biso   1.000  H
  O9       1.0000 0.17600  0.61340  0.99450  Biso   1.000  O
  O10      1.0000 0.17600  0.88660  0.49450  Biso   1.000  O
  O11      1.0000 0.82400  0.38660  0.00550  Biso   1.000  O
  O12      1.0000 0.82400  0.11340  0.50550  Biso   1.000  O
  O13      1.0000 0.40540  0.58240  0.00970  Biso   1.000  O
  O14      1.0000 0.40540  0.91760  0.50970  Biso   1.000  O
  O15      1.0000 0.59460  0.41760  0.99030  Biso   1.000  O
  O16      1.0000 0.59460  0.08240  0.49030  Biso   1.000  O
  H9       1.0000 0.41720  0.63480  0.98610  Biso   1.000  H
  H10      1.0000 0.41720  0.86520  0.48610  Biso   1.000  H
  H11      1.0000 0.58280  0.36520  0.01390  Biso   1.000  H
  H12      1.0000 0.58280  0.13480  0.51390  Biso   1.000  H
  O17      1.0000 0.19430  0.59400  0.19640  Biso   1.000  O
  O18      1.0000 0.19430  0.90600  0.69640  Biso   1.000  O
  O19      1.0000 0.80570  0.40600  0.80360  Biso   1.000  O
  O20      1.0000 0.80570  0.09400  0.30360  Biso   1.000  O
  H13      1.0000 0.14800  0.55940  0.20860  Biso   1.000  H
  H14      1.0000 0.14800  0.94060  0.70860  Biso   1.000  H
  H15      1.0000 0.85200  0.44060  0.79140  Biso   1.000  H
  H16      1.0000 0.85200  0.05940  0.29140  Biso   1.000  H
  O21      1.0000 0.28200  0.71780  0.06140  Biso   1.000  O
  O22      1.0000 0.28200  0.78220  0.56140  Biso   1.000  O
  O23      1.0000 0.71800  0.28220  0.93860  Biso   1.000  O
  O24      1.0000 0.71800  0.21780  0.43860  Biso   1.000  O
  N1       1.0000 0.03940  0.71950  0.96490  Biso   1.000  N
  N2       1.0000 0.03940  0.78050  0.46490  Biso   1.000  N
  N3       1.0000 0.96060  0.28050  0.03510  Biso   1.000  N
  N4       1.0000 0.96060  0.21950  0.53510  Biso   1.000  N
  N5       1.0000 0.36910  0.60660  0.16350  Biso   1.000  N
  N6       1.0000 0.36910  0.89340  0.66350  Biso   1.000  N
  N7       1.0000 0.63090  0.39340  0.83650  Biso   1.000  N
  N8       1.0000 0.63090  0.10660  0.33650  Biso   1.000  N
  N9       1.0000 0.17280  0.86560  0.02590  Biso   1.000  N
  N10      1.0000 0.17280  0.63440  0.52590  Biso   1.000  N
  N11      1.0000 0.82720  0.13440  0.97410  Biso   1.000  N
  N12      1.0000 0.82720  0.36560  0.47410  Biso   1.000  N
  N13      1.0000 0.26870  0.46440  0.05840  Biso   1.000  N
  N14      1.0000 0.26870  0.03560  0.55840  Biso   1.000  N
  N15      1.0000 0.73130  0.53560  0.94160  Biso   1.000  N
  N16      1.0000 0.73130  0.96440  0.44160  Biso   1.000  N
  C1       1.0000 0.02120  0.77700  0.89480  Biso   1.000  C
  C2       1.0000 0.02120  0.72300  0.39480  Biso   1.000  C
  C3       1.0000 0.97880  0.22300  0.10520  Biso   1.000  C
  C4       1.0000 0.97880  0.27700  0.60520  Biso   1.000  C
  H17      1.0000 0.02280  0.83800  0.91210  Biso   1.000  H
  H18      1.0000 0.02280  0.66200  0.41210  Biso   1.000  H
  H19      1.0000 0.97720  0.16200  0.08790  Biso   1.000  H
  H20      1.0000 0.97720  0.33800  0.58790  Biso   1.000  H
  H21      1.0000 0.96330  0.76490  0.86800  Biso   1.000  H
  H22      1.0000 0.96330  0.73510  0.36800  Biso   1.000  H
  H23      1.0000 0.03670  0.23510  0.13200  Biso   1.000  H
  H24      1.0000 0.03670  0.26490  0.63200  Biso   1.000  H
  C5       1.0000 0.08340  0.76490  0.83800  Biso   1.000  C
  C6       1.0000 0.08340  0.73510  0.33800  Biso   1.000  C
  C7       1.0000 0.91660  0.23510  0.16200  Biso   1.000  C
  C8       1.0000 0.91660  0.26490  0.66200  Biso   1.000  C
  H25      1.0000 0.06900  0.71150  0.80770  Biso   1.000  H
  H26      1.0000 0.06900  0.78850  0.30770  Biso   1.000  H
  H27      1.0000 0.93100  0.28850  0.19230  Biso   1.000  H
  H28      1.0000 0.93100  0.21150  0.69230  Biso   1.000  H
  H29      1.0000 0.07810  0.81390  0.80100  Biso   1.000  H
  H30      1.0000 0.07810  0.68610  0.30100  Biso   1.000  H
  H31      1.0000 0.92190  0.18610  0.19900  Biso   1.000  H
  H32      1.0000 0.92190  0.31390  0.69900  Biso   1.000  H
  C9       1.0000 0.98450  0.74450  0.02330  Biso   1.000  C
  C10      1.0000 0.98450  0.75550  0.52330  Biso   1.000  C
  C11      1.0000 0.01550  0.25550  0.97670  Biso   1.000  C
  C12      1.0000 0.01550  0.24450  0.47670  Biso   1.000  C
  H33      1.0000 0.92530  0.72840  0.00340  Biso   1.000  H
  H34      1.0000 0.92530  0.77160  0.50340  Biso   1.000  H
  H35      1.0000 0.07470  0.27160  0.99660  Biso   1.000  H
  H36      1.0000 0.07470  0.22840  0.49660  Biso   1.000  H
  H37      1.0000 0.98640  0.80810  0.02950  Biso   1.000  H
  H38      1.0000 0.98640  0.69190  0.52950  Biso   1.000  H
  H39      1.0000 0.01360  0.19190  0.97050  Biso   1.000  H
  H40      1.0000 0.01360  0.30810  0.47050  Biso   1.000  H
  C13      1.0000 0.00870  0.70390  0.10140  Biso   1.000  C
  C14      1.0000 0.00870  0.79610  0.60140  Biso   1.000  C
  C15      1.0000 0.99130  0.29610  0.89860  Biso   1.000  C
  C16      1.0000 0.99130  0.20390  0.39860  Biso   1.000  C
  H41      1.0000 0.97230  0.72650  0.13860  Biso   1.000  H
  H42      1.0000 0.97230  0.77350  0.63860  Biso   1.000  H
  H43      1.0000 0.02770  0.27350  0.86140  Biso   1.000  H
  H44      1.0000 0.02770  0.22650  0.36140  Biso   1.000  H
  H45      1.0000 0.00090  0.64060  0.09750  Biso   1.000  H
  H46      1.0000 0.00090  0.85940  0.59750  Biso   1.000  H
  H47      1.0000 0.99910  0.35940  0.90250  Biso   1.000  H
  H48      1.0000 0.99910  0.14060  0.40250  Biso   1.000  H
  C17      1.0000 0.02980  0.62630  0.94250  Biso   1.000  C
  C18      1.0000 0.02980  0.87370  0.44250  Biso   1.000  C
  C19      1.0000 0.97020  0.37370  0.05750  Biso   1.000  C
  C20      1.0000 0.97020  0.12630  0.55750  Biso   1.000  C
  H49      1.0000 0.03510  0.61990  0.88660  Biso   1.000  H
  H50      1.0000 0.03510  0.88010  0.38660  Biso   1.000  H
  H51      1.0000 0.96490  0.38010  0.11340  Biso   1.000  H
  H52      1.0000 0.96490  0.11990  0.61340  Biso   1.000  H
  H53      1.0000 0.97270  0.60620  0.95020  Biso   1.000  H
  H54      1.0000 0.97270  0.89380  0.45020  Biso   1.000  H
  H55      1.0000 0.02730  0.39380  0.04980  Biso   1.000  H
  H56      1.0000 0.02730  0.10620  0.54980  Biso   1.000  H
  C21      1.0000 0.09660  0.57020  0.99090  Biso   1.000  C
  C22      1.0000 0.09660  0.92980  0.49090  Biso   1.000  C
  C23      1.0000 0.90340  0.42980  0.00910  Biso   1.000  C
  C24      1.0000 0.90340  0.07020  0.50910  Biso   1.000  C
  H57      1.0000 0.08200  0.56210  0.04400  Biso   1.000  H
  H58      1.0000 0.08200  0.93790  0.54400  Biso   1.000  H
  H59      1.0000 0.91800  0.43790  0.95600  Biso   1.000  H
  H60      1.0000 0.91800  0.06210  0.45600  Biso   1.000  H
  H61      1.0000 0.09950  0.51280  0.96640  Biso   1.000  H
  H62      1.0000 0.09950  0.98720  0.46640  Biso   1.000  H
  H63      1.0000 0.90050  0.48720  0.03360  Biso   1.000  H
  H64      1.0000 0.90050  0.01280  0.53360  Biso   1.000  H
  C25      1.0000 0.44400  0.55550  0.14700  Biso   1.000  C
  C26      1.0000 0.44400  0.94450  0.64700  Biso   1.000  C
  C27      1.0000 0.55600  0.44450  0.85300  Biso   1.000  C
  C28      1.0000 0.55600  0.05550  0.35300  Biso   1.000  C
  H65      1.0000 0.49090  0.56390  0.19030  Biso   1.000  H
  H66      1.0000 0.49090  0.93610  0.69030  Biso   1.000  H
  H67      1.0000 0.50910  0.43610  0.80970  Biso   1.000  H
  H68      1.0000 0.50910  0.06390  0.30970  Biso   1.000  H
  H69      1.0000 0.42890  0.49340  0.14550  Biso   1.000  H
  H70      1.0000 0.42890  0.00660  0.64550  Biso   1.000  H
  H71      1.0000 0.57110  0.50660  0.85450  Biso   1.000  H
  H72      1.0000 0.57110  0.99340  0.35450  Biso   1.000  H
  C29      1.0000 0.47480  0.57880  0.07230  Biso   1.000  C
  C30      1.0000 0.47480  0.92120  0.57230  Biso   1.000  C
  C31      1.0000 0.52520  0.42120  0.92770  Biso   1.000  C
  C32      1.0000 0.52520  0.07880  0.42770  Biso   1.000  C
  H73      1.0000 0.50340  0.63560  0.07790  Biso   1.000  H
  H74      1.0000 0.50340  0.86440  0.57790  Biso   1.000  H
  H75      1.0000 0.49660  0.36440  0.92210  Biso   1.000  H
  H76      1.0000 0.49660  0.13560  0.42210  Biso   1.000  H
  H77      1.0000 0.51650  0.53540  0.06020  Biso   1.000  H
  H78      1.0000 0.51650  0.96460  0.56020  Biso   1.000  H
  H79      1.0000 0.48350  0.46460  0.93980  Biso   1.000  H
  H80      1.0000 0.48350  0.03540  0.43980  Biso   1.000  H
  C33      1.0000 0.34370  0.57260  0.23620  Biso   1.000  C
  C34      1.0000 0.34370  0.92740  0.73620  Biso   1.000  C
  C35      1.0000 0.65630  0.42740  0.76380  Biso   1.000  C
  C36      1.0000 0.65630  0.07260  0.26380  Biso   1.000  C
  H81      1.0000 0.38980  0.58470  0.27940  Biso   1.000  H
  H82      1.0000 0.38980  0.91530  0.77940  Biso   1.000  H
  H83      1.0000 0.61020  0.41530  0.72060  Biso   1.000  H
  H84      1.0000 0.61020  0.08470  0.22060  Biso   1.000  H
  H85      1.0000 0.33820  0.50910  0.23140  Biso   1.000  H
  H86      1.0000 0.33820  0.99090  0.73140  Biso   1.000  H
  H87      1.0000 0.66180  0.49090  0.76860  Biso   1.000  H
  H88      1.0000 0.66180  0.00910  0.26860  Biso   1.000  H
  C37      1.0000 0.26300  0.60770  0.25800  Biso   1.000  C
  C38      1.0000 0.26300  0.89230  0.75800  Biso   1.000  C
  C39      1.0000 0.73700  0.39230  0.74200  Biso   1.000  C
  C40      1.0000 0.73700  0.10770  0.24200  Biso   1.000  C
  H89      1.0000 0.25030  0.57880  0.30600  Biso   1.000  H
  H90      1.0000 0.25030  0.92120  0.80600  Biso   1.000  H
  H91      1.0000 0.74970  0.42120  0.69400  Biso   1.000  H
  H92      1.0000 0.74970  0.07880  0.19400  Biso   1.000  H
  H93      1.0000 0.26940  0.67030  0.26890  Biso   1.000  H
  H94      1.0000 0.26940  0.82970  0.76890  Biso   1.000  H
  H95      1.0000 0.73060  0.32970  0.73110  Biso   1.000  H
  H96      1.0000 0.73060  0.17030  0.23110  Biso   1.000  H
  C41      1.0000 0.39020  0.70130  0.16910  Biso   1.000  C
  C42      1.0000 0.39020  0.79870  0.66910  Biso   1.000  C
  C43      1.0000 0.60980  0.29870  0.83090  Biso   1.000  C
  C44      1.0000 0.60980  0.20130  0.33090  Biso   1.000  C
  H97      1.0000 0.43880  0.71330  0.14110  Biso   1.000  H
  H98      1.0000 0.43880  0.78670  0.64110  Biso   1.000  H
  H99      1.0000 0.56120  0.28670  0.85890  Biso   1.000  H
  H100     1.0000 0.56120  0.21330  0.35890  Biso   1.000  H
  H101     1.0000 0.40650  0.71750  0.22450  Biso   1.000  H
  H102     1.0000 0.40650  0.78250  0.72450  Biso   1.000  H
  H103     1.0000 0.59350  0.28250  0.77550  Biso   1.000  H
  H104     1.0000 0.59350  0.21750  0.27550  Biso   1.000  H
  C45      1.0000 0.31380  0.75460  0.13370  Biso   1.000  C
  C46      1.0000 0.31380  0.74540  0.63370  Biso   1.000  C
  C47      1.0000 0.68620  0.24540  0.86630  Biso   1.000  C
  C48      1.0000 0.68620  0.25460  0.36630  Biso   1.000  C
  H105     1.0000 0.26980  0.75410  0.16860  Biso   1.000  H
  H106     1.0000 0.26980  0.74590  0.66860  Biso   1.000  H
  H107     1.0000 0.73020  0.24590  0.83140  Biso   1.000  H
  H108     1.0000 0.73020  0.25410  0.33140  Biso   1.000  H
  H109     1.0000 0.33100  0.81520  0.12660  Biso   1.000  H
  H110     1.0000 0.33100  0.68480  0.62660  Biso   1.000  H
  H111     1.0000 0.66900  0.18480  0.87340  Biso   1.000  H
  H112     1.0000 0.66900  0.31520  0.37340  Biso   1.000  H
  C49      1.0000 0.22070  0.91060  0.98200  Biso   1.000  C
  C50      1.0000 0.22070  0.58940  0.48200  Biso   1.000  C
  C51      1.0000 0.77930  0.08940  0.01800  Biso   1.000  C
  C52      1.0000 0.77930  0.41060  0.51800  Biso   1.000  C
  H113     1.0000 0.24540  0.88040  0.94320  Biso   1.000  H
  H114     1.0000 0.24540  0.61960  0.44320  Biso   1.000  H
  H115     1.0000 0.75460  0.11960  0.05680  Biso   1.000  H
  H116     1.0000 0.75460  0.38040  0.55680  Biso   1.000  H
  C53      1.0000 0.23590  0.99710  0.99020  Biso   1.000  C
  C54      1.0000 0.23590  0.50290  0.49020  Biso   1.000  C
  C55      1.0000 0.76410  0.00290  0.00980  Biso   1.000  C
  C56      1.0000 0.76410  0.49710  0.50980  Biso   1.000  C
  H117     1.0000 0.27210  0.02520  0.95910  Biso   1.000  H
  H118     1.0000 0.27210  0.47480  0.45910  Biso   1.000  H
  H119     1.0000 0.72790  0.97480  0.04090  Biso   1.000  H
  H120     1.0000 0.72790  0.52520  0.54090  Biso   1.000  H
  C57      1.0000 0.19780  0.04390  0.04460  Biso   1.000  C
  C58      1.0000 0.19780  0.45610  0.54460  Biso   1.000  C
  C59      1.0000 0.80220  0.95610  0.95540  Biso   1.000  C
  C60      1.0000 0.80220  0.54390  0.45540  Biso   1.000  C
  C61      1.0000 0.14740  0.99780  0.08960  Biso   1.000  C
  C62      1.0000 0.14740  0.50220  0.58960  Biso   1.000  C
  C63      1.0000 0.85260  0.00220  0.91040  Biso   1.000  C
  C64      1.0000 0.85260  0.49780  0.41040  Biso   1.000  C
  H121     1.0000 0.12050  0.02690  0.12770  Biso   1.000  H
  H122     1.0000 0.12050  0.47310  0.62770  Biso   1.000  H
  H123     1.0000 0.87950  0.97310  0.87230  Biso   1.000  H
  H124     1.0000 0.87950  0.52690  0.37230  Biso   1.000  H
  C65      1.0000 0.13670  0.91010  0.07890  Biso   1.000  C
  C66      1.0000 0.13670  0.58990  0.57890  Biso   1.000  C
  C67      1.0000 0.86330  0.08990  0.92110  Biso   1.000  C
  C68      1.0000 0.86330  0.41010  0.42110  Biso   1.000  C
  H125     1.0000 0.10230  0.87990  0.11040  Biso   1.000  H
  H126     1.0000 0.10230  0.62010  0.61040  Biso   1.000  H
  H127     1.0000 0.89770  0.12010  0.88960  Biso   1.000  H
  H128     1.0000 0.89770  0.37990  0.38960  Biso   1.000  H
  C69      1.0000 0.20800  0.13710  0.05740  Biso   1.000  C
  C70      1.0000 0.20800  0.36290  0.55740  Biso   1.000  C
  C71      1.0000 0.79200  0.86290  0.94260  Biso   1.000  C
  C72      1.0000 0.79200  0.63710  0.44260  Biso   1.000  C
  H129     1.0000 0.18450  0.16060  0.10010  Biso   1.000  H
  H130     1.0000 0.18450  0.33940  0.60010  Biso   1.000  H
  H131     1.0000 0.81550  0.83940  0.89990  Biso   1.000  H
  H132     1.0000 0.81550  0.66060  0.39990  Biso   1.000  H
  C73      1.0000 0.24680  0.19210  0.01540  Biso   1.000  C
  C74      1.0000 0.24680  0.30790  0.51540  Biso   1.000  C
  C75      1.0000 0.75320  0.80790  0.98460  Biso   1.000  C
  C76      1.0000 0.75320  0.69210  0.48460  Biso   1.000  C
  H133     1.0000 0.27090  0.16980  0.97250  Biso   1.000  H
  H134     1.0000 0.27090  0.33020  0.47250  Biso   1.000  H
  H135     1.0000 0.72910  0.83020  0.02750  Biso   1.000  H
  H136     1.0000 0.72910  0.66980  0.52750  Biso   1.000  H
  C77      1.0000 0.25470  0.28530  0.03120  Biso   1.000  C
  C78      1.0000 0.25470  0.21470  0.53120  Biso   1.000  C
  C79      1.0000 0.74530  0.71470  0.96880  Biso   1.000  C
  C80      1.0000 0.74530  0.78530  0.46880  Biso   1.000  C
  C81      1.0000 0.28300  0.34140  0.97730  Biso   1.000  C
  C82      1.0000 0.28300  0.15860  0.47730  Biso   1.000  C
  C83      1.0000 0.71700  0.65860  0.02270  Biso   1.000  C
  C84      1.0000 0.71700  0.84140  0.52270  Biso   1.000  C
  H137     1.0000 0.29740  0.31970  0.92970  Biso   1.000  H
  H138     1.0000 0.29740  0.18030  0.42970  Biso   1.000  H
  H139     1.0000 0.70260  0.68030  0.07030  Biso   1.000  H
  H140     1.0000 0.70260  0.81970  0.57030  Biso   1.000  H
  C85      1.0000 0.28990  0.42860  0.99360  Biso   1.000  C
  C86      1.0000 0.28990  0.07140  0.49360  Biso   1.000  C
  C87      1.0000 0.71010  0.57140  0.00640  Biso   1.000  C
  C88      1.0000 0.71010  0.92860  0.50640  Biso   1.000  C
  H141     1.0000 0.31090  0.46520  0.95680  Biso   1.000  H
  H142     1.0000 0.31090  0.03480  0.45680  Biso   1.000  H
  H143     1.0000 0.68910  0.53480  0.04320  Biso   1.000  H
  H144     1.0000 0.68910  0.96520  0.54320  Biso   1.000  H
  C89      1.0000 0.23960  0.41100  0.10940  Biso   1.000  C
  C90      1.0000 0.23960  0.08900  0.60940  Biso   1.000  C
  C91      1.0000 0.76040  0.58900  0.89060  Biso   1.000  C
  C92      1.0000 0.76040  0.91100  0.39060  Biso   1.000  C
  H145     1.0000 0.22310  0.43490  0.15540  Biso   1.000  H
  H146     1.0000 0.22310  0.06510  0.65540  Biso   1.000  H
  H147     1.0000 0.77690  0.56510  0.84460  Biso   1.000  H
  H148     1.0000 0.77690  0.93490  0.34460  Biso   1.000  H
  C93      1.0000 0.23260  0.32330  0.09840  Biso   1.000  C
  C94      1.0000 0.23260  0.17670  0.59840  Biso   1.000  C
  C95      1.0000 0.76740  0.67670  0.90160  Biso   1.000  C
  C96      1.0000 0.76740  0.82330  0.40160  Biso   1.000  C
  H149     1.0000 0.21260  0.28820  0.13680  Biso   1.000  H
  H150     1.0000 0.21260  0.21180  0.63680  Biso   1.000  H
  H151     1.0000 0.78740  0.71180  0.86320  Biso   1.000  H
  H152     1.0000 0.78740  0.78820  0.36320  Biso   1.000  H
  N17      1.0000 0.76800  0.39020  0.17730  Biso   1.000  N
  N18      1.0000 0.76800  0.10980  0.67730  Biso   1.000  N
  N19      1.0000 0.23200  0.60980  0.82270  Biso   1.000  N
  N20      1.0000 0.23200  0.89020  0.32270  Biso   1.000  N
  N21      1.0000 0.45350  0.77230  0.44230  Biso   1.000  N
  N22      1.0000 0.45350  0.72770  0.94230  Biso   1.000  N
  N23      1.0000 0.54650  0.22770  0.55770  Biso   1.000  N
  N24      1.0000 0.54650  0.27230  0.05770  Biso   1.000  N
  C97      1.0000 0.80110  0.46950  0.18670  Biso   1.000  C
  C98      1.0000 0.80110  0.03050  0.68670  Biso   1.000  C
  C99      1.0000 0.19890  0.53050  0.81330  Biso   1.000  C
  C100     1.0000 0.19890  0.96950  0.31330  Biso   1.000  C
  H153     1.0000 0.85450  0.48000  0.17030  Biso   1.000  H
  H154     1.0000 0.85450  0.02000  0.67030  Biso   1.000  H
  H155     1.0000 0.14550  0.52000  0.82970  Biso   1.000  H
  H156     1.0000 0.14550  0.98000  0.32970  Biso   1.000  H
  C101     1.0000 0.76120  0.53720  0.21930  Biso   1.000  C
  C102     1.0000 0.76120  0.96280  0.71930  Biso   1.000  C
  C103     1.0000 0.23880  0.46280  0.78070  Biso   1.000  C
  C104     1.0000 0.23880  0.03720  0.28070  Biso   1.000  C
  H157     1.0000 0.78600  0.59310  0.22250  Biso   1.000  H
  H158     1.0000 0.78600  0.90690  0.72250  Biso   1.000  H
  H159     1.0000 0.21400  0.40690  0.77750  Biso   1.000  H
  H160     1.0000 0.21400  0.09310  0.27750  Biso   1.000  H
  C105     1.0000 0.68520  0.52300  0.24710  Biso   1.000  C
  C106     1.0000 0.68520  0.97700  0.74710  Biso   1.000  C
  C107     1.0000 0.31480  0.47700  0.75290  Biso   1.000  C
  C108     1.0000 0.31480  0.02300  0.25290  Biso   1.000  C
  C109     1.0000 0.64990  0.44020  0.23590  Biso   1.000  C
  C110     1.0000 0.64990  0.05980  0.73590  Biso   1.000  C
  C111     1.0000 0.35010  0.55980  0.76410  Biso   1.000  C
  C112     1.0000 0.35010  0.94020  0.26410  Biso   1.000  C
  H161     1.0000 0.59680  0.42720  0.25200  Biso   1.000  H
  H162     1.0000 0.59680  0.07280  0.75200  Biso   1.000  H
  H163     1.0000 0.40320  0.57280  0.74800  Biso   1.000  H
  H164     1.0000 0.40320  0.92720  0.24800  Biso   1.000  H
  C113     1.0000 0.69380  0.37800  0.20110  Biso   1.000  C
  C114     1.0000 0.69380  0.12200  0.70110  Biso   1.000  C
  C115     1.0000 0.30620  0.62200  0.79890  Biso   1.000  C
  C116     1.0000 0.30620  0.87800  0.29890  Biso   1.000  C
  H165     1.0000 0.66890  0.32240  0.19360  Biso   1.000  H
  H166     1.0000 0.66890  0.17760  0.69360  Biso   1.000  H
  H167     1.0000 0.33110  0.67760  0.80640  Biso   1.000  H
  H168     1.0000 0.33110  0.82240  0.30640  Biso   1.000  H
  C117     1.0000 0.64420  0.59080  0.28660  Biso   1.000  C
  C118     1.0000 0.64420  0.90920  0.78660  Biso   1.000  C
  C119     1.0000 0.35580  0.40920  0.71340  Biso   1.000  C
  C120     1.0000 0.35580  0.09080  0.21340  Biso   1.000  C
  H169     1.0000 0.65860  0.64880  0.27620  Biso   1.000  H
  H170     1.0000 0.65860  0.85120  0.77620  Biso   1.000  H
  H171     1.0000 0.34140  0.35120  0.72380  Biso   1.000  H
  H172     1.0000 0.34140  0.14880  0.22380  Biso   1.000  H
  C121     1.0000 0.58900  0.57880  0.33550  Biso   1.000  C
  C122     1.0000 0.58900  0.92120  0.83550  Biso   1.000  C
  C123     1.0000 0.41100  0.42120  0.66450  Biso   1.000  C
  C124     1.0000 0.41100  0.07880  0.16450  Biso   1.000  C
  H173     1.0000 0.57660  0.52070  0.34730  Biso   1.000  H
  H174     1.0000 0.57660  0.97930  0.84730  Biso   1.000  H
  H175     1.0000 0.42340  0.47930  0.65270  Biso   1.000  H
  H176     1.0000 0.42340  0.02070  0.15270  Biso   1.000  H
  C125     1.0000 0.54480  0.64590  0.37350  Biso   1.000  C
  C126     1.0000 0.54480  0.85410  0.87350  Biso   1.000  C
  C127     1.0000 0.45520  0.35410  0.62650  Biso   1.000  C
  C128     1.0000 0.45520  0.14590  0.12650  Biso   1.000  C
  C129     1.0000 0.55340  0.73360  0.35730  Biso   1.000  C
  C130     1.0000 0.55340  0.76640  0.85730  Biso   1.000  C
  C131     1.0000 0.44660  0.26640  0.64270  Biso   1.000  C
  C132     1.0000 0.44660  0.23360  0.14270  Biso   1.000  C
  H177     1.0000 0.59030  0.75220  0.32220  Biso   1.000  H
  H178     1.0000 0.59030  0.74780  0.82220  Biso   1.000  H
  H179     1.0000 0.40970  0.24780  0.67780  Biso   1.000  H
  H180     1.0000 0.40970  0.25220  0.17780  Biso   1.000  H
  C133     1.0000 0.50680  0.79270  0.39360  Biso   1.000  C
  C134     1.0000 0.50680  0.70730  0.89360  Biso   1.000  C
  C135     1.0000 0.49320  0.20730  0.60640  Biso   1.000  C
  C136     1.0000 0.49320  0.29270  0.10640  Biso   1.000  C
  H181     1.0000 0.51370  0.85210  0.38270  Biso   1.000  H
  H182     1.0000 0.51370  0.64790  0.88270  Biso   1.000  H
  H183     1.0000 0.48630  0.14790  0.61730  Biso   1.000  H
  H184     1.0000 0.48630  0.35210  0.11730  Biso   1.000  H
  C137     1.0000 0.44590  0.68960  0.45820  Biso   1.000  C
  C138     1.0000 0.44590  0.81040  0.95820  Biso   1.000  C
  C139     1.0000 0.55410  0.31040  0.54180  Biso   1.000  C
  C140     1.0000 0.55410  0.18960  0.04180  Biso   1.000  C
  H185     1.0000 0.40820  0.67350  0.49350  Biso   1.000  H
  H186     1.0000 0.40820  0.82650  0.99350  Biso   1.000  H
  H187     1.0000 0.59180  0.32650  0.50650  Biso   1.000  H
  H188     1.0000 0.59180  0.17350  0.00650  Biso   1.000  H
  C141     1.0000 0.49050  0.62450  0.42570  Biso   1.000  C
  C142     1.0000 0.49050  0.87550  0.92570  Biso   1.000  C
  C143     1.0000 0.50950  0.37550  0.57430  Biso   1.000  C
  C144     1.0000 0.50950  0.12450  0.07430  Biso   1.000  C
  H189     1.0000 0.48340  0.56590  0.43940  Biso   1.000  H
  H190     1.0000 0.48340  0.93410  0.93940  Biso   1.000  H
  H191     1.0000 0.51660  0.43410  0.56060  Biso   1.000  H
  H192     1.0000 0.51660  0.06590  0.06060  Biso   1.000  H
  Cl1      1.0000 0.40650  0.35600  0.34090  Biso   1.000  Cl
  Cl2      1.0000 0.40650  0.14400  0.84090  Biso   1.000  Cl
  Cl3      1.0000 0.59350  0.64400  0.65910  Biso   1.000  Cl
  Cl4      1.0000 0.59350  0.85600  0.15910  Biso   1.000  Cl
  O25      1.0000 0.48380  0.37480  0.31560  Biso   1.000  O
  O26      1.0000 0.48380  0.12520  0.81560  Biso   1.000  O
  O27      1.0000 0.51620  0.62520  0.68440  Biso   1.000  O
  O28      1.0000 0.51620  0.87480  0.18440  Biso   1.000  O
  O29      1.0000 0.34330  0.34940  0.27270  Biso   1.000  O
  O30      1.0000 0.34330  0.15060  0.77270  Biso   1.000  O
  O31      1.0000 0.65670  0.65060  0.72730  Biso   1.000  O
  O32      1.0000 0.65670  0.84940  0.22730  Biso   1.000  O
  O33      1.0000 0.38320  0.42290  0.38940  Biso   1.000  O
  O34      1.0000 0.38320  0.07710  0.88940  Biso   1.000  O
  O35      1.0000 0.61680  0.57710  0.61060  Biso   1.000  O
  O36      1.0000 0.61680  0.92290  0.11060  Biso   1.000  O
  O37      1.0000 0.40990  0.27490  0.37870  Biso   1.000  O
  O38      1.0000 0.40990  0.22510  0.87870  Biso   1.000  O
  O39      1.0000 0.59010  0.72510  0.62130  Biso   1.000  O
  O40      1.0000 0.59010  0.77490  0.12130  Biso   1.000  O
  Cl5      1.0000 0.41190  0.35640  0.33150  Biso   1.000  Cl
  Cl6      1.0000 0.41190  0.14360  0.83150  Biso   1.000  Cl
  Cl7      1.0000 0.58810  0.64360  0.66850  Biso   1.000  Cl
  Cl8      1.0000 0.58810  0.85640  0.16850  Biso   1.000  Cl
  O41      1.0000 0.42400  0.37700  0.25430  Biso   1.000  O
  O42      1.0000 0.42400  0.12300  0.75430  Biso   1.000  O
  O43      1.0000 0.57600  0.62300  0.74570  Biso   1.000  O
  O44      1.0000 0.57600  0.87700  0.24570  Biso   1.000  O
  O45      1.0000 0.39300  0.26700  0.33600  Biso   1.000  O
  O46      1.0000 0.39300  0.23300  0.83600  Biso   1.000  O
  O47      1.0000 0.60700  0.73300  0.66400  Biso   1.000  O
  O48      1.0000 0.60700  0.76700  0.16400  Biso   1.000  O
  O49      1.0000 0.34300  0.40500  0.35200  Biso   1.000  O
  O50      1.0000 0.34300  0.09500  0.85200  Biso   1.000  O
  O51      1.0000 0.65700  0.59500  0.64800  Biso   1.000  O
  O52      1.0000 0.65700  0.90500  0.14800  Biso   1.000  O
  O53      1.0000 0.48700  0.37600  0.38270  Biso   1.000  O
  O54      1.0000 0.48700  0.12400  0.88270  Biso   1.000  O
  O55      1.0000 0.51300  0.62400  0.61730  Biso   1.000  O
  O56      1.0000 0.51300  0.87600  0.11730  Biso   1.000  O
  Cl9      1.0000 0.05600  0.46210  0.28750  Biso   1.000  Cl
  Cl10     1.0000 0.05600  0.03790  0.78750  Biso   1.000  Cl
  Cl11     1.0000 0.94400  0.53790  0.71250  Biso   1.000  Cl
  Cl12     1.0000 0.94400  0.96210  0.21250  Biso   1.000  Cl
  O57      1.0000 0.02940  0.50770  0.22000  Biso   1.000  O
  O58      1.0000 0.02940  0.99230  0.72000  Biso   1.000  O
  O59      1.0000 0.97060  0.49230  0.78000  Biso   1.000  O
  O60      1.0000 0.97060  0.00770  0.28000  Biso   1.000  O
  O61      1.0000 0.04050  0.50770  0.35230  Biso   1.000  O
  O62      1.0000 0.04050  0.99230  0.85230  Biso   1.000  O
  O63      1.0000 0.95950  0.49230  0.64770  Biso   1.000  O
  O64      1.0000 0.95950  0.00770  0.14770  Biso   1.000  O
  O65      1.0000 0.01580  0.38070  0.28570  Biso   1.000  O
  O66      1.0000 0.01580  0.11930  0.78570  Biso   1.000  O
  O67      1.0000 0.98420  0.61930  0.71430  Biso   1.000  O
  O68      1.0000 0.98420  0.88070  0.21430  Biso   1.000  O
  O69      1.0000 0.14650  0.45500  0.29110  Biso   1.000  O
  O70      1.0000 0.14650  0.04500  0.79110  Biso   1.000  O
  O71      1.0000 0.85350  0.54500  0.70890  Biso   1.000  O
  O72      1.0000 0.85350  0.95500  0.20890  Biso   1.000  O
  Cl13     1.0000 0.06000  0.44530  0.29190  Biso   1.000  Cl
  Cl14     1.0000 0.06000  0.05470  0.79190  Biso   1.000  Cl
  Cl15     1.0000 0.94000  0.55470  0.70810  Biso   1.000  Cl
  Cl16     1.0000 0.94000  0.94530  0.20810  Biso   1.000  Cl
  O73      1.0000 0.09800  0.44500  0.22410  Biso   1.000  O
  O74      1.0000 0.09800  0.05500  0.72410  Biso   1.000  O
  O75      1.0000 0.90200  0.55500  0.77590  Biso   1.000  O
  O76      1.0000 0.90200  0.94500  0.27590  Biso   1.000  O
  O77      1.0000 0.97180  0.44060  0.27220  Biso   1.000  O
  O78      1.0000 0.97180  0.05940  0.77220  Biso   1.000  O
  O79      1.0000 0.02820  0.55940  0.72780  Biso   1.000  O
  O80      1.0000 0.02820  0.94060  0.22780  Biso   1.000  O
  O81      1.0000 0.08850  0.37430  0.33890  Biso   1.000  O
  O82      1.0000 0.08850  0.12570  0.83890  Biso   1.000  O
  O83      1.0000 0.91150  0.62570  0.66110  Biso   1.000  O
  O84      1.0000 0.91150  0.87430  0.16110  Biso   1.000  O
  O85      1.0000 0.08300  0.52090  0.33440  Biso   1.000  O
  O86      1.0000 0.08300  0.97910  0.83440  Biso   1.000  O
  O87      1.0000 0.91700  0.47910  0.66560  Biso   1.000  O
  O88      1.0000 0.91700  0.02090  0.16560  Biso   1.000  O
  O89      1.0000 0.18640  0.25420  0.27520  Biso   1.000  O
  O90      1.0000 0.18640  0.24580  0.77520  Biso   1.000  O
  O91      1.0000 0.81360  0.74580  0.72480  Biso   1.000  O
  O92      1.0000 0.81360  0.75420  0.22480  Biso   1.000  O
  H193     1.0000 0.22130  0.29140  0.25450  Biso   1.000  H
  H194     1.0000 0.22130  0.20860  0.75450  Biso   1.000  H
  H195     1.0000 0.77870  0.70860  0.74550  Biso   1.000  H
  H196     1.0000 0.77870  0.79140  0.24550  Biso   1.000  H
  H197     1.0000 0.13300  0.28800  0.26300  Biso   1.000  H
  H198     1.0000 0.13300  0.21200  0.76300  Biso   1.000  H
  H199     1.0000 0.86700  0.71200  0.73700  Biso   1.000  H
  H200     1.0000 0.86700  0.78800  0.23700  Biso   1.000  H
