data_image0
_cell_length_a       9.3021
_cell_length_b       9.6489
_cell_length_c       15.0447
_cell_angle_alpha    90
_cell_angle_beta     92.2887
_cell_angle_gamma    90

_symmetry_space_group_name_H-M    "P 1"
_symmetry_int_tables_number       1

loop_
  _symmetry_equiv_pos_as_xyz
  'x, y, z'

loop_
  _atom_site_label
  _atom_site_occupancy
  _atom_site_fract_x
  _atom_site_fract_y
  _atom_site_fract_z
  _atom_site_thermal_displace_type
  _atom_site_B_iso_or_equiv
  _atom_site_type_symbol
  Cu1      1.0000 0.12613  0.05964  0.95489  Biso   1.000  Cu
  Cu2      1.0000 0.12613  0.44036  0.45489  Biso   1.000  Cu
  Cu3      1.0000 0.87387  0.94036  0.04511  Biso   1.000  Cu
  Cu4      1.0000 0.87387  0.55964  0.54511  Biso   1.000  Cu
  O1       1.0000 0.01922  0.89109  0.96403  Biso   1.000  O
  O2       1.0000 0.01922  0.60891  0.46403  Biso   1.000  O
  O3       1.0000 0.98078  0.10891  0.03597  Biso   1.000  O
  O4       1.0000 0.98078  0.39109  0.53597  Biso   1.000  O
  O5       1.0000 0.03440  0.12190  0.80728  Biso   1.000  O
  O6       1.0000 0.03440  0.37810  0.30728  Biso   1.000  O
  O7       1.0000 0.96560  0.87810  0.19272  Biso   1.000  O
  O8       1.0000 0.96560  0.62190  0.69272  Biso   1.000  O
  H1       1.0000 0.95200  0.10700  0.81200  Biso   1.000  H
  H2       1.0000 0.95200  0.39300  0.31200  Biso   1.000  H
  H3       1.0000 0.04800  0.89300  0.18800  Biso   1.000  H
  H4       1.0000 0.04800  0.60700  0.68800  Biso   1.000  H
  N1       1.0000 0.25470  0.94410  0.87962  Biso   1.000  N
  N2       1.0000 0.25470  0.55590  0.37962  Biso   1.000  N
  N3       1.0000 0.74530  0.05590  0.12038  Biso   1.000  N
  N4       1.0000 0.74530  0.44410  0.62038  Biso   1.000  N
  H5       1.0000 0.33200  0.95900  0.89000  Biso   1.000  H
  H6       1.0000 0.33200  0.54100  0.39000  Biso   1.000  H
  H7       1.0000 0.66800  0.04100  0.11000  Biso   1.000  H
  H8       1.0000 0.66800  0.45900  0.61000  Biso   1.000  H
  N5       1.0000 0.24640  0.22880  0.96897  Biso   1.000  N
  N6       1.0000 0.24640  0.27120  0.46897  Biso   1.000  N
  N7       1.0000 0.75360  0.77120  0.03103  Biso   1.000  N
  N8       1.0000 0.75360  0.72880  0.53103  Biso   1.000  N
  C1       1.0000 0.07370  0.77320  0.92390  Biso   1.000  C
  C2       1.0000 0.07370  0.72680  0.42390  Biso   1.000  C
  C3       1.0000 0.92630  0.22680  0.07610  Biso   1.000  C
  C4       1.0000 0.92630  0.27320  0.57610  Biso   1.000  C
  H9       1.0000 0.01960  0.75400  0.86880  Biso   1.000  H
  H10      1.0000 0.01960  0.74600  0.36880  Biso   1.000  H
  H11      1.0000 0.98040  0.24600  0.13120  Biso   1.000  H
  H12      1.0000 0.98040  0.25400  0.63120  Biso   1.000  H
  H13      1.0000 0.06510  0.69390  0.96300  Biso   1.000  H
  H14      1.0000 0.06510  0.80610  0.46300  Biso   1.000  H
  H15      1.0000 0.93490  0.30610  0.03700  Biso   1.000  H
  H16      1.0000 0.93490  0.19390  0.53700  Biso   1.000  H
  C5       1.0000 0.22960  0.79770  0.90520  Biso   1.000  C
  C6       1.0000 0.22960  0.70230  0.40520  Biso   1.000  C
  C7       1.0000 0.77040  0.20230  0.09480  Biso   1.000  C
  C8       1.0000 0.77040  0.29770  0.59480  Biso   1.000  C
  H17      1.0000 0.28890  0.77540  0.95770  Biso   1.000  H
  H18      1.0000 0.28890  0.72460  0.45770  Biso   1.000  H
  H19      1.0000 0.71110  0.22460  0.04230  Biso   1.000  H
  H20      1.0000 0.71110  0.27540  0.54230  Biso   1.000  H
  H21      1.0000 0.25760  0.73710  0.85740  Biso   1.000  H
  H22      1.0000 0.25760  0.76290  0.35740  Biso   1.000  H
  H23      1.0000 0.74240  0.26290  0.14260  Biso   1.000  H
  H24      1.0000 0.74240  0.23710  0.64260  Biso   1.000  H
  C9       1.0000 0.23260  0.97530  0.78410  Biso   1.000  C
  C10      1.0000 0.23260  0.52470  0.28410  Biso   1.000  C
  C11      1.0000 0.76740  0.02470  0.21590  Biso   1.000  C
  C12      1.0000 0.76740  0.47530  0.71590  Biso   1.000  C
  H25      1.0000 0.26560  0.89710  0.74980  Biso   1.000  H
  H26      1.0000 0.26560  0.60290  0.24980  Biso   1.000  H
  H27      1.0000 0.73440  0.10290  0.25020  Biso   1.000  H
  H28      1.0000 0.73440  0.39710  0.75020  Biso   1.000  H
  H29      1.0000 0.29080  0.05490  0.76950  Biso   1.000  H
  H30      1.0000 0.29080  0.44510  0.26950  Biso   1.000  H
  H31      1.0000 0.70920  0.94510  0.23050  Biso   1.000  H
  H32      1.0000 0.70920  0.55490  0.73050  Biso   1.000  H
  C13      1.0000 0.07910  0.00470  0.75750  Biso   1.000  C
  C14      1.0000 0.07910  0.49530  0.25750  Biso   1.000  C
  C15      1.0000 0.92090  0.99530  0.24250  Biso   1.000  C
  C16      1.0000 0.92090  0.50470  0.74250  Biso   1.000  C
  H33      1.0000 0.07000  0.02430  0.69430  Biso   1.000  H
  H34      1.0000 0.07000  0.47570  0.19430  Biso   1.000  H
  H35      1.0000 0.93000  0.97570  0.30570  Biso   1.000  H
  H36      1.0000 0.93000  0.52430  0.80570  Biso   1.000  H
  H37      1.0000 0.01950  0.92510  0.77000  Biso   1.000  H
  H38      1.0000 0.01950  0.57490  0.27000  Biso   1.000  H
  H39      1.0000 0.98050  0.07490  0.23000  Biso   1.000  H
  H40      1.0000 0.98050  0.42510  0.73000  Biso   1.000  H
  C17      1.0000 0.28270  0.30940  0.90153  Biso   1.000  C
  C18      1.0000 0.28270  0.19060  0.40153  Biso   1.000  C
  C19      1.0000 0.71730  0.69060  0.09847  Biso   1.000  C
  C20      1.0000 0.71730  0.80940  0.59847  Biso   1.000  C
  H41      1.0000 0.23990  0.29310  0.84560  Biso   1.000  H
  H42      1.0000 0.23990  0.20690  0.34560  Biso   1.000  H
  H43      1.0000 0.76010  0.70690  0.15440  Biso   1.000  H
  H44      1.0000 0.76010  0.79310  0.65440  Biso   1.000  H
  C21      1.0000 0.38100  0.41600  0.91100  Biso   1.000  C
  C22      1.0000 0.38100  0.08400  0.41100  Biso   1.000  C
  C23      1.0000 0.61900  0.58400  0.08900  Biso   1.000  C
  C24      1.0000 0.61900  0.91600  0.58900  Biso   1.000  C
  H45      1.0000 0.40400  0.46880  0.86190  Biso   1.000  H
  H46      1.0000 0.40400  0.03120  0.36190  Biso   1.000  H
  H47      1.0000 0.59600  0.53120  0.13810  Biso   1.000  H
  H48      1.0000 0.59600  0.96880  0.63810  Biso   1.000  H
  C25      1.0000 0.44550  0.44450  0.99356  Biso   1.000  C
  C26      1.0000 0.44550  0.05550  0.49356  Biso   1.000  C
  C27      1.0000 0.55450  0.55550  0.00644  Biso   1.000  C
  C28      1.0000 0.55450  0.94450  0.50644  Biso   1.000  C
  C29      1.0000 0.40320  0.36260  0.06391  Biso   1.000  C
  C30      1.0000 0.40320  0.13740  0.56391  Biso   1.000  C
  C31      1.0000 0.59680  0.63740  0.93609  Biso   1.000  C
  C32      1.0000 0.59680  0.86260  0.43609  Biso   1.000  C
  H49      1.0000 0.44150  0.37870  0.12100  Biso   1.000  H
  H50      1.0000 0.44150  0.12130  0.62100  Biso   1.000  H
  H51      1.0000 0.55850  0.62130  0.87900  Biso   1.000  H
  H52      1.0000 0.55850  0.87870  0.37900  Biso   1.000  H
  C33      1.0000 0.30470  0.25780  0.04928  Biso   1.000  C
  C34      1.0000 0.30470  0.24220  0.54928  Biso   1.000  C
  C35      1.0000 0.69530  0.74220  0.95072  Biso   1.000  C
  C36      1.0000 0.69530  0.75780  0.45072  Biso   1.000  C
  H53      1.0000 0.27760  0.20490  0.09750  Biso   1.000  H
  H54      1.0000 0.27760  0.29510  0.59750  Biso   1.000  H
  H55      1.0000 0.72240  0.79510  0.90250  Biso   1.000  H
  H56      1.0000 0.72240  0.70490  0.40250  Biso   1.000  H
  Cl1      1.0000 0.64131  0.11232  0.83874  Biso   1.000  Cl
  Cl2      1.0000 0.64131  0.38768  0.33874  Biso   1.000  Cl
  Cl3      1.0000 0.35869  0.88768  0.16126  Biso   1.000  Cl
  Cl4      1.0000 0.35869  0.61232  0.66126  Biso   1.000  Cl
  O9       1.0000 0.73390  0.22190  0.86824  Biso   1.000  O
  O10      1.0000 0.73390  0.27810  0.36824  Biso   1.000  O
  O11      1.0000 0.26610  0.77810  0.13176  Biso   1.000  O
  O12      1.0000 0.26610  0.72190  0.63176  Biso   1.000  O
  O13      1.0000 0.73020  0.00800  0.79950  Biso   1.000  O
  O14      1.0000 0.73020  0.49200  0.29950  Biso   1.000  O
  O15      1.0000 0.26980  0.99200  0.20050  Biso   1.000  O
  O16      1.0000 0.26980  0.50800  0.70050  Biso   1.000  O
  O17      1.0000 0.54100  0.16260  0.77282  Biso   1.000  O
  O18      1.0000 0.54100  0.33740  0.27282  Biso   1.000  O
  O19      1.0000 0.45900  0.83740  0.22718  Biso   1.000  O
  O20      1.0000 0.45900  0.66260  0.72718  Biso   1.000  O
  O21      1.0000 0.57000  0.05690  0.91326  Biso   1.000  O
  O22      1.0000 0.57000  0.44310  0.41326  Biso   1.000  O
  O23      1.0000 0.43000  0.94310  0.08674  Biso   1.000  O
  O24      1.0000 0.43000  0.55690  0.58674  Biso   1.000  O
