data_image0
_cell_length_a       13.3596
_cell_length_b       14.1151
_cell_length_c       14.9091
_cell_angle_alpha    112.633
_cell_angle_beta     97.054
_cell_angle_gamma    108.391

_symmetry_space_group_name_H-M    "P 1"
_symmetry_int_tables_number       1

loop_
  _symmetry_equiv_pos_as_xyz
  'x, y, z'

loop_
  _atom_site_label
  _atom_site_occupancy
  _atom_site_fract_x
  _atom_site_fract_y
  _atom_site_fract_z
  _atom_site_thermal_displace_type
  _atom_site_B_iso_or_equiv
  _atom_site_type_symbol
  Cu1      1.0000 0.93567  0.04293  0.07356  Biso   1.000  Cu
  Cu2      1.0000 0.06433  0.95707  0.92644  Biso   1.000  Cu
  Cu3      1.0000 0.57092  0.96874  0.43100  Biso   1.000  Cu
  Cu4      1.0000 0.42908  0.03126  0.56900  Biso   1.000  Cu
  O1       1.0000 0.05060  0.98480  0.06270  Biso   1.000  O
  O2       1.0000 0.94940  0.01520  0.93730  Biso   1.000  O
  O3       1.0000 0.44280  0.00450  0.43570  Biso   1.000  O
  O4       1.0000 0.55720  0.99550  0.56430  Biso   1.000  O
  N1       1.0000 0.92620  0.04090  0.20560  Biso   1.000  N
  N2       1.0000 0.07380  0.95910  0.79440  Biso   1.000  N
  H1       1.0000 0.90550  0.09740  0.24150  Biso   1.000  H
  H2       1.0000 0.09450  0.90260  0.75850  Biso   1.000  H
  H3       1.0000 0.87110  0.97450  0.19240  Biso   1.000  H
  H4       1.0000 0.12890  0.02550  0.80760  Biso   1.000  H
  N3       1.0000 0.58420  0.98550  0.30570  Biso   1.000  N
  N4       1.0000 0.41580  0.01450  0.69430  Biso   1.000  N
  H5       1.0000 0.62810  0.05900  0.32510  Biso   1.000  H
  H6       1.0000 0.37190  0.94100  0.67490  Biso   1.000  H
  H7       1.0000 0.62110  0.94320  0.27430  Biso   1.000  H
  H8       1.0000 0.37890  0.05680  0.72570  Biso   1.000  H
  N5       1.0000 0.05000  0.22820  0.14710  Biso   1.000  N
  N6       1.0000 0.95000  0.77180  0.85290  Biso   1.000  N
  N7       1.0000 0.47350  0.77130  0.35670  Biso   1.000  N
  N8       1.0000 0.52650  0.22870  0.64330  Biso   1.000  N
  N9       1.0000 0.77790  0.03110  0.04220  Biso   1.000  N
  N10      1.0000 0.22210  0.96890  0.95780  Biso   1.000  N
  N11      1.0000 0.72440  0.97600  0.45890  Biso   1.000  N
  N12      1.0000 0.27560  0.02400  0.54110  Biso   1.000  N
  N13      1.0000 0.05250  0.34260  0.72180  Biso   1.000  N
  N14      1.0000 0.94750  0.65740  0.27820  Biso   1.000  N
  N15      1.0000 0.76740  0.35350  0.09800  Biso   1.000  N
  N16      1.0000 0.23260  0.64650  0.90200  Biso   1.000  N
  C1       1.0000 0.11290  0.97070  0.13640  Biso   1.000  C
  C2       1.0000 0.88710  0.02930  0.86360  Biso   1.000  C
  H9       1.0000 0.18310  0.03710  0.17180  Biso   1.000  H
  H10      1.0000 0.81690  0.96290  0.82820  Biso   1.000  H
  H11      1.0000 0.13050  0.90490  0.10210  Biso   1.000  H
  H12      1.0000 0.86950  0.09510  0.89790  Biso   1.000  H
  C3       1.0000 0.05630  0.95480  0.21280  Biso   1.000  C
  C4       1.0000 0.94370  0.04520  0.78720  Biso   1.000  C
  H13      1.0000 0.10510  0.94630  0.26220  Biso   1.000  H
  H14      1.0000 0.89490  0.05370  0.73780  Biso   1.000  H
  H15      1.0000 0.98900  0.88510  0.17840  Biso   1.000  H
  H16      1.0000 0.01100  0.11490  0.82160  Biso   1.000  H
  C5       1.0000 0.02510  0.05330  0.26990  Biso   1.000  C
  C6       1.0000 0.97490  0.94670  0.73010  Biso   1.000  C
  H17      1.0000 0.01200  0.05360  0.33390  Biso   1.000  H
  H18      1.0000 0.98800  0.94640  0.66610  Biso   1.000  H
  H19      1.0000 0.08560  0.12500  0.28640  Biso   1.000  H
  H20      1.0000 0.91440  0.87500  0.71360  Biso   1.000  H
  C7       1.0000 0.36390  0.98390  0.34980  Biso   1.000  C
  C8       1.0000 0.63610  0.01610  0.65020  Biso   1.000  C
  H21      1.0000 0.31680  0.02490  0.37280  Biso   1.000  H
  H22      1.0000 0.68320  0.97510  0.62720  Biso   1.000  H
  H23      1.0000 0.31640  0.90310  0.31370  Biso   1.000  H
  H24      1.0000 0.68360  0.09690  0.68630  Biso   1.000  H
  C9       1.0000 0.41810  0.02040  0.27540  Biso   1.000  C
  C10      1.0000 0.58190  0.97960  0.72460  Biso   1.000  C
  H25      1.0000 0.35990  0.01170  0.22120  Biso   1.000  H
  H26      1.0000 0.64010  0.98830  0.77880  Biso   1.000  H
  H27      1.0000 0.46760  0.10060  0.31230  Biso   1.000  H
  H28      1.0000 0.53240  0.89940  0.68770  Biso   1.000  H
  C11      1.0000 0.48220  0.95500  0.22820  Biso   1.000  C
  C12      1.0000 0.51780  0.04500  0.77180  Biso   1.000  C
  H29      1.0000 0.50200  0.97090  0.17210  Biso   1.000  H
  H30      1.0000 0.49800  0.02910  0.82790  Biso   1.000  H
  H31      1.0000 0.43670  0.87400  0.19980  Biso   1.000  H
  H32      1.0000 0.56330  0.12600  0.80020  Biso   1.000  H
  C13      1.0000 0.05970  0.30790  0.22940  Biso   1.000  C
  C14      1.0000 0.94030  0.69210  0.77060  Biso   1.000  C
  H33      1.0000 0.00450  0.29180  0.26230  Biso   1.000  H
  H34      1.0000 0.99550  0.70820  0.73770  Biso   1.000  H
  C15      1.0000 0.14140  0.41750  0.27910  Biso   1.000  C
  C16      1.0000 0.85860  0.58250  0.72090  Biso   1.000  C
  H35      1.0000 0.14030  0.47060  0.34160  Biso   1.000  H
  H36      1.0000 0.85970  0.52940  0.65840  Biso   1.000  H
  C17      1.0000 0.22260  0.44520  0.23420  Biso   1.000  C
  C18      1.0000 0.77740  0.55480  0.76580  Biso   1.000  C
  C19      1.0000 0.21300  0.35670  0.14110  Biso   1.000  C
  C20      1.0000 0.78700  0.64330  0.85890  Biso   1.000  C
  H37      1.0000 0.26640  0.36840  0.10560  Biso   1.000  H
  H38      1.0000 0.73360  0.63160  0.89440  Biso   1.000  H
  C21      1.0000 0.12770  0.25520  0.10250  Biso   1.000  C
  C22      1.0000 0.87230  0.74480  0.89750  Biso   1.000  C
  H39      1.0000 0.12320  0.19940  0.03900  Biso   1.000  H
  H40      1.0000 0.87680  0.80060  0.96100  Biso   1.000  H
  C23      1.0000 0.45190  0.70260  0.26690  Biso   1.000  C
  C24      1.0000 0.54810  0.29740  0.73310  Biso   1.000  C
  H41      1.0000 0.49320  0.72650  0.22650  Biso   1.000  H
  H42      1.0000 0.50680  0.27350  0.77350  Biso   1.000  H
  C25      1.0000 0.37320  0.59480  0.22080  Biso   1.000  C
  C26      1.0000 0.62680  0.40520  0.77920  Biso   1.000  C
  H43      1.0000 0.36010  0.54790  0.15110  Biso   1.000  H
  H44      1.0000 0.63990  0.45210  0.84890  Biso   1.000  H
  C27      1.0000 0.31470  0.55700  0.27760  Biso   1.000  C
  C28      1.0000 0.68530  0.44300  0.72240  Biso   1.000  C
  C29      1.0000 0.33920  0.63410  0.38080  Biso   1.000  C
  C30      1.0000 0.66080  0.36590  0.61920  Biso   1.000  C
  H45      1.0000 0.30070  0.61330  0.42430  Biso   1.000  H
  H46      1.0000 0.69930  0.38670  0.57570  Biso   1.000  H
  C31      1.0000 0.41930  0.73860  0.41620  Biso   1.000  C
  C32      1.0000 0.58070  0.26140  0.58380  Biso   1.000  C
  H47      1.0000 0.43700  0.78980  0.48540  Biso   1.000  H
  H48      1.0000 0.56300  0.21020  0.51460  Biso   1.000  H
  C33      1.0000 0.74910  0.11100  0.10150  Biso   1.000  C
  C34      1.0000 0.25090  0.88900  0.89850  Biso   1.000  C
  H49      1.0000 0.80510  0.17710  0.15450  Biso   1.000  H
  H50      1.0000 0.19490  0.82290  0.84550  Biso   1.000  H
  C35      1.0000 0.64190  0.10180  0.08940  Biso   1.000  C
  C36      1.0000 0.35810  0.89820  0.91060  Biso   1.000  C
  H51      1.0000 0.62500  0.15940  0.13520  Biso   1.000  H
  H52      1.0000 0.37500  0.84060  0.86480  Biso   1.000  H
  C37      1.0000 0.55800  0.00740  0.00940  Biso   1.000  C
  C38      1.0000 0.44200  0.99260  0.99060  Biso   1.000  C
  C39      1.0000 0.59190  0.92580  0.94920  Biso   1.000  C
  C40      1.0000 0.40810  0.07420  0.05080  Biso   1.000  C
  H53      1.0000 0.53860  0.85850  0.89510  Biso   1.000  H
  H54      1.0000 0.46140  0.14150  0.10490  Biso   1.000  H
  C41      1.0000 0.69930  0.94110  0.96700  Biso   1.000  C
  C42      1.0000 0.30070  0.05890  0.03300  Biso   1.000  C
  H55      1.0000 0.71880  0.88450  0.92340  Biso   1.000  H
  H56      1.0000 0.28120  0.11550  0.07660  Biso   1.000  H
  C43      1.0000 0.75100  0.89270  0.45560  Biso   1.000  C
  C44      1.0000 0.24900  0.10730  0.54440  Biso   1.000  C
  H57      1.0000 0.69290  0.82500  0.44200  Biso   1.000  H
  H58      1.0000 0.30710  0.17500  0.55800  Biso   1.000  H
  C45      1.0000 0.85660  0.89560  0.47020  Biso   1.000  C
  C46      1.0000 0.14340  0.10440  0.52980  Biso   1.000  C
  H59      1.0000 0.86950  0.83150  0.46510  Biso   1.000  H
  H60      1.0000 0.13050  0.16850  0.53490  Biso   1.000  H
  C47      1.0000 0.94380  0.99560  0.49280  Biso   1.000  C
  C48      1.0000 0.05620  0.00440  0.50720  Biso   1.000  C
  C49      1.0000 0.91500  0.08400  0.49690  Biso   1.000  C
  C50      1.0000 0.08500  0.91600  0.50310  Biso   1.000  C
  H61      1.0000 0.97000  0.15370  0.51060  Biso   1.000  H
  H62      1.0000 0.03000  0.84630  0.48940  Biso   1.000  H
  C51      1.0000 0.80740  0.06920  0.48100  Biso   1.000  C
  C52      1.0000 0.19260  0.93080  0.51900  Biso   1.000  C
  H63      1.0000 0.79100  0.13160  0.48640  Biso   1.000  H
  H64      1.0000 0.20900  0.86840  0.51360  Biso   1.000  H
  C53      1.0000 0.09880  0.34350  0.80670  Biso   1.000  C
  C54      1.0000 0.90120  0.65650  0.19330  Biso   1.000  C
  H65      1.0000 0.17120  0.34550  0.81690  Biso   1.000  H
  H66      1.0000 0.82880  0.65450  0.18310  Biso   1.000  H
  C55      1.0000 0.04560  0.34170  0.88140  Biso   1.000  C
  C56      1.0000 0.95440  0.65830  0.11860  Biso   1.000  C
  H67      1.0000 0.08240  0.34150  0.94000  Biso   1.000  H
  H68      1.0000 0.91760  0.65850  0.06000  Biso   1.000  H
  C57      1.0000 0.94130  0.34020  0.87230  Biso   1.000  C
  C58      1.0000 0.05870  0.65980  0.12770  Biso   1.000  C
  C59      1.0000 0.89520  0.33960  0.78300  Biso   1.000  C
  C60      1.0000 0.10480  0.66040  0.21700  Biso   1.000  C
  H69      1.0000 0.82380  0.33990  0.77110  Biso   1.000  H
  H70      1.0000 0.17620  0.66010  0.22890  Biso   1.000  H
  C61      1.0000 0.95060  0.33860  0.71320  Biso   1.000  C
  C62      1.0000 0.04940  0.66140  0.28680  Biso   1.000  C
  H71      1.0000 0.91370  0.33470  0.65240  Biso   1.000  H
  H72      1.0000 0.08630  0.66530  0.34760  Biso   1.000  H
  C63      1.0000 0.71660  0.31490  0.99720  Biso   1.000  C
  C64      1.0000 0.28340  0.68510  0.00280  Biso   1.000  C
  H73      1.0000 0.63900  0.29090  0.97720  Biso   1.000  H
  H74      1.0000 0.36100  0.70910  0.02280  Biso   1.000  H
  C65      1.0000 0.76900  0.30890  0.92590  Biso   1.000  C
  C66      1.0000 0.23100  0.69110  0.07410  Biso   1.000  C
  H75      1.0000 0.72820  0.28310  0.85830  Biso   1.000  H
  H76      1.0000 0.27180  0.71690  0.14170  Biso   1.000  H
  C67      1.0000 0.88200  0.33960  0.94860  Biso   1.000  C
  C68      1.0000 0.11800  0.66040  0.05140  Biso   1.000  C
  C69      1.0000 0.93580  0.37950  0.05100  Biso   1.000  C
  C70      1.0000 0.06420  0.62050  0.94900  Biso   1.000  C
  H77      1.0000 0.01320  0.40270  0.07250  Biso   1.000  H
  H78      1.0000 0.98680  0.59730  0.92750  Biso   1.000  H
  C71      1.0000 0.87430  0.38470  0.12120  Biso   1.000  C
  C72      1.0000 0.12570  0.61530  0.87880  Biso   1.000  C
  H79      1.0000 0.91260  0.41280  0.19000  Biso   1.000  H
  H80      1.0000 0.08740  0.58720  0.81000  Biso   1.000  H
  Cl1      1.0000 0.82460  0.30576  0.39690  Biso   1.000  Cl
  Cl2      1.0000 0.17540  0.69424  0.60310  Biso   1.000  Cl
  O5       1.0000 0.88250  0.38970  0.49900  Biso   1.000  O
  O6       1.0000 0.11750  0.61030  0.50100  Biso   1.000  O
  O7       1.0000 0.71350  0.24630  0.39190  Biso   1.000  O
  O8       1.0000 0.28650  0.75370  0.60810  Biso   1.000  O
  O9       1.0000 0.82860  0.35250  0.32770  Biso   1.000  O
  O10      1.0000 0.17140  0.64750  0.67230  Biso   1.000  O
  O11      1.0000 0.88080  0.23080  0.37080  Biso   1.000  O
  O12      1.0000 0.11920  0.76920  0.62920  Biso   1.000  O
  Cl3      1.0000 0.37060  0.29994  0.36381  Biso   1.000  Cl
  Cl4      1.0000 0.62940  0.70006  0.63619  Biso   1.000  Cl
  O13      1.0000 0.36900  0.40970  0.39820  Biso   1.000  O
  O14      1.0000 0.63100  0.59030  0.60180  Biso   1.000  O
  O15      1.0000 0.29720  0.23370  0.39690  Biso   1.000  O
  O16      1.0000 0.70280  0.76630  0.60310  Biso   1.000  O
  O17      1.0000 0.47900  0.31400  0.40530  Biso   1.000  O
  O18      1.0000 0.52100  0.68600  0.59470  Biso   1.000  O
  O19      1.0000 0.34250  0.24810  0.25690  Biso   1.000  O
  O20      1.0000 0.65750  0.75190  0.74310  Biso   1.000  O
  Cl5      1.0000 0.67130  0.76230  0.11722  Biso   1.000  Cl
  Cl6      1.0000 0.32870  0.23770  0.88278  Biso   1.000  Cl
  O21      1.0000 0.64060  0.64360  0.08560  Biso   1.000  O
  O22      1.0000 0.35940  0.35640  0.91440  Biso   1.000  O
  O23      1.0000 0.71760  0.82240  0.22320  Biso   1.000  O
  O24      1.0000 0.28240  0.17760  0.77680  Biso   1.000  O
  O25      1.0000 0.57500  0.77890  0.08980  Biso   1.000  O
  O26      1.0000 0.42500  0.22110  0.91020  Biso   1.000  O
  O27      1.0000 0.74820  0.79410  0.06780  Biso   1.000  O
  O28      1.0000 0.25180  0.20590  0.93220  Biso   1.000  O
  O29      1.0000 0.60450  0.34070  0.19810  Biso   1.000  O
  O30      1.0000 0.39550  0.65930  0.80190  Biso   1.000  O
  C73      1.0000 0.56110  0.41410  0.17970  Biso   1.000  C
  C74      1.0000 0.43890  0.58590  0.82030  Biso   1.000  C
  H81      1.0000 0.48250  0.38900  0.17780  Biso   1.000  H
  H82      1.0000 0.51750  0.61100  0.82220  Biso   1.000  H
  H83      1.0000 0.56640  0.41020  0.11280  Biso   1.000  H
  H84      1.0000 0.43360  0.58980  0.88720  Biso   1.000  H
  C75      1.0000 0.61950  0.53010  0.25740  Biso   1.000  C
  C76      1.0000 0.38050  0.46990  0.74260  Biso   1.000  C
  H85      1.0000 0.59120  0.57800  0.23710  Biso   1.000  H
  H86      1.0000 0.40880  0.42200  0.76290  Biso   1.000  H
  H87      1.0000 0.69830  0.55400  0.25990  Biso   1.000  H
  H88      1.0000 0.30170  0.44600  0.74010  Biso   1.000  H
  C77      1.0000 0.60980  0.54970  0.35970  Biso   1.000  C
  C78      1.0000 0.39020  0.45030  0.64030  Biso   1.000  C
  H89      1.0000 0.53110  0.52190  0.35720  Biso   1.000  H
  H90      1.0000 0.46890  0.47810  0.64280  Biso   1.000  H
  H91      1.0000 0.64310  0.63110  0.40490  Biso   1.000  H
  H92      1.0000 0.35690  0.36890  0.59510  Biso   1.000  H
  N17      1.0000 0.66470  0.49330  0.40290  Biso   1.000  N
  N18      1.0000 0.33530  0.50670  0.59710  Biso   1.000  N
  O31      1.0000 0.11600  0.36320  0.55530  Biso   1.000  O
  O32      1.0000 0.88400  0.63680  0.44470  Biso   1.000  O
