data_image0
_cell_length_a       7.068
_cell_length_b       7.539
_cell_length_c       9.22
_cell_angle_alpha    99.508
_cell_angle_beta     103.004
_cell_angle_gamma    100.944

_symmetry_space_group_name_H-M    "P 1"
_symmetry_int_tables_number       1

loop_
  _symmetry_equiv_pos_as_xyz
  'x, y, z'

loop_
  _atom_site_label
  _atom_site_occupancy
  _atom_site_fract_x
  _atom_site_fract_y
  _atom_site_fract_z
  _atom_site_thermal_displace_type
  _atom_site_B_iso_or_equiv
  _atom_site_type_symbol
  Cu1      1.0000 0.00000  0.00000  0.00000  Biso   1.000  Cu
  O1       1.0000 0.15760  0.05270  0.21320  Biso   1.000  O
  O2       1.0000 0.84240  0.94730  0.78680  Biso   1.000  O
  O3       1.0000 0.89220  0.13400  0.26520  Biso   1.000  O
  O4       1.0000 0.10780  0.86600  0.73480  Biso   1.000  O
  C1       1.0000 0.06410  0.11650  0.30550  Biso   1.000  C
  C2       1.0000 0.93590  0.88350  0.69450  Biso   1.000  C
  C3       1.0000 0.18260  0.17720  0.47200  Biso   1.000  C
  C4       1.0000 0.81740  0.82280  0.52800  Biso   1.000  C
  H1       1.0000 0.09540  0.20730  0.53500  Biso   1.000  H
  H2       1.0000 0.90460  0.79270  0.46500  Biso   1.000  H
  H3       1.0000 0.23780  0.07720  0.50390  Biso   1.000  H
  H4       1.0000 0.76220  0.92280  0.49610  Biso   1.000  H
  C5       1.0000 0.35010  0.34510  0.49190  Biso   1.000  C
  C6       1.0000 0.64990  0.65490  0.50810  Biso   1.000  C
  C7       1.0000 0.31440  0.51980  0.50840  Biso   1.000  C
  C8       1.0000 0.68560  0.48020  0.49160  Biso   1.000  C
  H5       1.0000 0.18860  0.53520  0.51420  Biso   1.000  H
  H6       1.0000 0.81140  0.46480  0.48580  Biso   1.000  H
  C9       1.0000 0.53780  0.32810  0.48350  Biso   1.000  C
  C10      1.0000 0.46220  0.67190  0.51650  Biso   1.000  C
  H7       1.0000 0.56540  0.21150  0.47220  Biso   1.000  H
  H8       1.0000 0.43460  0.78850  0.52780  Biso   1.000  H
  N1       1.0000 0.12890  0.25140  0.98360  Biso   1.000  N
  N2       1.0000 0.87110  0.74860  0.01640  Biso   1.000  N
  C11      1.0000 0.26890  0.37910  0.09080  Biso   1.000  C
  C12      1.0000 0.73110  0.62090  0.90920  Biso   1.000  C
  H9       1.0000 0.33120  0.36090  0.18550  Biso   1.000  H
  H10      1.0000 0.66880  0.63910  0.81450  Biso   1.000  H
  N3       1.0000 0.30750  0.53610  0.04410  Biso   1.000  N
  N4       1.0000 0.69250  0.46390  0.95590  Biso   1.000  N
  H11      1.0000 0.39280  0.63620  0.09600  Biso   1.000  H
  H12      1.0000 0.60720  0.36380  0.90400  Biso   1.000  H
  C13      1.0000 0.19020  0.51260  0.90090  Biso   1.000  C
  C14      1.0000 0.80980  0.48740  0.09910  Biso   1.000  C
  H13      1.0000 0.18600  0.59990  0.84060  Biso   1.000  H
  H14      1.0000 0.81400  0.40010  0.15940  Biso   1.000  H
  C15      1.0000 0.08050  0.33620  0.86380  Biso   1.000  C
  C16      1.0000 0.91950  0.66380  0.13620  Biso   1.000  C
  H15      1.0000 0.98660  0.28060  0.77130  Biso   1.000  H
  H16      1.0000 0.01340  0.71940  0.22870  Biso   1.000  H
  O5       1.0000 0.50000  0.89960  0.19350  Biso   1.000  O
  O6       1.0000 0.50000  0.10040  0.80650  Biso   1.000  O
  H17      1.0000 0.41600  0.96250  0.21030  Biso   1.000  H
  H18      1.0000 0.58400  0.03750  0.78970  Biso   1.000  H
  H19      1.0000 0.61250  0.97100  0.20170  Biso   1.000  H
  H20      1.0000 0.38750  0.02900  0.79830  Biso   1.000  H
