data_image0
_cell_length_a       9.751
_cell_length_b       10.597
_cell_length_c       10.616
_cell_angle_alpha    116.955
_cell_angle_beta     96.363
_cell_angle_gamma    103.47

_symmetry_space_group_name_H-M    "P 1"
_symmetry_int_tables_number       1

loop_
  _symmetry_equiv_pos_as_xyz
  'x, y, z'

loop_
  _atom_site_label
  _atom_site_occupancy
  _atom_site_fract_x
  _atom_site_fract_y
  _atom_site_fract_z
  _atom_site_thermal_displace_type
  _atom_site_B_iso_or_equiv
  _atom_site_type_symbol
  Cu1      1.0000 0.38689  0.83294  0.54658  Biso   1.000  Cu
  Cu2      1.0000 0.61311  0.16706  0.45342  Biso   1.000  Cu
  C1       1.0000 0.30450  0.02780  0.37990  Biso   1.000  C
  C2       1.0000 0.69550  0.97220  0.62010  Biso   1.000  C
  C3       1.0000 0.15160  0.00850  0.30900  Biso   1.000  C
  C4       1.0000 0.84840  0.99150  0.69100  Biso   1.000  C
  H1       1.0000 0.14160  0.10530  0.33330  Biso   1.000  H
  H2       1.0000 0.85840  0.89470  0.66670  Biso   1.000  H
  H3       1.0000 0.08120  0.96070  0.34470  Biso   1.000  H
  H4       1.0000 0.91880  0.03930  0.65530  Biso   1.000  H
  C5       1.0000 0.12320  0.91220  0.14360  Biso   1.000  C
  C6       1.0000 0.87680  0.08780  0.85640  Biso   1.000  C
  C7       1.0000 0.15100  0.97590  0.05980  Biso   1.000  C
  C8       1.0000 0.84900  0.02410  0.94020  Biso   1.000  C
  H5       1.0000 0.18550  0.07940  0.10320  Biso   1.000  H
  H6       1.0000 0.81450  0.92060  0.89680  Biso   1.000  H
  C9       1.0000 0.12890  0.88920  0.91080  Biso   1.000  C
  C10      1.0000 0.87110  0.11080  0.08920  Biso   1.000  C
  H7       1.0000 0.14860  0.93570  0.85570  Biso   1.000  H
  H8       1.0000 0.85140  0.06430  0.14430  Biso   1.000  H
  C11      1.0000 0.07840  0.73530  0.84190  Biso   1.000  C
  C12      1.0000 0.92160  0.26470  0.15810  Biso   1.000  C
  C13      1.0000 0.05140  0.67220  0.92710  Biso   1.000  C
  C14      1.0000 0.94860  0.32780  0.07290  Biso   1.000  C
  H9       1.0000 0.01820  0.56870  0.88370  Biso   1.000  H
  H10      1.0000 0.98180  0.43130  0.11630  Biso   1.000  H
  C15      1.0000 0.07180  0.75750  0.07620  Biso   1.000  C
  C16      1.0000 0.92820  0.24250  0.92380  Biso   1.000  C
  H11      1.0000 0.05100  0.71120  0.13130  Biso   1.000  H
  H12      1.0000 0.94900  0.28880  0.86870  Biso   1.000  H
  C17      1.0000 0.05290  0.64600  0.67880  Biso   1.000  C
  C18      1.0000 0.94710  0.35400  0.32120  Biso   1.000  C
  H13      1.0000 0.02530  0.54040  0.64840  Biso   1.000  H
  H14      1.0000 0.97470  0.45960  0.35160  Biso   1.000  H
  H15      1.0000 0.97320  0.66300  0.63230  Biso   1.000  H
  H16      1.0000 0.02680  0.33700  0.36770  Biso   1.000  H
  C19      1.0000 0.18680  0.68840  0.63030  Biso   1.000  C
  C20      1.0000 0.81320  0.31160  0.36970  Biso   1.000  C
  C21      1.0000 0.30050  0.09140  0.72670  Biso   1.000  C
  C22      1.0000 0.69950  0.90860  0.27330  Biso   1.000  C
  H17      1.0000 0.23790  0.05860  0.63760  Biso   1.000  H
  H18      1.0000 0.76210  0.94140  0.36240  Biso   1.000  H
  C23      1.0000 0.29200  0.21120  0.84690  Biso   1.000  C
  C24      1.0000 0.70800  0.78880  0.15310  Biso   1.000  C
  H19      1.0000 0.22500  0.25840  0.83850  Biso   1.000  H
  H20      1.0000 0.77500  0.74160  0.16150  Biso   1.000  H
  C25      1.0000 0.38360  0.26310  0.98230  Biso   1.000  C
  C26      1.0000 0.61640  0.73690  0.01770  Biso   1.000  C
  C27      1.0000 0.48270  0.18830  0.98660  Biso   1.000  C
  C28      1.0000 0.51730  0.81170  0.01340  Biso   1.000  C
  H21      1.0000 0.54650  0.21880  0.07440  Biso   1.000  H
  H22      1.0000 0.45350  0.78120  0.92560  Biso   1.000  H
  C29      1.0000 0.48510  0.06920  0.86000  Biso   1.000  C
  C30      1.0000 0.51490  0.93080  0.14000  Biso   1.000  C
  H23      1.0000 0.55280  0.02150  0.86440  Biso   1.000  H
  H24      1.0000 0.44720  0.97850  0.13560  Biso   1.000  H
  C31      1.0000 0.37780  0.39400  0.11320  Biso   1.000  C
  C32      1.0000 0.62220  0.60600  0.88680  Biso   1.000  C
  C33      1.0000 0.34610  0.51160  0.10690  Biso   1.000  C
  C34      1.0000 0.65390  0.48840  0.89310  Biso   1.000  C
  H25      1.0000 0.32480  0.50690  0.01700  Biso   1.000  H
  H26      1.0000 0.67520  0.49310  0.98300  Biso   1.000  H
  C35      1.0000 0.34550  0.63410  0.22910  Biso   1.000  C
  C36      1.0000 0.65450  0.36590  0.77090  Biso   1.000  C
  H27      1.0000 0.32590  0.71200  0.22040  Biso   1.000  H
  H28      1.0000 0.67410  0.28800  0.77960  Biso   1.000  H
  C37      1.0000 0.39270  0.53050  0.36750  Biso   1.000  C
  C38      1.0000 0.60730  0.46950  0.63250  Biso   1.000  C
  H29      1.0000 0.40270  0.53390  0.45720  Biso   1.000  H
  H30      1.0000 0.59730  0.46610  0.54280  Biso   1.000  H
  C39      1.0000 0.40040  0.40610  0.25060  Biso   1.000  C
  C40      1.0000 0.59960  0.59390  0.74940  Biso   1.000  C
  H31      1.0000 0.42060  0.33020  0.26280  Biso   1.000  H
  H32      1.0000 0.57940  0.66980  0.73720  Biso   1.000  H
  N1       1.0000 0.39500  0.01820  0.73050  Biso   1.000  N
  N2       1.0000 0.60500  0.98180  0.26950  Biso   1.000  N
  N3       1.0000 0.37180  0.64680  0.36080  Biso   1.000  N
  N4       1.0000 0.62820  0.35320  0.63920  Biso   1.000  N
  O1       1.0000 0.32320  0.93320  0.41070  Biso   1.000  O
  O2       1.0000 0.67680  0.06680  0.58930  Biso   1.000  O
  O3       1.0000 0.40440  0.13730  0.39690  Biso   1.000  O
  O4       1.0000 0.59560  0.86270  0.60310  Biso   1.000  O
  O5       1.0000 0.29930  0.66760  0.67190  Biso   1.000  O
  O6       1.0000 0.70070  0.33240  0.32810  Biso   1.000  O
  O7       1.0000 0.18160  0.74720  0.55000  Biso   1.000  O
  O8       1.0000 0.81840  0.25280  0.45000  Biso   1.000  O
  O9       1.0000 0.93170  0.71990  0.35820  Biso   1.000  O
  O10      1.0000 0.06830  0.28010  0.64180  Biso   1.000  O
  H33      1.0000 0.02340  0.75610  0.39000  Biso   1.000  H
  H34      1.0000 0.97660  0.24390  0.61000  Biso   1.000  H
  H35      1.0000 0.89240  0.70460  0.41890  Biso   1.000  H
  H36      1.0000 0.10760  0.29540  0.58110  Biso   1.000  H
  O11      1.0000 0.71700  0.61100  0.38000  Biso   1.000  O
  O12      1.0000 0.28300  0.38900  0.62000  Biso   1.000  O
  H37      1.0000 0.69920  0.52760  0.37960  Biso   1.000  H
  H38      1.0000 0.30080  0.47240  0.62040  Biso   1.000  H
  H39      1.0000 0.65270  0.64470  0.42230  Biso   1.000  H
  H40      1.0000 0.34730  0.35530  0.57770  Biso   1.000  H
