data_image0
_cell_length_a       13.462
_cell_length_b       10.275
_cell_length_c       19.579
_cell_angle_alpha    90
_cell_angle_beta     105.21
_cell_angle_gamma    90

_symmetry_space_group_name_H-M    "P 1"
_symmetry_int_tables_number       1

loop_
  _symmetry_equiv_pos_as_xyz
  'x, y, z'

loop_
  _atom_site_label
  _atom_site_occupancy
  _atom_site_fract_x
  _atom_site_fract_y
  _atom_site_fract_z
  _atom_site_thermal_displace_type
  _atom_site_B_iso_or_equiv
  _atom_site_type_symbol
  Cu1      1.0000 0.49966  0.85329  0.04060  Biso   1.000  Cu
  Cu2      1.0000 0.99966  0.64671  0.54060  Biso   1.000  Cu
  Cu3      1.0000 0.50034  0.14671  0.95940  Biso   1.000  Cu
  Cu4      1.0000 0.00034  0.35329  0.45940  Biso   1.000  Cu
  Cu5      1.0000 0.62599  0.43636  0.16600  Biso   1.000  Cu
  Cu6      1.0000 0.12599  0.06364  0.66600  Biso   1.000  Cu
  Cu7      1.0000 0.37401  0.56364  0.83400  Biso   1.000  Cu
  Cu8      1.0000 0.87401  0.93636  0.33400  Biso   1.000  Cu
  C1       1.0000 0.48000  0.52380  0.24073  Biso   1.000  C
  C2       1.0000 0.98000  0.97620  0.74073  Biso   1.000  C
  C3       1.0000 0.52000  0.47620  0.75927  Biso   1.000  C
  C4       1.0000 0.02000  0.02380  0.25927  Biso   1.000  C
  C5       1.0000 0.52420  0.65650  0.23251  Biso   1.000  C
  C6       1.0000 0.02420  0.84350  0.73251  Biso   1.000  C
  C7       1.0000 0.47580  0.34350  0.76749  Biso   1.000  C
  C8       1.0000 0.97580  0.15650  0.26749  Biso   1.000  C
  C9       1.0000 0.53330  0.68400  0.15854  Biso   1.000  C
  C10      1.0000 0.03330  0.81600  0.65854  Biso   1.000  C
  C11      1.0000 0.46670  0.31600  0.84146  Biso   1.000  C
  C12      1.0000 0.96670  0.18400  0.34146  Biso   1.000  C
  O1       1.0000 0.52187  0.42500  0.22087  Biso   1.000  O
  O2       1.0000 0.02187  0.07500  0.72087  Biso   1.000  O
  O3       1.0000 0.47813  0.57500  0.77913  Biso   1.000  O
  O4       1.0000 0.97813  0.92500  0.27913  Biso   1.000  O
  O5       1.0000 0.55689  0.59660  0.12115  Biso   1.000  O
  O6       1.0000 0.05689  0.90340  0.62115  Biso   1.000  O
  O7       1.0000 0.44311  0.40340  0.87885  Biso   1.000  O
  O8       1.0000 0.94311  0.09660  0.37885  Biso   1.000  O
  O9       1.0000 0.40770  0.51540  0.26873  Biso   1.000  O
  O10      1.0000 0.90770  0.98460  0.76873  Biso   1.000  O
  O11      1.0000 0.59230  0.48460  0.73127  Biso   1.000  O
  O12      1.0000 0.09230  0.01540  0.23127  Biso   1.000  O
  O13      1.0000 0.51557  0.80040  0.13801  Biso   1.000  O
  O14      1.0000 0.01557  0.69960  0.63801  Biso   1.000  O
  O15      1.0000 0.48443  0.19960  0.86199  Biso   1.000  O
  O16      1.0000 0.98443  0.30040  0.36199  Biso   1.000  O
  C13      1.0000 0.54331  0.17260  0.10279  Biso   1.000  C
  C14      1.0000 0.04331  0.32740  0.60279  Biso   1.000  C
  C15      1.0000 0.45669  0.82740  0.89721  Biso   1.000  C
  C16      1.0000 0.95669  0.67260  0.39721  Biso   1.000  C
  C17      1.0000 0.57410  0.13230  0.17949  Biso   1.000  C
  C18      1.0000 0.07410  0.36770  0.67949  Biso   1.000  C
  C19      1.0000 0.42590  0.86770  0.82051  Biso   1.000  C
  C20      1.0000 0.92590  0.63230  0.32051  Biso   1.000  C
  C21      1.0000 0.68540  0.17170  0.21535  Biso   1.000  C
  C22      1.0000 0.18540  0.32830  0.71535  Biso   1.000  C
  C23      1.0000 0.31460  0.82830  0.78465  Biso   1.000  C
  C24      1.0000 0.81460  0.67170  0.28465  Biso   1.000  C
  O17      1.0000 0.53998  0.28895  0.08492  Biso   1.000  O
  O18      1.0000 0.03998  0.21105  0.58492  Biso   1.000  O
  O19      1.0000 0.46002  0.71105  0.91508  Biso   1.000  O
  O20      1.0000 0.96002  0.78895  0.41508  Biso   1.000  O
  O21      1.0000 0.70893  0.29180  0.21569  Biso   1.000  O
  O22      1.0000 0.20893  0.20820  0.71569  Biso   1.000  O
  O23      1.0000 0.29107  0.70820  0.78431  Biso   1.000  O
  O24      1.0000 0.79107  0.79180  0.28431  Biso   1.000  O
  O25      1.0000 0.52340  0.08089  0.05672  Biso   1.000  O
  O26      1.0000 0.02340  0.41911  0.55672  Biso   1.000  O
  O27      1.0000 0.47660  0.91911  0.94328  Biso   1.000  O
  O28      1.0000 0.97660  0.58089  0.44328  Biso   1.000  O
  O29      1.0000 0.74670  0.08460  0.24163  Biso   1.000  O
  O30      1.0000 0.24670  0.41540  0.74163  Biso   1.000  O
  O31      1.0000 0.25330  0.91540  0.75837  Biso   1.000  O
  O32      1.0000 0.75330  0.58460  0.25837  Biso   1.000  O
  N1       1.0000 0.34271  0.86040  0.03290  Biso   1.000  N
  N2       1.0000 0.84271  0.63960  0.53290  Biso   1.000  N
  N3       1.0000 0.65729  0.13960  0.96710  Biso   1.000  N
  N4       1.0000 0.15729  0.36040  0.46710  Biso   1.000  N
  N5       1.0000 0.65262  0.83250  0.05028  Biso   1.000  N
  N6       1.0000 0.15262  0.66750  0.55028  Biso   1.000  N
  N7       1.0000 0.34738  0.16750  0.94972  Biso   1.000  N
  N8       1.0000 0.84738  0.33250  0.44972  Biso   1.000  N
  N9       1.0000 0.72980  0.45940  0.10875  Biso   1.000  N
  N10      1.0000 0.22980  0.04060  0.60875  Biso   1.000  N
  N11      1.0000 0.27020  0.54060  0.89125  Biso   1.000  N
  N12      1.0000 0.77020  0.95940  0.39125  Biso   1.000  N
  C25      1.0000 0.27060  0.84650  0.97116  Biso   1.000  C
  C26      1.0000 0.77060  0.65350  0.47116  Biso   1.000  C
  C27      1.0000 0.72940  0.15350  0.02884  Biso   1.000  C
  C28      1.0000 0.22940  0.34650  0.52884  Biso   1.000  C
  C29      1.0000 0.16650  0.84270  0.96648  Biso   1.000  C
  C30      1.0000 0.66650  0.65730  0.46648  Biso   1.000  C
  C31      1.0000 0.83350  0.15730  0.03352  Biso   1.000  C
  C32      1.0000 0.33350  0.34270  0.53352  Biso   1.000  C
  C33      1.0000 0.13140  0.85200  0.02669  Biso   1.000  C
  C34      1.0000 0.63140  0.64800  0.52669  Biso   1.000  C
  C35      1.0000 0.86860  0.14800  0.97331  Biso   1.000  C
  C36      1.0000 0.36860  0.35200  0.47331  Biso   1.000  C
  C37      1.0000 0.20590  0.87160  0.09010  Biso   1.000  C
  C38      1.0000 0.70590  0.62840  0.59010  Biso   1.000  C
  C39      1.0000 0.79410  0.12840  0.90990  Biso   1.000  C
  C40      1.0000 0.29410  0.37160  0.40990  Biso   1.000  C
  C41      1.0000 0.30880  0.87580  0.09111  Biso   1.000  C
  C42      1.0000 0.80880  0.62420  0.59111  Biso   1.000  C
  C43      1.0000 0.69120  0.12420  0.90889  Biso   1.000  C
  C44      1.0000 0.19120  0.37580  0.40889  Biso   1.000  C
  C45      1.0000 0.72010  0.84580  0.11399  Biso   1.000  C
  C46      1.0000 0.22010  0.65420  0.61399  Biso   1.000  C
  C47      1.0000 0.27990  0.15420  0.88601  Biso   1.000  C
  C48      1.0000 0.77990  0.34580  0.38601  Biso   1.000  C
  C49      1.0000 0.82490  0.84470  0.12281  Biso   1.000  C
  C50      1.0000 0.32490  0.65530  0.62281  Biso   1.000  C
  C51      1.0000 0.17510  0.15530  0.87719  Biso   1.000  C
  C52      1.0000 0.67510  0.34470  0.37719  Biso   1.000  C
  C53      1.0000 0.86580  0.83330  0.06455  Biso   1.000  C
  C54      1.0000 0.36580  0.66670  0.56455  Biso   1.000  C
  C55      1.0000 0.13420  0.16670  0.93545  Biso   1.000  C
  C56      1.0000 0.63420  0.33330  0.43545  Biso   1.000  C
  C57      1.0000 0.79520  0.81790  0.99872  Biso   1.000  C
  C58      1.0000 0.29520  0.68210  0.49872  Biso   1.000  C
  C59      1.0000 0.20480  0.18210  0.00128  Biso   1.000  C
  C60      1.0000 0.70480  0.31790  0.50128  Biso   1.000  C
  C61      1.0000 0.69120  0.81760  0.99386  Biso   1.000  C
  C62      1.0000 0.19120  0.68240  0.49386  Biso   1.000  C
  C63      1.0000 0.30880  0.18240  0.00614  Biso   1.000  C
  C64      1.0000 0.80880  0.31760  0.50614  Biso   1.000  C
  C65      1.0000 0.02110  0.84160  0.02043  Biso   1.000  C
  C66      1.0000 0.52110  0.65840  0.52043  Biso   1.000  C
  C67      1.0000 0.97890  0.15840  0.97957  Biso   1.000  C
  C68      1.0000 0.47890  0.34160  0.47957  Biso   1.000  C
  C69      1.0000 0.97690  0.84110  0.07373  Biso   1.000  C
  C70      1.0000 0.47690  0.65890  0.57373  Biso   1.000  C
  C71      1.0000 0.02310  0.15890  0.92627  Biso   1.000  C
  C72      1.0000 0.52310  0.34110  0.42627  Biso   1.000  C
  C73      1.0000 0.70100  0.47910  0.03934  Biso   1.000  C
  C74      1.0000 0.20100  0.02090  0.53934  Biso   1.000  C
  C75      1.0000 0.29900  0.52090  0.96066  Biso   1.000  C
  C76      1.0000 0.79900  0.97910  0.46066  Biso   1.000  C
  C77      1.0000 0.76990  0.49250  0.99846  Biso   1.000  C
  C78      1.0000 0.26990  0.00750  0.49846  Biso   1.000  C
  C79      1.0000 0.23010  0.50750  0.00154  Biso   1.000  C
  C80      1.0000 0.73010  0.99250  0.50154  Biso   1.000  C
  C81      1.0000 0.87590  0.48740  0.03121  Biso   1.000  C
  C82      1.0000 0.37590  0.01260  0.53121  Biso   1.000  C
  C83      1.0000 0.12410  0.51260  0.96879  Biso   1.000  C
  C84      1.0000 0.62410  0.98740  0.46879  Biso   1.000  C
  C85      1.0000 0.90510  0.46760  0.10360  Biso   1.000  C
  C86      1.0000 0.40510  0.03240  0.60360  Biso   1.000  C
  C87      1.0000 0.09490  0.53240  0.89640  Biso   1.000  C
  C88      1.0000 0.59490  0.96760  0.39640  Biso   1.000  C
  C89      1.0000 0.83080  0.45340  0.14035  Biso   1.000  C
  C90      1.0000 0.33080  0.04660  0.64035  Biso   1.000  C
  C91      1.0000 0.16920  0.54660  0.85965  Biso   1.000  C
  C92      1.0000 0.66920  0.95340  0.35965  Biso   1.000  C
  C93      1.0000 0.95020  0.50130  0.98830  Biso   1.000  C
  C94      1.0000 0.45020  0.99870  0.48830  Biso   1.000  C
  C95      1.0000 0.04980  0.49870  0.01170  Biso   1.000  C
  C96      1.0000 0.54980  0.00130  0.51170  Biso   1.000  C
  O33      1.0000 0.35820  0.73270  0.34288  Biso   1.000  O
  O34      1.0000 0.85820  0.76730  0.84288  Biso   1.000  O
  O35      1.0000 0.64180  0.26730  0.65712  Biso   1.000  O
  O36      1.0000 0.14180  0.23270  0.15712  Biso   1.000  O
  O37      1.0000 0.18070  0.48310  0.21660  Biso   1.000  O
  O38      1.0000 0.68070  0.01690  0.71660  Biso   1.000  O
  O39      1.0000 0.81930  0.51690  0.78340  Biso   1.000  O
  O40      1.0000 0.31930  0.98310  0.28340  Biso   1.000  O
  O41      1.0000 0.35830  0.21510  0.22160  Biso   1.000  O
  O42      1.0000 0.85830  0.28490  0.72160  Biso   1.000  O
  O43      1.0000 0.64170  0.78490  0.77840  Biso   1.000  O
  O44      1.0000 0.14170  0.71510  0.27840  Biso   1.000  O
  H1       1.0000 0.60400  0.66500  0.26520  Biso   1.000  H
  H2       1.0000 0.10400  0.83500  0.76520  Biso   1.000  H
  H3       1.0000 0.39600  0.33500  0.73480  Biso   1.000  H
  H4       1.0000 0.89600  0.16500  0.23480  Biso   1.000  H
  H5       1.0000 0.49400  0.71600  0.24800  Biso   1.000  H
  H6       1.0000 0.99400  0.78400  0.74800  Biso   1.000  H
  H7       1.0000 0.50600  0.28400  0.75200  Biso   1.000  H
  H8       1.0000 0.00600  0.21600  0.25200  Biso   1.000  H
  H9       1.0000 0.53100  0.16800  0.20430  Biso   1.000  H
  H10      1.0000 0.03100  0.33200  0.70430  Biso   1.000  H
  H11      1.0000 0.46900  0.83200  0.79570  Biso   1.000  H
  H12      1.0000 0.96900  0.66800  0.29570  Biso   1.000  H
  H13      1.0000 0.56600  0.04400  0.18440  Biso   1.000  H
  H14      1.0000 0.06600  0.45600  0.68440  Biso   1.000  H
  H15      1.0000 0.43400  0.95600  0.81560  Biso   1.000  H
  H16      1.0000 0.93400  0.54400  0.31560  Biso   1.000  H
  H17      1.0000 0.29200  0.84100  0.92800  Biso   1.000  H
  H18      1.0000 0.79200  0.65900  0.42800  Biso   1.000  H
  H19      1.0000 0.70800  0.15900  0.07200  Biso   1.000  H
  H20      1.0000 0.20800  0.34100  0.57200  Biso   1.000  H
  H21      1.0000 0.12400  0.82400  0.92200  Biso   1.000  H
  H22      1.0000 0.62400  0.67600  0.42200  Biso   1.000  H
  H23      1.0000 0.87600  0.17600  0.07800  Biso   1.000  H
  H24      1.0000 0.37600  0.32400  0.57800  Biso   1.000  H
  H25      1.0000 0.19300  0.89200  0.13410  Biso   1.000  H
  H26      1.0000 0.69300  0.60800  0.63410  Biso   1.000  H
  H27      1.0000 0.80700  0.10800  0.86590  Biso   1.000  H
  H28      1.0000 0.30700  0.39200  0.36590  Biso   1.000  H
  H29      1.0000 0.35700  0.87900  0.13150  Biso   1.000  H
  H30      1.0000 0.85700  0.62100  0.63150  Biso   1.000  H
  H31      1.0000 0.64300  0.12100  0.86850  Biso   1.000  H
  H32      1.0000 0.14300  0.37900  0.36850  Biso   1.000  H
  H33      1.0000 0.69400  0.85600  0.15480  Biso   1.000  H
  H34      1.0000 0.19400  0.64400  0.65480  Biso   1.000  H
  H35      1.0000 0.30600  0.14400  0.84520  Biso   1.000  H
  H36      1.0000 0.80600  0.35600  0.34520  Biso   1.000  H
  H37      1.0000 0.87400  0.85600  0.17250  Biso   1.000  H
  H38      1.0000 0.37400  0.64400  0.67250  Biso   1.000  H
  H39      1.0000 0.12600  0.14400  0.82750  Biso   1.000  H
  H40      1.0000 0.62600  0.35600  0.32750  Biso   1.000  H
  H41      1.0000 0.81600  0.80700  0.95700  Biso   1.000  H
  H42      1.0000 0.31600  0.69300  0.45700  Biso   1.000  H
  H43      1.0000 0.18400  0.19300  0.04300  Biso   1.000  H
  H44      1.0000 0.68400  0.30700  0.54300  Biso   1.000  H
  H45      1.0000 0.65000  0.80300  0.94700  Biso   1.000  H
  H46      1.0000 0.15000  0.69700  0.44700  Biso   1.000  H
  H47      1.0000 0.35000  0.19700  0.05300  Biso   1.000  H
  H48      1.0000 0.85000  0.30300  0.55300  Biso   1.000  H
  H49      1.0000 0.97700  0.82600  0.97400  Biso   1.000  H
  H50      1.0000 0.47700  0.67400  0.47400  Biso   1.000  H
  H51      1.0000 0.02300  0.17400  0.02600  Biso   1.000  H
  H52      1.0000 0.52300  0.32600  0.52600  Biso   1.000  H
  H53      1.0000 0.01100  0.87200  0.12600  Biso   1.000  H
  H54      1.0000 0.51100  0.62800  0.62600  Biso   1.000  H
  H55      1.0000 0.98900  0.12800  0.87400  Biso   1.000  H
  H56      1.0000 0.48900  0.37200  0.37400  Biso   1.000  H
  H57      1.0000 0.63200  0.47200  0.01900  Biso   1.000  H
  H58      1.0000 0.13200  0.02800  0.51900  Biso   1.000  H
  H59      1.0000 0.36800  0.52800  0.98100  Biso   1.000  H
  H60      1.0000 0.86800  0.97200  0.48100  Biso   1.000  H
  H61      1.0000 0.74600  0.51800  0.95100  Biso   1.000  H
  H62      1.0000 0.24600  0.98200  0.45100  Biso   1.000  H
  H63      1.0000 0.25400  0.48200  0.04900  Biso   1.000  H
  H64      1.0000 0.75400  0.01800  0.54900  Biso   1.000  H
  H65      1.0000 0.97000  0.45200  0.13500  Biso   1.000  H
  H66      1.0000 0.47000  0.04800  0.63500  Biso   1.000  H
  H67      1.0000 0.03000  0.54800  0.86500  Biso   1.000  H
  H68      1.0000 0.53000  0.95200  0.36500  Biso   1.000  H
  H69      1.0000 0.85300  0.44300  0.18200  Biso   1.000  H
  H70      1.0000 0.35300  0.05700  0.68200  Biso   1.000  H
  H71      1.0000 0.14700  0.55700  0.81800  Biso   1.000  H
  H72      1.0000 0.64700  0.94300  0.31800  Biso   1.000  H
  H73      1.0000 0.92300  0.51300  0.94700  Biso   1.000  H
  H74      1.0000 0.42300  0.98700  0.44700  Biso   1.000  H
  H75      1.0000 0.07700  0.48700  0.05300  Biso   1.000  H
  H76      1.0000 0.57700  0.01300  0.55300  Biso   1.000  H
