data_image0
_cell_length_a       16.8587
_cell_length_b       10.8356
_cell_length_c       12.8298
_cell_angle_alpha    90
_cell_angle_beta     90
_cell_angle_gamma    90

_symmetry_space_group_name_H-M    "P 1"
_symmetry_int_tables_number       1

loop_
  _symmetry_equiv_pos_as_xyz
  'x, y, z'

loop_
  _atom_site_label
  _atom_site_occupancy
  _atom_site_fract_x
  _atom_site_fract_y
  _atom_site_fract_z
  _atom_site_thermal_displace_type
  _atom_site_B_iso_or_equiv
  _atom_site_type_symbol
  Cu1      1.0000 0.00000  0.00000  0.00000  Biso   1.000  Cu
  Cu2      1.0000 0.50000  0.50000  0.50000  Biso   1.000  Cu
  Cu3      1.0000 0.50000  0.50000  0.00000  Biso   1.000  Cu
  Cu4      1.0000 0.00000  0.00000  0.50000  Biso   1.000  Cu
  O1       1.0000 0.04383  0.87550  0.90353  Biso   1.000  O
  O2       1.0000 0.54383  0.37550  0.59647  Biso   1.000  O
  O3       1.0000 0.45617  0.37550  0.90353  Biso   1.000  O
  O4       1.0000 0.04383  0.12450  0.40353  Biso   1.000  O
  O5       1.0000 0.95617  0.12450  0.09647  Biso   1.000  O
  O6       1.0000 0.45617  0.62450  0.40353  Biso   1.000  O
  O7       1.0000 0.54383  0.62450  0.09647  Biso   1.000  O
  O8       1.0000 0.95617  0.87550  0.59647  Biso   1.000  O
  O9       1.0000 0.10276  0.02820  0.06336  Biso   1.000  O
  O10      1.0000 0.60276  0.52820  0.43664  Biso   1.000  O
  O11      1.0000 0.39724  0.52820  0.06336  Biso   1.000  O
  O12      1.0000 0.10276  0.97180  0.56336  Biso   1.000  O
  O13      1.0000 0.89724  0.97180  0.93664  Biso   1.000  O
  O14      1.0000 0.39724  0.47180  0.56336  Biso   1.000  O
  O15      1.0000 0.60276  0.47180  0.93664  Biso   1.000  O
  O16      1.0000 0.89724  0.02820  0.43664  Biso   1.000  O
  C1       1.0000 0.11450  0.83960  0.90420  Biso   1.000  C
  C2       1.0000 0.61450  0.33960  0.59580  Biso   1.000  C
  C3       1.0000 0.38550  0.33960  0.90420  Biso   1.000  C
  C4       1.0000 0.11450  0.16040  0.40420  Biso   1.000  C
  C5       1.0000 0.88550  0.16040  0.09580  Biso   1.000  C
  C6       1.0000 0.38550  0.66040  0.40420  Biso   1.000  C
  C7       1.0000 0.61450  0.66040  0.09580  Biso   1.000  C
  C8       1.0000 0.88550  0.83960  0.59580  Biso   1.000  C
  C9       1.0000 0.17620  0.88050  0.96670  Biso   1.000  C
  C10      1.0000 0.67620  0.38050  0.53330  Biso   1.000  C
  C11      1.0000 0.32380  0.38050  0.96670  Biso   1.000  C
  C12      1.0000 0.17620  0.11950  0.46670  Biso   1.000  C
  C13      1.0000 0.82380  0.11950  0.03330  Biso   1.000  C
  C14      1.0000 0.32380  0.61950  0.46670  Biso   1.000  C
  C15      1.0000 0.67620  0.61950  0.03330  Biso   1.000  C
  C16      1.0000 0.82380  0.88050  0.53330  Biso   1.000  C
  H1       1.0000 0.22720  0.84430  0.95920  Biso   1.000  H
  H2       1.0000 0.72720  0.34430  0.54080  Biso   1.000  H
  H3       1.0000 0.27280  0.34430  0.95920  Biso   1.000  H
  H4       1.0000 0.22720  0.15570  0.45920  Biso   1.000  H
  H5       1.0000 0.77280  0.15570  0.04080  Biso   1.000  H
  H6       1.0000 0.27280  0.65570  0.45920  Biso   1.000  H
  H7       1.0000 0.72720  0.65570  0.04080  Biso   1.000  H
  H8       1.0000 0.77280  0.84430  0.54080  Biso   1.000  H
  C17      1.0000 0.16510  0.97250  0.03960  Biso   1.000  C
  C18      1.0000 0.66510  0.47250  0.46040  Biso   1.000  C
  C19      1.0000 0.33490  0.47250  0.03960  Biso   1.000  C
  C20      1.0000 0.16510  0.02750  0.53960  Biso   1.000  C
  C21      1.0000 0.83490  0.02750  0.96040  Biso   1.000  C
  C22      1.0000 0.33490  0.52750  0.53960  Biso   1.000  C
  C23      1.0000 0.66510  0.52750  0.96040  Biso   1.000  C
  C24      1.0000 0.83490  0.97250  0.46040  Biso   1.000  C
  C25      1.0000 0.13120  0.73540  0.82650  Biso   1.000  C
  C26      1.0000 0.63120  0.23540  0.67350  Biso   1.000  C
  C27      1.0000 0.36880  0.23540  0.82650  Biso   1.000  C
  C28      1.0000 0.13120  0.26460  0.32650  Biso   1.000  C
  C29      1.0000 0.86880  0.26460  0.17350  Biso   1.000  C
  C30      1.0000 0.36880  0.76460  0.32650  Biso   1.000  C
  C31      1.0000 0.63120  0.76460  0.17350  Biso   1.000  C
  C32      1.0000 0.86880  0.73540  0.67350  Biso   1.000  C
  F1       1.0000 0.10130  0.63184  0.86120  Biso   1.000  F
  F2       1.0000 0.60130  0.13184  0.63880  Biso   1.000  F
  F3       1.0000 0.39870  0.13184  0.86120  Biso   1.000  F
  F4       1.0000 0.10130  0.36816  0.36120  Biso   1.000  F
  F5       1.0000 0.89870  0.36816  0.13880  Biso   1.000  F
  F6       1.0000 0.39870  0.86816  0.36120  Biso   1.000  F
  F7       1.0000 0.60130  0.86816  0.13880  Biso   1.000  F
  F8       1.0000 0.89870  0.63184  0.63880  Biso   1.000  F
  F9       1.0000 0.10025  0.75780  0.73452  Biso   1.000  F
  F10      1.0000 0.60025  0.25780  0.76548  Biso   1.000  F
  F11      1.0000 0.39975  0.25780  0.73452  Biso   1.000  F
  F12      1.0000 0.10025  0.24220  0.23452  Biso   1.000  F
  F13      1.0000 0.89975  0.24220  0.26548  Biso   1.000  F
  F14      1.0000 0.39975  0.74220  0.23452  Biso   1.000  F
  F15      1.0000 0.60025  0.74220  0.26548  Biso   1.000  F
  F16      1.0000 0.89975  0.75780  0.76548  Biso   1.000  F
  F17      1.0000 0.20774  0.71550  0.81030  Biso   1.000  F
  F18      1.0000 0.70774  0.21550  0.68970  Biso   1.000  F
  F19      1.0000 0.29226  0.21550  0.81030  Biso   1.000  F
  F20      1.0000 0.20774  0.28450  0.31030  Biso   1.000  F
  F21      1.0000 0.79226  0.28450  0.18970  Biso   1.000  F
  F22      1.0000 0.29226  0.78450  0.31030  Biso   1.000  F
  F23      1.0000 0.70774  0.78450  0.18970  Biso   1.000  F
  F24      1.0000 0.79226  0.71550  0.68970  Biso   1.000  F
  C33      1.0000 0.23650  0.01550  0.10330  Biso   1.000  C
  C34      1.0000 0.73650  0.51550  0.39670  Biso   1.000  C
  C35      1.0000 0.26350  0.51550  0.10330  Biso   1.000  C
  C36      1.0000 0.23650  0.98450  0.60330  Biso   1.000  C
  C37      1.0000 0.76350  0.98450  0.89670  Biso   1.000  C
  C38      1.0000 0.26350  0.48450  0.60330  Biso   1.000  C
  C39      1.0000 0.73650  0.48450  0.89670  Biso   1.000  C
  C40      1.0000 0.76350  0.01550  0.39670  Biso   1.000  C
  F25      1.0000 0.22133  0.00856  0.20576  Biso   1.000  F
  F26      1.0000 0.72133  0.50856  0.29424  Biso   1.000  F
  F27      1.0000 0.27867  0.50856  0.20576  Biso   1.000  F
  F28      1.0000 0.22133  0.99144  0.70576  Biso   1.000  F
  F29      1.0000 0.77867  0.99144  0.79424  Biso   1.000  F
  F30      1.0000 0.27867  0.49144  0.70576  Biso   1.000  F
  F31      1.0000 0.72133  0.49144  0.79424  Biso   1.000  F
  F32      1.0000 0.77867  0.00856  0.29424  Biso   1.000  F
  F33      1.0000 0.25281  0.13326  0.08278  Biso   1.000  F
  F34      1.0000 0.75281  0.63326  0.41722  Biso   1.000  F
  F35      1.0000 0.24719  0.63326  0.08278  Biso   1.000  F
  F36      1.0000 0.25281  0.86674  0.58278  Biso   1.000  F
  F37      1.0000 0.74719  0.86674  0.91722  Biso   1.000  F
  F38      1.0000 0.24719  0.36674  0.58278  Biso   1.000  F
  F39      1.0000 0.75281  0.36674  0.91722  Biso   1.000  F
  F40      1.0000 0.74719  0.13326  0.41722  Biso   1.000  F
  F41      1.0000 0.30200  0.95000  0.08570  Biso   1.000  F
  F42      1.0000 0.80200  0.45000  0.41430  Biso   1.000  F
  F43      1.0000 0.19800  0.45000  0.08570  Biso   1.000  F
  F44      1.0000 0.30200  0.05000  0.58570  Biso   1.000  F
  F45      1.0000 0.69800  0.05000  0.91430  Biso   1.000  F
  F46      1.0000 0.19800  0.55000  0.58570  Biso   1.000  F
  F47      1.0000 0.80200  0.55000  0.91430  Biso   1.000  F
  F48      1.0000 0.69800  0.95000  0.41430  Biso   1.000  F
  O17      1.0000 0.96140  0.83430  0.09800  Biso   1.000  O
  O18      1.0000 0.46140  0.33430  0.40200  Biso   1.000  O
  O19      1.0000 0.53860  0.33430  0.09800  Biso   1.000  O
  O20      1.0000 0.96140  0.16570  0.59800  Biso   1.000  O
  O21      1.0000 0.03860  0.16570  0.90200  Biso   1.000  O
  O22      1.0000 0.53860  0.66570  0.59800  Biso   1.000  O
  O23      1.0000 0.46140  0.66570  0.90200  Biso   1.000  O
  O24      1.0000 0.03860  0.83430  0.40200  Biso   1.000  O
  N1       1.0000 0.98410  0.81330  0.19150  Biso   1.000  N
  N2       1.0000 0.48410  0.31330  0.30850  Biso   1.000  N
  N3       1.0000 0.51590  0.31330  0.19150  Biso   1.000  N
  N4       1.0000 0.98410  0.18670  0.69150  Biso   1.000  N
  N5       1.0000 0.01590  0.18670  0.80850  Biso   1.000  N
  N6       1.0000 0.51590  0.68670  0.69150  Biso   1.000  N
  N7       1.0000 0.48410  0.68670  0.80850  Biso   1.000  N
  N8       1.0000 0.01590  0.81330  0.30850  Biso   1.000  N
  N9       1.0000 0.00940  0.14140  0.85610  Biso   1.000  N
  N10      1.0000 0.50940  0.64140  0.64390  Biso   1.000  N
  N11      1.0000 0.49060  0.64140  0.85610  Biso   1.000  N
  N12      1.0000 0.00940  0.85860  0.35610  Biso   1.000  N
  N13      1.0000 0.99060  0.85860  0.14390  Biso   1.000  N
  N14      1.0000 0.49060  0.35860  0.35610  Biso   1.000  N
  N15      1.0000 0.50940  0.35860  0.14390  Biso   1.000  N
  N16      1.0000 0.99060  0.14140  0.64390  Biso   1.000  N
  C41      1.0000 0.98740  0.90140  0.26820  Biso   1.000  C
  C42      1.0000 0.48740  0.40140  0.23180  Biso   1.000  C
  C43      1.0000 0.51260  0.40140  0.26820  Biso   1.000  C
  C44      1.0000 0.98740  0.09860  0.76820  Biso   1.000  C
  C45      1.0000 0.01260  0.09860  0.73180  Biso   1.000  C
  C46      1.0000 0.51260  0.59860  0.76820  Biso   1.000  C
  C47      1.0000 0.48740  0.59860  0.73180  Biso   1.000  C
  C48      1.0000 0.01260  0.90140  0.23180  Biso   1.000  C
  H9       1.0000 0.97450  0.98570  0.25690  Biso   1.000  H
  H10      1.0000 0.47450  0.48570  0.24310  Biso   1.000  H
  H11      1.0000 0.52550  0.48570  0.25690  Biso   1.000  H
  H12      1.0000 0.97450  0.01430  0.75690  Biso   1.000  H
  H13      1.0000 0.02550  0.01430  0.74310  Biso   1.000  H
  H14      1.0000 0.52550  0.51430  0.75690  Biso   1.000  H
  H15      1.0000 0.47450  0.51430  0.74310  Biso   1.000  H
  H16      1.0000 0.02550  0.98570  0.24310  Biso   1.000  H
  C49      1.0000 0.99270  0.69050  0.23540  Biso   1.000  C
  C50      1.0000 0.49270  0.19050  0.26460  Biso   1.000  C
  C51      1.0000 0.50730  0.19050  0.23540  Biso   1.000  C
  C52      1.0000 0.99270  0.30950  0.73540  Biso   1.000  C
  C53      1.0000 0.00730  0.30950  0.76460  Biso   1.000  C
  C54      1.0000 0.50730  0.80950  0.73540  Biso   1.000  C
  C55      1.0000 0.49270  0.80950  0.76460  Biso   1.000  C
  C56      1.0000 0.00730  0.69050  0.26460  Biso   1.000  C
  C57      1.0000 0.96710  0.72710  0.15890  Biso   1.000  C
  C58      1.0000 0.46710  0.22710  0.34110  Biso   1.000  C
  C59      1.0000 0.53290  0.22710  0.15890  Biso   1.000  C
  C60      1.0000 0.96710  0.27290  0.65890  Biso   1.000  C
  C61      1.0000 0.03290  0.27290  0.84110  Biso   1.000  C
  C62      1.0000 0.53290  0.77290  0.65890  Biso   1.000  C
  C63      1.0000 0.46710  0.77290  0.84110  Biso   1.000  C
  C64      1.0000 0.03290  0.72710  0.34110  Biso   1.000  C
  C65      1.0000 0.90990  0.63670  0.24830  Biso   1.000  C
  C66      1.0000 0.40990  0.13670  0.25170  Biso   1.000  C
  C67      1.0000 0.59010  0.13670  0.24830  Biso   1.000  C
  C68      1.0000 0.90990  0.36330  0.74830  Biso   1.000  C
  C69      1.0000 0.09010  0.36330  0.75170  Biso   1.000  C
  C70      1.0000 0.59010  0.86330  0.74830  Biso   1.000  C
  C71      1.0000 0.40990  0.86330  0.75170  Biso   1.000  C
  C72      1.0000 0.09010  0.63670  0.25170  Biso   1.000  C
  H17      1.0000 0.88190  0.63970  0.18150  Biso   1.000  H
  H18      1.0000 0.38190  0.13970  0.31850  Biso   1.000  H
  H19      1.0000 0.61810  0.13970  0.18150  Biso   1.000  H
  H20      1.0000 0.88190  0.36030  0.68150  Biso   1.000  H
  H21      1.0000 0.11810  0.36030  0.81850  Biso   1.000  H
  H22      1.0000 0.61810  0.86030  0.68150  Biso   1.000  H
  H23      1.0000 0.38190  0.86030  0.81850  Biso   1.000  H
  H24      1.0000 0.11810  0.63970  0.31850  Biso   1.000  H
  H25      1.0000 0.88060  0.68480  0.30020  Biso   1.000  H
  H26      1.0000 0.38060  0.18480  0.19980  Biso   1.000  H
  H27      1.0000 0.61940  0.18480  0.30020  Biso   1.000  H
  H28      1.0000 0.88060  0.31520  0.80020  Biso   1.000  H
  H29      1.0000 0.11940  0.31520  0.69980  Biso   1.000  H
  H30      1.0000 0.61940  0.81520  0.80020  Biso   1.000  H
  H31      1.0000 0.38060  0.81520  0.69980  Biso   1.000  H
  H32      1.0000 0.11940  0.68480  0.19980  Biso   1.000  H
  H33      1.0000 0.91400  0.55080  0.27170  Biso   1.000  H
  H34      1.0000 0.41400  0.05080  0.22830  Biso   1.000  H
  H35      1.0000 0.58600  0.05080  0.27170  Biso   1.000  H
  H36      1.0000 0.91400  0.44920  0.77170  Biso   1.000  H
  H37      1.0000 0.08600  0.44920  0.72830  Biso   1.000  H
  H38      1.0000 0.58600  0.94920  0.77170  Biso   1.000  H
  H39      1.0000 0.41400  0.94920  0.72830  Biso   1.000  H
  H40      1.0000 0.08600  0.55080  0.22830  Biso   1.000  H
  C73      1.0000 0.04280  0.60890  0.16510  Biso   1.000  C
  C74      1.0000 0.54280  0.10890  0.33490  Biso   1.000  C
  C75      1.0000 0.45720  0.10890  0.16510  Biso   1.000  C
  C76      1.0000 0.04280  0.39110  0.66510  Biso   1.000  C
  C77      1.0000 0.95720  0.39110  0.83490  Biso   1.000  C
  C78      1.0000 0.45720  0.89110  0.66510  Biso   1.000  C
  C79      1.0000 0.54280  0.89110  0.83490  Biso   1.000  C
  C80      1.0000 0.95720  0.60890  0.33490  Biso   1.000  C
  H41      1.0000 0.01710  0.60130  0.09690  Biso   1.000  H
  H42      1.0000 0.51710  0.10130  0.40310  Biso   1.000  H
  H43      1.0000 0.48290  0.10130  0.09690  Biso   1.000  H
  H44      1.0000 0.01710  0.39870  0.59690  Biso   1.000  H
  H45      1.0000 0.98290  0.39870  0.90310  Biso   1.000  H
  H46      1.0000 0.48290  0.89870  0.59690  Biso   1.000  H
  H47      1.0000 0.51710  0.89870  0.90310  Biso   1.000  H
  H48      1.0000 0.98290  0.60130  0.40310  Biso   1.000  H
  H49      1.0000 0.95180  0.52700  0.30330  Biso   1.000  H
  H50      1.0000 0.45180  0.02700  0.19670  Biso   1.000  H
  H51      1.0000 0.54820  0.02700  0.30330  Biso   1.000  H
  H52      1.0000 0.95180  0.47300  0.80330  Biso   1.000  H
  H53      1.0000 0.04820  0.47300  0.69670  Biso   1.000  H
  H54      1.0000 0.54820  0.97300  0.80330  Biso   1.000  H
  H55      1.0000 0.45180  0.97300  0.69670  Biso   1.000  H
  H56      1.0000 0.04820  0.52700  0.19670  Biso   1.000  H
  H57      1.0000 0.90460  0.64590  0.34360  Biso   1.000  H
  H58      1.0000 0.40460  0.14590  0.15640  Biso   1.000  H
  H59      1.0000 0.59540  0.14590  0.34360  Biso   1.000  H
  H60      1.0000 0.90460  0.35410  0.84360  Biso   1.000  H
  H61      1.0000 0.09540  0.35410  0.65640  Biso   1.000  H
  H62      1.0000 0.59540  0.85410  0.84360  Biso   1.000  H
  H63      1.0000 0.40460  0.85410  0.65640  Biso   1.000  H
  H64      1.0000 0.09540  0.64590  0.15640  Biso   1.000  H
  C81      1.0000 0.99320  0.65100  0.06350  Biso   1.000  C
  C82      1.0000 0.49320  0.15100  0.43650  Biso   1.000  C
  C83      1.0000 0.50680  0.15100  0.06350  Biso   1.000  C
  C84      1.0000 0.99320  0.34900  0.56350  Biso   1.000  C
  C85      1.0000 0.00680  0.34900  0.93650  Biso   1.000  C
  C86      1.0000 0.50680  0.84900  0.56350  Biso   1.000  C
  C87      1.0000 0.49320  0.84900  0.93650  Biso   1.000  C
  C88      1.0000 0.00680  0.65100  0.43650  Biso   1.000  C
  H65      1.0000 0.96940  0.68600  0.00030  Biso   1.000  H
  H66      1.0000 0.46940  0.18600  0.49970  Biso   1.000  H
  H67      1.0000 0.53060  0.18600  0.00030  Biso   1.000  H
  H68      1.0000 0.96940  0.31400  0.50030  Biso   1.000  H
  H69      1.0000 0.03060  0.31400  0.99970  Biso   1.000  H
  H70      1.0000 0.53060  0.81400  0.50030  Biso   1.000  H
  H71      1.0000 0.46940  0.81400  0.99970  Biso   1.000  H
  H72      1.0000 0.03060  0.68600  0.49970  Biso   1.000  H
  H73      1.0000 0.97570  0.56540  0.07190  Biso   1.000  H
  H74      1.0000 0.47570  0.06540  0.42810  Biso   1.000  H
  H75      1.0000 0.52430  0.06540  0.07190  Biso   1.000  H
  H76      1.0000 0.97570  0.43460  0.57190  Biso   1.000  H
  H77      1.0000 0.02430  0.43460  0.92810  Biso   1.000  H
  H78      1.0000 0.52430  0.93460  0.57190  Biso   1.000  H
  H79      1.0000 0.47570  0.93460  0.92810  Biso   1.000  H
  H80      1.0000 0.02430  0.56540  0.42810  Biso   1.000  H
  H81      1.0000 0.05120  0.65330  0.05750  Biso   1.000  H
  H82      1.0000 0.55120  0.15330  0.44250  Biso   1.000  H
  H83      1.0000 0.44880  0.15330  0.05750  Biso   1.000  H
  H84      1.0000 0.05120  0.34670  0.55750  Biso   1.000  H
  H85      1.0000 0.94880  0.34670  0.94250  Biso   1.000  H
  H86      1.0000 0.44880  0.84670  0.55750  Biso   1.000  H
  H87      1.0000 0.55120  0.84670  0.94250  Biso   1.000  H
  H88      1.0000 0.94880  0.65330  0.44250  Biso   1.000  H
  C89      1.0000 0.87630  0.73010  0.16360  Biso   1.000  C
  C90      1.0000 0.37630  0.23010  0.33640  Biso   1.000  C
  C91      1.0000 0.62370  0.23010  0.16360  Biso   1.000  C
  C92      1.0000 0.87630  0.26990  0.66360  Biso   1.000  C
  C93      1.0000 0.12370  0.26990  0.83640  Biso   1.000  C
  C94      1.0000 0.62370  0.76990  0.66360  Biso   1.000  C
  C95      1.0000 0.37630  0.76990  0.83640  Biso   1.000  C
  C96      1.0000 0.12370  0.73010  0.33640  Biso   1.000  C
  H89      1.0000 0.85530  0.76130  0.09740  Biso   1.000  H
  H90      1.0000 0.35530  0.26130  0.40260  Biso   1.000  H
  H91      1.0000 0.64470  0.26130  0.09740  Biso   1.000  H
  H92      1.0000 0.85530  0.23870  0.59740  Biso   1.000  H
  H93      1.0000 0.14470  0.23870  0.90260  Biso   1.000  H
  H94      1.0000 0.64470  0.73870  0.59740  Biso   1.000  H
  H95      1.0000 0.35530  0.73870  0.90260  Biso   1.000  H
  H96      1.0000 0.14470  0.76130  0.40260  Biso   1.000  H
  H97      1.0000 0.85940  0.78440  0.22050  Biso   1.000  H
  H98      1.0000 0.35940  0.28440  0.27950  Biso   1.000  H
  H99      1.0000 0.64060  0.28440  0.22050  Biso   1.000  H
  H100     1.0000 0.85940  0.21560  0.72050  Biso   1.000  H
  H101     1.0000 0.14060  0.21560  0.77950  Biso   1.000  H
  H102     1.0000 0.64060  0.71560  0.72050  Biso   1.000  H
  H103     1.0000 0.35940  0.71560  0.77950  Biso   1.000  H
  H104     1.0000 0.14060  0.78440  0.27950  Biso   1.000  H
  H105     1.0000 0.85610  0.64650  0.17590  Biso   1.000  H
  H106     1.0000 0.35610  0.14650  0.32410  Biso   1.000  H
  H107     1.0000 0.64390  0.14650  0.17590  Biso   1.000  H
  H108     1.0000 0.85610  0.35350  0.67590  Biso   1.000  H
  H109     1.0000 0.14390  0.35350  0.82410  Biso   1.000  H
  H110     1.0000 0.64390  0.85350  0.67590  Biso   1.000  H
  H111     1.0000 0.35610  0.85350  0.82410  Biso   1.000  H
  H112     1.0000 0.14390  0.64650  0.32410  Biso   1.000  H
