data_image0
_cell_length_a       16.3979
_cell_length_b       7.1133
_cell_length_c       27.455
_cell_angle_alpha    90
_cell_angle_beta     90
_cell_angle_gamma    90

_symmetry_space_group_name_H-M    "P 1"
_symmetry_int_tables_number       1

loop_
  _symmetry_equiv_pos_as_xyz
  'x, y, z'

loop_
  _atom_site_label
  _atom_site_occupancy
  _atom_site_fract_x
  _atom_site_fract_y
  _atom_site_fract_z
  _atom_site_thermal_displace_type
  _atom_site_B_iso_or_equiv
  _atom_site_type_symbol
  Cu1      1.0000 0.46919  0.03380  0.33494  Biso   1.000  Cu
  Cu2      1.0000 0.96919  0.46620  0.66506  Biso   1.000  Cu
  Cu3      1.0000 0.53081  0.53380  0.16506  Biso   1.000  Cu
  Cu4      1.0000 0.03081  0.96620  0.83494  Biso   1.000  Cu
  Cu5      1.0000 0.53081  0.96620  0.66506  Biso   1.000  Cu
  Cu6      1.0000 0.03081  0.53380  0.33494  Biso   1.000  Cu
  Cu7      1.0000 0.46919  0.46620  0.83494  Biso   1.000  Cu
  Cu8      1.0000 0.96919  0.03380  0.16506  Biso   1.000  Cu
  O1       1.0000 0.48232  0.79400  0.30143  Biso   1.000  O
  O2       1.0000 0.98232  0.70600  0.69857  Biso   1.000  O
  O3       1.0000 0.51768  0.29400  0.19857  Biso   1.000  O
  O4       1.0000 0.01768  0.20600  0.80143  Biso   1.000  O
  O5       1.0000 0.51768  0.20600  0.69857  Biso   1.000  O
  O6       1.0000 0.01768  0.29400  0.30143  Biso   1.000  O
  O7       1.0000 0.48232  0.70600  0.80143  Biso   1.000  O
  O8       1.0000 0.98232  0.79400  0.19857  Biso   1.000  O
  O9       1.0000 0.56258  0.66460  0.24486  Biso   1.000  O
  O10      1.0000 0.06258  0.83540  0.75514  Biso   1.000  O
  O11      1.0000 0.43742  0.16460  0.25514  Biso   1.000  O
  O12      1.0000 0.93742  0.33540  0.74486  Biso   1.000  O
  O13      1.0000 0.43742  0.33540  0.75514  Biso   1.000  O
  O14      1.0000 0.93742  0.16460  0.24486  Biso   1.000  O
  O15      1.0000 0.56258  0.83540  0.74486  Biso   1.000  O
  O16      1.0000 0.06258  0.66460  0.25514  Biso   1.000  O
  O17      1.0000 0.47861  0.27530  0.36898  Biso   1.000  O
  O18      1.0000 0.97861  0.22470  0.63102  Biso   1.000  O
  O19      1.0000 0.52139  0.77530  0.13102  Biso   1.000  O
  O20      1.0000 0.02139  0.72470  0.86898  Biso   1.000  O
  O21      1.0000 0.52139  0.72470  0.63102  Biso   1.000  O
  O22      1.0000 0.02139  0.77530  0.36898  Biso   1.000  O
  O23      1.0000 0.47861  0.22470  0.86898  Biso   1.000  O
  O24      1.0000 0.97861  0.27530  0.13102  Biso   1.000  O
  O25      1.0000 0.57184  0.49580  0.38393  Biso   1.000  O
  O26      1.0000 0.07184  0.00420  0.61607  Biso   1.000  O
  O27      1.0000 0.42816  0.99580  0.11607  Biso   1.000  O
  O28      1.0000 0.92816  0.50420  0.88393  Biso   1.000  O
  O29      1.0000 0.42816  0.50420  0.61607  Biso   1.000  O
  O30      1.0000 0.92816  0.99580  0.38393  Biso   1.000  O
  O31      1.0000 0.57184  0.00420  0.88393  Biso   1.000  O
  O32      1.0000 0.07184  0.49580  0.11607  Biso   1.000  O
  O33      1.0000 0.76046  0.10510  0.32007  Biso   1.000  O
  O34      1.0000 0.26046  0.39490  0.67993  Biso   1.000  O
  O35      1.0000 0.23954  0.60510  0.17993  Biso   1.000  O
  O36      1.0000 0.73954  0.89490  0.82007  Biso   1.000  O
  O37      1.0000 0.23954  0.89490  0.67993  Biso   1.000  O
  O38      1.0000 0.73954  0.60510  0.32007  Biso   1.000  O
  O39      1.0000 0.76046  0.39490  0.82007  Biso   1.000  O
  O40      1.0000 0.26046  0.10510  0.17993  Biso   1.000  O
  O41      1.0000 0.77155  0.98390  0.39501  Biso   1.000  O
  O42      1.0000 0.27155  0.51610  0.60499  Biso   1.000  O
  O43      1.0000 0.22845  0.48390  0.10499  Biso   1.000  O
  O44      1.0000 0.72845  0.01610  0.89501  Biso   1.000  O
  O45      1.0000 0.22845  0.01610  0.60499  Biso   1.000  O
  O46      1.0000 0.72845  0.48390  0.39501  Biso   1.000  O
  O47      1.0000 0.77155  0.51610  0.89501  Biso   1.000  O
  O48      1.0000 0.27155  0.98390  0.10499  Biso   1.000  O
  O49      1.0000 0.19928  0.80480  0.48890  Biso   1.000  O
  O50      1.0000 0.69928  0.69520  0.51110  Biso   1.000  O
  O51      1.0000 0.80072  0.30480  0.01110  Biso   1.000  O
  O52      1.0000 0.30072  0.19520  0.98890  Biso   1.000  O
  O53      1.0000 0.80072  0.19520  0.51110  Biso   1.000  O
  O54      1.0000 0.30072  0.30480  0.48890  Biso   1.000  O
  O55      1.0000 0.19928  0.69520  0.98890  Biso   1.000  O
  O56      1.0000 0.69928  0.80480  0.01110  Biso   1.000  O
  N1       1.0000 0.58905  0.06820  0.32184  Biso   1.000  N
  N2       1.0000 0.08905  0.43180  0.67816  Biso   1.000  N
  N3       1.0000 0.41095  0.56820  0.17816  Biso   1.000  N
  N4       1.0000 0.91095  0.93180  0.82184  Biso   1.000  N
  N5       1.0000 0.41095  0.93180  0.67816  Biso   1.000  N
  N6       1.0000 0.91095  0.56820  0.32184  Biso   1.000  N
  N7       1.0000 0.58905  0.43180  0.82184  Biso   1.000  N
  N8       1.0000 0.08905  0.06820  0.17816  Biso   1.000  N
  N9       1.0000 0.35008  0.01250  0.35070  Biso   1.000  N
  N10      1.0000 0.85008  0.48750  0.64930  Biso   1.000  N
  N11      1.0000 0.64992  0.51250  0.14930  Biso   1.000  N
  N12      1.0000 0.14992  0.98750  0.85070  Biso   1.000  N
  N13      1.0000 0.64992  0.98750  0.64930  Biso   1.000  N
  N14      1.0000 0.14992  0.51250  0.35070  Biso   1.000  N
  N15      1.0000 0.35008  0.48750  0.85070  Biso   1.000  N
  N16      1.0000 0.85008  0.01250  0.14930  Biso   1.000  N
  N17      1.0000 0.46961  0.87400  0.42586  Biso   1.000  N
  N18      1.0000 0.96961  0.62600  0.57414  Biso   1.000  N
  N19      1.0000 0.53039  0.37400  0.07414  Biso   1.000  N
  N20      1.0000 0.03039  0.12600  0.92586  Biso   1.000  N
  N21      1.0000 0.53039  0.12600  0.57414  Biso   1.000  N
  N22      1.0000 0.03039  0.37400  0.42586  Biso   1.000  N
  N23      1.0000 0.46961  0.62600  0.92586  Biso   1.000  N
  N24      1.0000 0.96961  0.87400  0.07414  Biso   1.000  N
  C1       1.0000 0.54588  0.79060  0.27393  Biso   1.000  C
  C2       1.0000 0.04588  0.70940  0.72607  Biso   1.000  C
  C3       1.0000 0.45412  0.29060  0.22607  Biso   1.000  C
  C4       1.0000 0.95412  0.20940  0.77393  Biso   1.000  C
  C5       1.0000 0.45412  0.20940  0.72607  Biso   1.000  C
  C6       1.0000 0.95412  0.29060  0.27393  Biso   1.000  C
  C7       1.0000 0.54588  0.70940  0.77393  Biso   1.000  C
  C8       1.0000 0.04588  0.79060  0.22607  Biso   1.000  C
  C9       1.0000 0.60277  0.96120  0.27617  Biso   1.000  C
  C10      1.0000 0.10277  0.53880  0.72383  Biso   1.000  C
  C11      1.0000 0.39723  0.46120  0.22383  Biso   1.000  C
  C12      1.0000 0.89723  0.03880  0.77617  Biso   1.000  C
  C13      1.0000 0.39723  0.03880  0.72383  Biso   1.000  C
  C14      1.0000 0.89723  0.46120  0.27617  Biso   1.000  C
  C15      1.0000 0.60277  0.53880  0.77617  Biso   1.000  C
  C16      1.0000 0.10277  0.96120  0.22383  Biso   1.000  C
  H1       1.0000 0.65900  0.91950  0.27470  Biso   1.000  H
  H2       1.0000 0.15900  0.58050  0.72530  Biso   1.000  H
  H3       1.0000 0.34100  0.41950  0.22530  Biso   1.000  H
  H4       1.0000 0.84100  0.08050  0.77470  Biso   1.000  H
  H5       1.0000 0.34100  0.08050  0.72530  Biso   1.000  H
  H6       1.0000 0.84100  0.41950  0.27470  Biso   1.000  H
  H7       1.0000 0.65900  0.58050  0.77470  Biso   1.000  H
  H8       1.0000 0.15900  0.91950  0.22530  Biso   1.000  H
  H9       1.0000 0.59270  0.04210  0.24840  Biso   1.000  H
  H10      1.0000 0.09270  0.45790  0.75160  Biso   1.000  H
  H11      1.0000 0.40730  0.54210  0.25160  Biso   1.000  H
  H12      1.0000 0.90730  0.95790  0.74840  Biso   1.000  H
  H13      1.0000 0.40730  0.95790  0.75160  Biso   1.000  H
  H14      1.0000 0.90730  0.54210  0.24840  Biso   1.000  H
  H15      1.0000 0.59270  0.45790  0.74840  Biso   1.000  H
  H16      1.0000 0.09270  0.04210  0.25160  Biso   1.000  H
  C17      1.0000 0.54630  0.35800  0.36026  Biso   1.000  C
  C18      1.0000 0.04630  0.14200  0.63974  Biso   1.000  C
  C19      1.0000 0.45370  0.85800  0.13974  Biso   1.000  C
  C20      1.0000 0.95370  0.64200  0.86026  Biso   1.000  C
  C21      1.0000 0.45370  0.64200  0.63974  Biso   1.000  C
  C22      1.0000 0.95370  0.85800  0.36026  Biso   1.000  C
  C23      1.0000 0.54630  0.14200  0.86026  Biso   1.000  C
  C24      1.0000 0.04630  0.35800  0.13974  Biso   1.000  C
  C25      1.0000 0.59642  0.27670  0.31845  Biso   1.000  C
  C26      1.0000 0.09642  0.22330  0.68155  Biso   1.000  C
  C27      1.0000 0.40358  0.77670  0.18155  Biso   1.000  C
  C28      1.0000 0.90358  0.72330  0.81845  Biso   1.000  C
  C29      1.0000 0.40358  0.72330  0.68155  Biso   1.000  C
  C30      1.0000 0.90358  0.77670  0.31845  Biso   1.000  C
  C31      1.0000 0.59642  0.22330  0.81845  Biso   1.000  C
  C32      1.0000 0.09642  0.27670  0.18155  Biso   1.000  C
  H17      1.0000 0.57560  0.32090  0.28740  Biso   1.000  H
  H18      1.0000 0.07560  0.17910  0.71260  Biso   1.000  H
  H19      1.0000 0.42440  0.82090  0.21260  Biso   1.000  H
  H20      1.0000 0.92440  0.67910  0.78740  Biso   1.000  H
  H21      1.0000 0.42440  0.67910  0.71260  Biso   1.000  H
  H22      1.0000 0.92440  0.82090  0.28740  Biso   1.000  H
  H23      1.0000 0.57560  0.17910  0.78740  Biso   1.000  H
  H24      1.0000 0.07560  0.32090  0.21260  Biso   1.000  H
  H25      1.0000 0.65300  0.31460  0.32140  Biso   1.000  H
  H26      1.0000 0.15300  0.18540  0.67860  Biso   1.000  H
  H27      1.0000 0.34700  0.81460  0.17860  Biso   1.000  H
  H28      1.0000 0.84700  0.68540  0.82140  Biso   1.000  H
  H29      1.0000 0.34700  0.68540  0.67860  Biso   1.000  H
  H30      1.0000 0.84700  0.81460  0.32140  Biso   1.000  H
  H31      1.0000 0.65300  0.18540  0.82140  Biso   1.000  H
  H32      1.0000 0.15300  0.31460  0.17860  Biso   1.000  H
  C33      1.0000 0.73015  0.03590  0.35609  Biso   1.000  C
  C34      1.0000 0.23015  0.46410  0.64391  Biso   1.000  C
  C35      1.0000 0.26985  0.53590  0.14391  Biso   1.000  C
  C36      1.0000 0.76985  0.96410  0.85609  Biso   1.000  C
  C37      1.0000 0.26985  0.96410  0.64391  Biso   1.000  C
  C38      1.0000 0.76985  0.53590  0.35609  Biso   1.000  C
  C39      1.0000 0.73015  0.46410  0.85609  Biso   1.000  C
  C40      1.0000 0.23015  0.03590  0.14391  Biso   1.000  C
  C41      1.0000 0.63910  0.99500  0.36203  Biso   1.000  C
  C42      1.0000 0.13910  0.50500  0.63797  Biso   1.000  C
  C43      1.0000 0.36090  0.49500  0.13797  Biso   1.000  C
  C44      1.0000 0.86090  0.00500  0.86203  Biso   1.000  C
  C45      1.0000 0.36090  0.00500  0.63797  Biso   1.000  C
  C46      1.0000 0.86090  0.49500  0.36203  Biso   1.000  C
  C47      1.0000 0.63910  0.50500  0.86203  Biso   1.000  C
  C48      1.0000 0.13910  0.99500  0.13797  Biso   1.000  C
  H33      1.0000 0.63130  0.86020  0.36430  Biso   1.000  H
  H34      1.0000 0.13130  0.63980  0.63570  Biso   1.000  H
  H35      1.0000 0.36870  0.36020  0.13570  Biso   1.000  H
  H36      1.0000 0.86870  0.13980  0.86430  Biso   1.000  H
  H37      1.0000 0.36870  0.13980  0.63570  Biso   1.000  H
  H38      1.0000 0.86870  0.36020  0.36430  Biso   1.000  H
  H39      1.0000 0.63130  0.63980  0.86430  Biso   1.000  H
  H40      1.0000 0.13130  0.86020  0.13570  Biso   1.000  H
  H41      1.0000 0.62040  0.05030  0.39230  Biso   1.000  H
  H42      1.0000 0.12040  0.44970  0.60770  Biso   1.000  H
  H43      1.0000 0.37960  0.55030  0.10770  Biso   1.000  H
  H44      1.0000 0.87960  0.94970  0.89230  Biso   1.000  H
  H45      1.0000 0.37960  0.94970  0.60770  Biso   1.000  H
  H46      1.0000 0.87960  0.55030  0.39230  Biso   1.000  H
  H47      1.0000 0.62040  0.44970  0.89230  Biso   1.000  H
  H48      1.0000 0.12040  0.05030  0.10770  Biso   1.000  H
  C49      1.0000 0.28652  0.06360  0.32175  Biso   1.000  C
  C50      1.0000 0.78652  0.43640  0.67825  Biso   1.000  C
  C51      1.0000 0.71348  0.56360  0.17825  Biso   1.000  C
  C52      1.0000 0.21348  0.93640  0.82175  Biso   1.000  C
  C53      1.0000 0.71348  0.93640  0.67825  Biso   1.000  C
  C54      1.0000 0.21348  0.56360  0.32175  Biso   1.000  C
  C55      1.0000 0.28652  0.43640  0.82175  Biso   1.000  C
  C56      1.0000 0.78652  0.06360  0.17825  Biso   1.000  C
  H49      1.0000 0.29730  0.10710  0.29050  Biso   1.000  H
  H50      1.0000 0.79730  0.39290  0.70950  Biso   1.000  H
  H51      1.0000 0.70270  0.60710  0.20950  Biso   1.000  H
  H52      1.0000 0.20270  0.89290  0.79050  Biso   1.000  H
  H53      1.0000 0.70270  0.89290  0.70950  Biso   1.000  H
  H54      1.0000 0.20270  0.60710  0.29050  Biso   1.000  H
  H55      1.0000 0.29730  0.39290  0.79050  Biso   1.000  H
  H56      1.0000 0.79730  0.10710  0.20950  Biso   1.000  H
  C57      1.0000 0.20600  0.05310  0.33727  Biso   1.000  C
  C58      1.0000 0.70600  0.44690  0.66273  Biso   1.000  C
  C59      1.0000 0.79400  0.55310  0.16273  Biso   1.000  C
  C60      1.0000 0.29400  0.94690  0.83727  Biso   1.000  C
  C61      1.0000 0.79400  0.94690  0.66273  Biso   1.000  C
  C62      1.0000 0.29400  0.55310  0.33727  Biso   1.000  C
  C63      1.0000 0.20600  0.44690  0.83727  Biso   1.000  C
  C64      1.0000 0.70600  0.05310  0.16273  Biso   1.000  C
  H57      1.0000 0.16430  0.09220  0.31660  Biso   1.000  H
  H58      1.0000 0.66430  0.40780  0.68340  Biso   1.000  H
  H59      1.0000 0.83570  0.59220  0.18340  Biso   1.000  H
  H60      1.0000 0.33570  0.90780  0.81660  Biso   1.000  H
  H61      1.0000 0.83570  0.90780  0.68340  Biso   1.000  H
  H62      1.0000 0.33570  0.59220  0.31660  Biso   1.000  H
  H63      1.0000 0.16430  0.40780  0.81660  Biso   1.000  H
  H64      1.0000 0.66430  0.09220  0.18340  Biso   1.000  H
  C65      1.0000 0.18678  0.98420  0.38362  Biso   1.000  C
  C66      1.0000 0.68678  0.51580  0.61638  Biso   1.000  C
  C67      1.0000 0.81322  0.48420  0.11638  Biso   1.000  C
  C68      1.0000 0.31322  0.01580  0.88362  Biso   1.000  C
  C69      1.0000 0.81322  0.01580  0.61638  Biso   1.000  C
  C70      1.0000 0.31322  0.48420  0.38362  Biso   1.000  C
  C71      1.0000 0.18678  0.51580  0.88362  Biso   1.000  C
  C72      1.0000 0.68678  0.98420  0.11638  Biso   1.000  C
  H65      1.0000 0.13310  0.97350  0.39420  Biso   1.000  H
  H66      1.0000 0.63310  0.52650  0.60580  Biso   1.000  H
  H67      1.0000 0.86690  0.47350  0.10580  Biso   1.000  H
  H68      1.0000 0.36690  0.02650  0.89420  Biso   1.000  H
  H69      1.0000 0.86690  0.02650  0.60580  Biso   1.000  H
  H70      1.0000 0.36690  0.47350  0.39420  Biso   1.000  H
  H71      1.0000 0.13310  0.52650  0.89420  Biso   1.000  H
  H72      1.0000 0.63310  0.97350  0.10580  Biso   1.000  H
  C73      1.0000 0.25160  0.93280  0.41293  Biso   1.000  C
  C74      1.0000 0.75160  0.56720  0.58707  Biso   1.000  C
  C75      1.0000 0.74840  0.43280  0.08707  Biso   1.000  C
  C76      1.0000 0.24840  0.06720  0.91293  Biso   1.000  C
  C77      1.0000 0.74840  0.06720  0.58707  Biso   1.000  C
  C78      1.0000 0.24840  0.43280  0.41293  Biso   1.000  C
  C79      1.0000 0.25160  0.56720  0.91293  Biso   1.000  C
  C80      1.0000 0.75160  0.93280  0.08707  Biso   1.000  C
  C81      1.0000 0.33105  0.95150  0.39502  Biso   1.000  C
  C82      1.0000 0.83105  0.54850  0.60498  Biso   1.000  C
  C83      1.0000 0.66895  0.45150  0.10498  Biso   1.000  C
  C84      1.0000 0.16895  0.04850  0.89502  Biso   1.000  C
  C85      1.0000 0.66895  0.04850  0.60498  Biso   1.000  C
  C86      1.0000 0.16895  0.45150  0.39502  Biso   1.000  C
  C87      1.0000 0.33105  0.54850  0.89502  Biso   1.000  C
  C88      1.0000 0.83105  0.95150  0.10498  Biso   1.000  C
  C89      1.0000 0.51040  0.79710  0.46394  Biso   1.000  C
  C90      1.0000 0.01040  0.70290  0.53606  Biso   1.000  C
  C91      1.0000 0.48960  0.29710  0.03606  Biso   1.000  C
  C92      1.0000 0.98960  0.20290  0.96394  Biso   1.000  C
  C93      1.0000 0.48960  0.20290  0.53606  Biso   1.000  C
  C94      1.0000 0.98960  0.29710  0.46394  Biso   1.000  C
  C95      1.0000 0.51040  0.70290  0.96394  Biso   1.000  C
  C96      1.0000 0.01040  0.79710  0.03606  Biso   1.000  C
  H73      1.0000 0.56680  0.78780  0.46190  Biso   1.000  H
  H74      1.0000 0.06680  0.71220  0.53810  Biso   1.000  H
  H75      1.0000 0.43320  0.28780  0.03810  Biso   1.000  H
  H76      1.0000 0.93320  0.21220  0.96190  Biso   1.000  H
  H77      1.0000 0.43320  0.21220  0.53810  Biso   1.000  H
  H78      1.0000 0.93320  0.28780  0.46190  Biso   1.000  H
  H79      1.0000 0.56680  0.71220  0.96190  Biso   1.000  H
  H80      1.0000 0.06680  0.78780  0.03810  Biso   1.000  H
  C97      1.0000 0.47190  0.73080  0.50624  Biso   1.000  C
  C98      1.0000 0.97190  0.76920  0.49376  Biso   1.000  C
  C99      1.0000 0.52810  0.23080  0.99376  Biso   1.000  C
  C100     1.0000 0.02810  0.26920  0.00624  Biso   1.000  C
  C101     1.0000 0.52810  0.26920  0.49376  Biso   1.000  C
  C102     1.0000 0.02810  0.23080  0.50624  Biso   1.000  C
  C103     1.0000 0.47190  0.76920  0.00624  Biso   1.000  C
  C104     1.0000 0.97190  0.73080  0.99376  Biso   1.000  C
  H81      1.0000 0.50310  0.68020  0.53130  Biso   1.000  H
  H82      1.0000 0.00310  0.81980  0.46870  Biso   1.000  H
  H83      1.0000 0.49690  0.18020  0.96870  Biso   1.000  H
  H84      1.0000 0.99690  0.31980  0.03130  Biso   1.000  H
  H85      1.0000 0.49690  0.31980  0.46870  Biso   1.000  H
  H86      1.0000 0.99690  0.18020  0.53130  Biso   1.000  H
  H87      1.0000 0.50310  0.81980  0.03130  Biso   1.000  H
  H88      1.0000 0.00310  0.68020  0.96870  Biso   1.000  H
  C105     1.0000 0.38770  0.74000  0.51097  Biso   1.000  C
  C106     1.0000 0.88770  0.76000  0.48903  Biso   1.000  C
  C107     1.0000 0.61230  0.24000  0.98903  Biso   1.000  C
  C108     1.0000 0.11230  0.26000  0.01097  Biso   1.000  C
  C109     1.0000 0.61230  0.26000  0.48903  Biso   1.000  C
  C110     1.0000 0.11230  0.24000  0.51097  Biso   1.000  C
  C111     1.0000 0.38770  0.76000  0.01097  Biso   1.000  C
  C112     1.0000 0.88770  0.74000  0.98903  Biso   1.000  C
  H89      1.0000 0.36110  0.69510  0.53850  Biso   1.000  H
  H90      1.0000 0.86110  0.80490  0.46150  Biso   1.000  H
  H91      1.0000 0.63890  0.19510  0.96150  Biso   1.000  H
  H92      1.0000 0.13890  0.30490  0.03850  Biso   1.000  H
  H93      1.0000 0.63890  0.30490  0.46150  Biso   1.000  H
  H94      1.0000 0.13890  0.19510  0.53850  Biso   1.000  H
  H95      1.0000 0.36110  0.80490  0.03850  Biso   1.000  H
  H96      1.0000 0.86110  0.69510  0.96150  Biso   1.000  H
  C113     1.0000 0.34540  0.81980  0.47246  Biso   1.000  C
  C114     1.0000 0.84540  0.68020  0.52754  Biso   1.000  C
  C115     1.0000 0.65460  0.31980  0.02754  Biso   1.000  C
  C116     1.0000 0.15460  0.18020  0.97246  Biso   1.000  C
  C117     1.0000 0.65460  0.18020  0.52754  Biso   1.000  C
  C118     1.0000 0.15460  0.31980  0.47246  Biso   1.000  C
  C119     1.0000 0.34540  0.68020  0.97246  Biso   1.000  C
  C120     1.0000 0.84540  0.81980  0.02754  Biso   1.000  C
  C121     1.0000 0.38933  0.88260  0.43213  Biso   1.000  C
  C122     1.0000 0.88933  0.61740  0.56787  Biso   1.000  C
  C123     1.0000 0.61067  0.38260  0.06787  Biso   1.000  C
  C124     1.0000 0.11067  0.11740  0.93213  Biso   1.000  C
  C125     1.0000 0.61067  0.11740  0.56787  Biso   1.000  C
  C126     1.0000 0.11067  0.38260  0.43213  Biso   1.000  C
  C127     1.0000 0.38933  0.61740  0.93213  Biso   1.000  C
  C128     1.0000 0.88933  0.88260  0.06787  Biso   1.000  C
  C129     1.0000 0.25610  0.84720  0.46297  Biso   1.000  C
  C130     1.0000 0.75610  0.65280  0.53703  Biso   1.000  C
  C131     1.0000 0.74390  0.34720  0.03703  Biso   1.000  C
  C132     1.0000 0.24390  0.15280  0.96297  Biso   1.000  C
  C133     1.0000 0.74390  0.15280  0.53703  Biso   1.000  C
  C134     1.0000 0.24390  0.34720  0.46297  Biso   1.000  C
  C135     1.0000 0.25610  0.65280  0.96297  Biso   1.000  C
  C136     1.0000 0.75610  0.84720  0.03703  Biso   1.000  C
  H97      1.0000 0.82120  0.00600  0.39400  Biso   1.000  H
  H98      1.0000 0.32120  0.49400  0.60600  Biso   1.000  H
  H99      1.0000 0.17880  0.50600  0.10600  Biso   1.000  H
  H100     1.0000 0.67880  0.99400  0.89400  Biso   1.000  H
  H101     1.0000 0.17880  0.99400  0.60600  Biso   1.000  H
  H102     1.0000 0.67880  0.50600  0.39400  Biso   1.000  H
  H103     1.0000 0.82120  0.49400  0.89400  Biso   1.000  H
  H104     1.0000 0.32120  0.00600  0.10600  Biso   1.000  H
