data_image0
_cell_length_a       6.768
_cell_length_b       8.578
_cell_length_c       16.037
_cell_angle_alpha    79.67
_cell_angle_beta     83.34
_cell_angle_gamma    71.23

_symmetry_space_group_name_H-M    "P 1"
_symmetry_int_tables_number       1

loop_
  _symmetry_equiv_pos_as_xyz
  'x, y, z'

loop_
  _atom_site_label
  _atom_site_occupancy
  _atom_site_fract_x
  _atom_site_fract_y
  _atom_site_fract_z
  _atom_site_thermal_displace_type
  _atom_site_B_iso_or_equiv
  _atom_site_type_symbol
  Cu1      1.0000 0.75534  0.52305  0.45986  Biso   1.000  Cu
  Cu2      1.0000 0.24466  0.47695  0.54014  Biso   1.000  Cu
  Ca1      1.0000 0.00000  0.00000  0.00000  Biso   1.000  Ca
  C1       1.0000 0.70460  0.65060  0.11880  Biso   1.000  C
  C2       1.0000 0.29540  0.34940  0.88120  Biso   1.000  C
  C3       1.0000 0.81640  0.53880  0.19480  Biso   1.000  C
  C4       1.0000 0.18360  0.46120  0.80520  Biso   1.000  C
  O1       1.0000 0.96530  0.83390  0.15310  Biso   1.000  O
  O2       1.0000 0.03470  0.16610  0.84690  Biso   1.000  O
  O3       1.0000 0.52850  0.75020  0.13350  Biso   1.000  O
  O4       1.0000 0.47150  0.24980  0.86650  Biso   1.000  O
  C5       1.0000 0.67610  0.90510  0.25410  Biso   1.000  C
  C6       1.0000 0.32390  0.09490  0.74590  Biso   1.000  C
  O5       1.0000 0.70990  0.06140  0.11760  Biso   1.000  O
  O6       1.0000 0.29010  0.93860  0.88240  Biso   1.000  O
  C7       1.0000 0.79240  0.93280  0.16920  Biso   1.000  C
  C8       1.0000 0.20760  0.06720  0.83080  Biso   1.000  C
  O7       1.0000 0.83560  0.30110  0.98640  Biso   1.000  O
  O8       1.0000 0.16440  0.69890  0.01360  Biso   1.000  O
  H1       1.0000 0.74060  0.32520  0.02460  Biso   1.000  H
  H2       1.0000 0.25940  0.67480  0.97540  Biso   1.000  H
  H3       1.0000 0.92920  0.35050  0.99000  Biso   1.000  H
  H4       1.0000 0.07080  0.64950  0.01000  Biso   1.000  H
  N1       1.0000 0.86110  0.46160  0.34400  Biso   1.000  N
  N2       1.0000 0.13890  0.53840  0.65600  Biso   1.000  N
  N3       1.0000 0.61670  0.73870  0.38390  Biso   1.000  N
  N4       1.0000 0.38330  0.26130  0.61610  Biso   1.000  N
  O9       1.0000 0.79220  0.63000  0.04620  Biso   1.000  O
  O10      1.0000 0.20780  0.37000  0.95380  Biso   1.000  O
  C9       1.0000 0.79570  0.58070  0.27620  Biso   1.000  C
  C10      1.0000 0.20430  0.41930  0.72380  Biso   1.000  C
  N5       1.0000 0.56630  0.58840  0.55940  Biso   1.000  N
  N6       1.0000 0.43370  0.41160  0.44060  Biso   1.000  N
  C11      1.0000 0.69380  0.74830  0.30280  Biso   1.000  C
  C12      1.0000 0.30620  0.25170  0.69720  Biso   1.000  C
  N7       1.0000 0.96600  0.33630  0.51980  Biso   1.000  N
  N8       1.0000 0.03400  0.66370  0.48020  Biso   1.000  N
  N9       1.0000 0.93550  0.12110  0.62240  Biso   1.000  N
  N10      1.0000 0.06450  0.87890  0.37760  Biso   1.000  N
  N11      1.0000 0.94760  0.22610  0.56880  Biso   1.000  N
  N12      1.0000 0.05240  0.77390  0.43120  Biso   1.000  N
  O11      1.0000 0.26100  0.05380  0.06460  Biso   1.000  O
  O12      1.0000 0.73900  0.94620  0.93540  Biso   1.000  O
  H5       1.0000 0.36480  0.97380  0.08250  Biso   1.000  H
  H6       1.0000 0.63520  0.02620  0.91750  Biso   1.000  H
  H7       1.0000 0.29870  0.14400  0.03920  Biso   1.000  H
  H8       1.0000 0.70130  0.85600  0.96080  Biso   1.000  H
  C13      1.0000 0.55880  0.04700  0.28870  Biso   1.000  C
  C14      1.0000 0.44120  0.95300  0.71130  Biso   1.000  C
  H9       1.0000 0.54130  0.15510  0.25570  Biso   1.000  H
  H10      1.0000 0.45870  0.84490  0.74430  Biso   1.000  H
  C15      1.0000 0.46880  0.03130  0.36970  Biso   1.000  C
  C16      1.0000 0.53120  0.96870  0.63030  Biso   1.000  C
  H11      1.0000 0.38370  0.12870  0.39290  Biso   1.000  H
  H12      1.0000 0.61630  0.87130  0.60710  Biso   1.000  H
  C17      1.0000 0.50220  0.87640  0.41710  Biso   1.000  C
  C18      1.0000 0.49780  0.12360  0.58290  Biso   1.000  C
  H13      1.0000 0.44330  0.86570  0.47450  Biso   1.000  H
  H14      1.0000 0.55670  0.13430  0.52550  Biso   1.000  H
  C19      1.0000 0.95520  0.30330  0.33230  Biso   1.000  C
  C20      1.0000 0.04480  0.69670  0.66770  Biso   1.000  C
  H15      1.0000 0.99690  0.22070  0.38120  Biso   1.000  H
  H16      1.0000 0.00310  0.77930  0.61880  Biso   1.000  H
  C21      1.0000 0.99700  0.25540  0.25350  Biso   1.000  C
  C22      1.0000 0.00300  0.74460  0.74650  Biso   1.000  C
  H17      1.0000 0.07080  0.14180  0.24680  Biso   1.000  H
  H18      1.0000 0.92920  0.85820  0.75320  Biso   1.000  H
  C23      1.0000 0.92540  0.37420  0.18520  Biso   1.000  C
  C24      1.0000 0.07460  0.62580  0.81480  Biso   1.000  C
  H19      1.0000 0.95390  0.34380  0.12920  Biso   1.000  H
  H20      1.0000 0.04610  0.65620  0.87080  Biso   1.000  H
  N13      1.0000 0.61530  0.54970  0.63180  Biso   1.000  N
  N14      1.0000 0.38470  0.45030  0.36820  Biso   1.000  N
  N15      1.0000 0.65160  0.52010  0.70240  Biso   1.000  N
  N16      1.0000 0.34840  0.47990  0.29760  Biso   1.000  N
  Na1      1.0000 0.26890  0.62220  0.16100  Biso   1.000  Na
  Na2      1.0000 0.73110  0.37780  0.83900  Biso   1.000  Na
  O13      1.0000 0.44590  0.37790  0.09330  Biso   1.000  O
  O14      1.0000 0.55410  0.62210  0.90670  Biso   1.000  O
  H21      1.0000 0.37610  0.38590  0.04910  Biso   1.000  H
  H22      1.0000 0.62390  0.61410  0.95090  Biso   1.000  H
  H23      1.0000 0.49130  0.27960  0.11980  Biso   1.000  H
  H24      1.0000 0.50870  0.72040  0.88020  Biso   1.000  H
