data_image0
_cell_length_a       9.8194
_cell_length_b       9.9596
_cell_length_c       11.8595
_cell_angle_alpha    114.759
_cell_angle_beta     90.017
_cell_angle_gamma    116.693

_symmetry_space_group_name_H-M    "P 1"
_symmetry_int_tables_number       1

loop_
  _symmetry_equiv_pos_as_xyz
  'x, y, z'

loop_
  _atom_site_label
  _atom_site_occupancy
  _atom_site_fract_x
  _atom_site_fract_y
  _atom_site_fract_z
  _atom_site_thermal_displace_type
  _atom_site_B_iso_or_equiv
  _atom_site_type_symbol
  C1       1.0000 0.95740  0.91140  0.26150  Biso   1.000  C
  C2       1.0000 0.04260  0.08860  0.73850  Biso   1.000  C
  C3       1.0000 0.93400  0.84910  0.12300  Biso   1.000  C
  C4       1.0000 0.06600  0.15090  0.87700  Biso   1.000  C
  C5       1.0000 0.02480  0.78940  0.05410  Biso   1.000  C
  C6       1.0000 0.97520  0.21060  0.94590  Biso   1.000  C
  H1       1.0000 0.10480  0.78670  0.09540  Biso   1.000  H
  H2       1.0000 0.89520  0.21330  0.90460  Biso   1.000  H
  C7       1.0000 0.00070  0.73670  0.92400  Biso   1.000  C
  C8       1.0000 0.99930  0.26330  0.07600  Biso   1.000  C
  H3       1.0000 0.06230  0.69320  0.87660  Biso   1.000  H
  H4       1.0000 0.93770  0.30680  0.12340  Biso   1.000  H
  C9       1.0000 0.89020  0.74370  0.86230  Biso   1.000  C
  C10      1.0000 0.10980  0.25630  0.13770  Biso   1.000  C
  H5       1.0000 0.87640  0.70970  0.77380  Biso   1.000  H
  H6       1.0000 0.12360  0.29030  0.22620  Biso   1.000  H
  C11      1.0000 0.79800  0.80200  0.93180  Biso   1.000  C
  C12      1.0000 0.20200  0.19800  0.06820  Biso   1.000  C
  H7       1.0000 0.71930  0.80610  0.89020  Biso   1.000  H
  H8       1.0000 0.28070  0.19390  0.10980  Biso   1.000  H
  C13      1.0000 0.82080  0.85580  0.05880  Biso   1.000  C
  C14      1.0000 0.17920  0.14420  0.94120  Biso   1.000  C
  H9       1.0000 0.75820  0.89860  0.10470  Biso   1.000  H
  H10      1.0000 0.24180  0.10140  0.89530  Biso   1.000  H
  C15      1.0000 0.16750  0.31230  0.55730  Biso   1.000  C
  C16      1.0000 0.83250  0.68770  0.44270  Biso   1.000  C
  C17      1.0000 0.26030  0.50080  0.60160  Biso   1.000  C
  C18      1.0000 0.73970  0.49920  0.39840  Biso   1.000  C
  C19      1.0000 0.42200  0.58070  0.62890  Biso   1.000  C
  C20      1.0000 0.57800  0.41930  0.37110  Biso   1.000  C
  H11      1.0000 0.61940  0.80760  0.69180  Biso   1.000  H
  H12      1.0000 0.38060  0.19240  0.30820  Biso   1.000  H
  C21      1.0000 0.50840  0.75510  0.67640  Biso   1.000  C
  C22      1.0000 0.49160  0.24490  0.32360  Biso   1.000  C
  H13      1.0000 0.49810  0.97210  0.73960  Biso   1.000  H
  H14      1.0000 0.50190  0.02790  0.26040  Biso   1.000  H
  C23      1.0000 0.43620  0.85210  0.70400  Biso   1.000  C
  C24      1.0000 0.56380  0.14790  0.29600  Biso   1.000  C
  C25      1.0000 0.27480  0.77290  0.67640  Biso   1.000  C
  C26      1.0000 0.72520  0.22710  0.32360  Biso   1.000  C
  H15      1.0000 0.22400  0.83830  0.69030  Biso   1.000  H
  H16      1.0000 0.77600  0.16170  0.30970  Biso   1.000  H
  H17      1.0000 0.47190  0.51450  0.61400  Biso   1.000  H
  H18      1.0000 0.52810  0.48550  0.38600  Biso   1.000  H
  C27      1.0000 0.18570  0.59620  0.62800  Biso   1.000  C
  C28      1.0000 0.81430  0.40380  0.37200  Biso   1.000  C
  H19      1.0000 0.07470  0.54230  0.61330  Biso   1.000  H
  H20      1.0000 0.92530  0.45770  0.38670  Biso   1.000  H
  C29      1.0000 0.47580  0.12560  0.57950  Biso   1.000  C
  C30      1.0000 0.52420  0.87440  0.42050  Biso   1.000  C
  H21      1.0000 0.46230  0.21710  0.63520  Biso   1.000  H
  H22      1.0000 0.53770  0.78290  0.36480  Biso   1.000  H
  C31      1.0000 0.62640  0.14470  0.58740  Biso   1.000  C
  C32      1.0000 0.37360  0.85530  0.41260  Biso   1.000  C
  C33      1.0000 0.76350  0.30990  0.68230  Biso   1.000  C
  C34      1.0000 0.23650  0.69010  0.31770  Biso   1.000  C
  H23      1.0000 0.84070  0.28950  0.71410  Biso   1.000  H
  H24      1.0000 0.15930  0.71050  0.28590  Biso   1.000  H
  H25      1.0000 0.72710  0.36850  0.75370  Biso   1.000  H
  H26      1.0000 0.27290  0.63150  0.24630  Biso   1.000  H
  H27      1.0000 0.81180  0.38040  0.64050  Biso   1.000  H
  H28      1.0000 0.18820  0.61960  0.35950  Biso   1.000  H
  C35      1.0000 0.55700  0.54700  0.11810  Biso   1.000  C
  C36      1.0000 0.44300  0.45300  0.88190  Biso   1.000  C
  H29      1.0000 0.59810  0.57600  0.20250  Biso   1.000  H
  H30      1.0000 0.40190  0.42400  0.79750  Biso   1.000  H
  C37      1.0000 0.59000  0.43760  0.01760  Biso   1.000  C
  C38      1.0000 0.41000  0.56240  0.98240  Biso   1.000  C
  C39      1.0000 0.69290  0.37290  0.03920  Biso   1.000  C
  C40      1.0000 0.30710  0.62710  0.96080  Biso   1.000  C
  H31      1.0000 0.77790  0.39960  0.99500  Biso   1.000  H
  H32      1.0000 0.22210  0.60040  0.00500  Biso   1.000  H
  H33      1.0000 0.73730  0.42720  0.13090  Biso   1.000  H
  H34      1.0000 0.26270  0.57280  0.86910  Biso   1.000  H
  H35      1.0000 0.63110  0.24930  0.00600  Biso   1.000  H
  H36      1.0000 0.36890  0.75070  0.99400  Biso   1.000  H
  Cu1      1.0000 0.12794  0.98703  0.49949  Biso   1.000  Cu
  Cu2      1.0000 0.87206  0.01297  0.50051  Biso   1.000  Cu
  N1       1.0000 0.35060  0.98220  0.49610  Biso   1.000  N
  N2       1.0000 0.64940  0.01780  0.50390  Biso   1.000  N
  N3       1.0000 0.47040  0.61150  0.10250  Biso   1.000  N
  N4       1.0000 0.52960  0.38850  0.89750  Biso   1.000  N
  O1       1.0000 0.07160  0.92210  0.31920  Biso   1.000  O
  O2       1.0000 0.92840  0.07790  0.68080  Biso   1.000  O
  O3       1.0000 0.86000  0.94300  0.31730  Biso   1.000  O
  O4       1.0000 0.14000  0.05700  0.68270  Biso   1.000  O
  O5       1.0000 0.23390  0.23060  0.54320  Biso   1.000  O
  O6       1.0000 0.76610  0.76940  0.45680  Biso   1.000  O
  O7       1.0000 0.02060  0.24880  0.53720  Biso   1.000  O
  O8       1.0000 0.97940  0.75120  0.46280  Biso   1.000  O
