data_image0
_cell_length_a       15.4178
_cell_length_b       17.493
_cell_length_c       7.6747
_cell_angle_alpha    90
_cell_angle_beta     103.885
_cell_angle_gamma    90

_symmetry_space_group_name_H-M    "P 1"
_symmetry_int_tables_number       1

loop_
  _symmetry_equiv_pos_as_xyz
  'x, y, z'

loop_
  _atom_site_label
  _atom_site_occupancy
  _atom_site_fract_x
  _atom_site_fract_y
  _atom_site_fract_z
  _atom_site_thermal_displace_type
  _atom_site_B_iso_or_equiv
  _atom_site_type_symbol
  Cu1      1.0000 0.43273  0.12169  0.79667  Biso   1.000  Cu
  Cu2      1.0000 0.43273  0.87831  0.29667  Biso   1.000  Cu
  Cu3      1.0000 0.93273  0.62169  0.79667  Biso   1.000  Cu
  Cu4      1.0000 0.93273  0.37831  0.29667  Biso   1.000  Cu
  F1       1.0000 0.49674  0.38953  0.59510  Biso   1.000  F
  F2       1.0000 0.49674  0.61047  0.09510  Biso   1.000  F
  F3       1.0000 0.99674  0.88953  0.59510  Biso   1.000  F
  F4       1.0000 0.99674  0.11047  0.09510  Biso   1.000  F
  F5       1.0000 0.37419  0.35626  0.65920  Biso   1.000  F
  F6       1.0000 0.37419  0.64374  0.15920  Biso   1.000  F
  F7       1.0000 0.87419  0.85626  0.65920  Biso   1.000  F
  F8       1.0000 0.87419  0.14374  0.15920  Biso   1.000  F
  F9       1.0000 0.43720  0.38726  0.00260  Biso   1.000  F
  F10      1.0000 0.43720  0.61274  0.50260  Biso   1.000  F
  F11      1.0000 0.93720  0.88726  0.00260  Biso   1.000  F
  F12      1.0000 0.93720  0.11274  0.50260  Biso   1.000  F
  O1       1.0000 0.73047  0.27543  0.75550  Biso   1.000  O
  O2       1.0000 0.73047  0.72457  0.25550  Biso   1.000  O
  O3       1.0000 0.23047  0.77543  0.75550  Biso   1.000  O
  O4       1.0000 0.23047  0.22457  0.25550  Biso   1.000  O
  O5       1.0000 0.65730  0.37610  0.82030  Biso   1.000  O
  O6       1.0000 0.65730  0.62390  0.32030  Biso   1.000  O
  O7       1.0000 0.15730  0.87610  0.82030  Biso   1.000  O
  O8       1.0000 0.15730  0.12390  0.32030  Biso   1.000  O
  N1       1.0000 0.56060  0.11812  0.82220  Biso   1.000  N
  N2       1.0000 0.56060  0.88188  0.32220  Biso   1.000  N
  N3       1.0000 0.06060  0.61812  0.82220  Biso   1.000  N
  N4       1.0000 0.06060  0.38188  0.32220  Biso   1.000  N
  O9       1.0000 0.43620  0.23262  0.79100  Biso   1.000  O
  O10      1.0000 0.43620  0.76738  0.29100  Biso   1.000  O
  O11      1.0000 0.93620  0.73262  0.79100  Biso   1.000  O
  O12      1.0000 0.93620  0.26738  0.29100  Biso   1.000  O
  C1       1.0000 0.58590  0.25470  0.78350  Biso   1.000  C
  C2       1.0000 0.58590  0.74530  0.28350  Biso   1.000  C
  C3       1.0000 0.08590  0.75470  0.78350  Biso   1.000  C
  C4       1.0000 0.08590  0.24530  0.28350  Biso   1.000  C
  O13      1.0000 0.41648  0.02755  0.66280  Biso   1.000  O
  O14      1.0000 0.41648  0.97245  0.16280  Biso   1.000  O
  O15      1.0000 0.91648  0.52755  0.66280  Biso   1.000  O
  O16      1.0000 0.91648  0.47245  0.16280  Biso   1.000  O
  C5       1.0000 0.46430  0.35950  0.72700  Biso   1.000  C
  C6       1.0000 0.46430  0.64050  0.22700  Biso   1.000  C
  C7       1.0000 0.96430  0.85950  0.72700  Biso   1.000  C
  C8       1.0000 0.96430  0.14050  0.22700  Biso   1.000  C
  C9       1.0000 0.69150  0.90760  0.96430  Biso   1.000  C
  C10      1.0000 0.69150  0.09240  0.46430  Biso   1.000  C
  C11      1.0000 0.19150  0.40760  0.96430  Biso   1.000  C
  C12      1.0000 0.19150  0.59240  0.46430  Biso   1.000  C
  H1       1.0000 0.72050  0.86110  0.99390  Biso   1.000  H
  H2       1.0000 0.72050  0.13890  0.49390  Biso   1.000  H
  H3       1.0000 0.22050  0.36110  0.99390  Biso   1.000  H
  H4       1.0000 0.22050  0.63890  0.49390  Biso   1.000  H
  O17      1.0000 0.45478  0.91429  0.58120  Biso   1.000  O
  O18      1.0000 0.45478  0.08571  0.08120  Biso   1.000  O
  O19      1.0000 0.95478  0.41429  0.58120  Biso   1.000  O
  O20      1.0000 0.95478  0.58571  0.08120  Biso   1.000  O
  F13      1.0000 0.44600  0.48230  0.82610  Biso   1.000  F
  F14      1.0000 0.44600  0.51770  0.32610  Biso   1.000  F
  F15      1.0000 0.94600  0.98230  0.82610  Biso   1.000  F
  F16      1.0000 0.94600  0.01770  0.32610  Biso   1.000  F
  C13      1.0000 0.12610  0.12910  0.80770  Biso   1.000  C
  C14      1.0000 0.12610  0.87090  0.30770  Biso   1.000  C
  C15      1.0000 0.62610  0.62910  0.80770  Biso   1.000  C
  C16      1.0000 0.62610  0.37090  0.30770  Biso   1.000  C
  H5       1.0000 0.06710  0.12960  0.81720  Biso   1.000  H
  H6       1.0000 0.06710  0.87040  0.31720  Biso   1.000  H
  H7       1.0000 0.56710  0.62960  0.81720  Biso   1.000  H
  H8       1.0000 0.56710  0.37040  0.31720  Biso   1.000  H
  C17      1.0000 0.56310  0.97760  0.80170  Biso   1.000  C
  C18      1.0000 0.56310  0.02240  0.30170  Biso   1.000  C
  C19      1.0000 0.06310  0.47760  0.80170  Biso   1.000  C
  C20      1.0000 0.06310  0.52240  0.30170  Biso   1.000  C
  C21      1.0000 0.60470  0.04600  0.86900  Biso   1.000  C
  C22      1.0000 0.60470  0.95400  0.36900  Biso   1.000  C
  C23      1.0000 0.10470  0.54600  0.86900  Biso   1.000  C
  C24      1.0000 0.10470  0.45400  0.36900  Biso   1.000  C
  C25      1.0000 0.65880  0.30930  0.78600  Biso   1.000  C
  C26      1.0000 0.65880  0.69070  0.28600  Biso   1.000  C
  C27      1.0000 0.15880  0.80930  0.78600  Biso   1.000  C
  C28      1.0000 0.15880  0.19070  0.28600  Biso   1.000  C
  N5       1.0000 0.30050  0.12712  0.77970  Biso   1.000  N
  N6       1.0000 0.30050  0.87288  0.27970  Biso   1.000  N
  N7       1.0000 0.80050  0.62712  0.77970  Biso   1.000  N
  N8       1.0000 0.80050  0.37288  0.27970  Biso   1.000  N
  C29      1.0000 0.81210  0.32070  0.77790  Biso   1.000  C
  C30      1.0000 0.81210  0.67930  0.27790  Biso   1.000  C
  C31      1.0000 0.31210  0.82070  0.77790  Biso   1.000  C
  C32      1.0000 0.31210  0.17930  0.27790  Biso   1.000  C
  H9       1.0000 0.82450  0.34750  0.89180  Biso   1.000  H
  H10      1.0000 0.82450  0.65250  0.39180  Biso   1.000  H
  H11      1.0000 0.32450  0.84750  0.89180  Biso   1.000  H
  H12      1.0000 0.32450  0.15250  0.39180  Biso   1.000  H
  H13      1.0000 0.80560  0.35810  0.68230  Biso   1.000  H
  H14      1.0000 0.80560  0.64190  0.18230  Biso   1.000  H
  H15      1.0000 0.30560  0.85810  0.68230  Biso   1.000  H
  H16      1.0000 0.30560  0.14190  0.18230  Biso   1.000  H
  C33      1.0000 0.73140  0.97410  0.03280  Biso   1.000  C
  C34      1.0000 0.73140  0.02590  0.53280  Biso   1.000  C
  C35      1.0000 0.23140  0.47410  0.03280  Biso   1.000  C
  C36      1.0000 0.23140  0.52590  0.53280  Biso   1.000  C
  H17      1.0000 0.78770  0.97320  0.11090  Biso   1.000  H
  H18      1.0000 0.78770  0.02680  0.61090  Biso   1.000  H
  H19      1.0000 0.28770  0.47320  0.11090  Biso   1.000  H
  H20      1.0000 0.28770  0.52680  0.61090  Biso   1.000  H
  C37      1.0000 0.26050  0.06370  0.81550  Biso   1.000  C
  C38      1.0000 0.26050  0.93630  0.31550  Biso   1.000  C
  C39      1.0000 0.76050  0.56370  0.81550  Biso   1.000  C
  C40      1.0000 0.76050  0.43630  0.31550  Biso   1.000  C
  H21      1.0000 0.29240  0.01810  0.83020  Biso   1.000  H
  H22      1.0000 0.29240  0.98190  0.33020  Biso   1.000  H
  H23      1.0000 0.79240  0.51810  0.83020  Biso   1.000  H
  H24      1.0000 0.79240  0.48190  0.33020  Biso   1.000  H
  C41      1.0000 0.17410  0.06310  0.83150  Biso   1.000  C
  C42      1.0000 0.17410  0.93690  0.33150  Biso   1.000  C
  C43      1.0000 0.67410  0.56310  0.83150  Biso   1.000  C
  C44      1.0000 0.67410  0.43690  0.33150  Biso   1.000  C
  H25      1.0000 0.14840  0.01790  0.85840  Biso   1.000  H
  H26      1.0000 0.14840  0.98210  0.35840  Biso   1.000  H
  H27      1.0000 0.64840  0.51790  0.85840  Biso   1.000  H
  H28      1.0000 0.64840  0.48210  0.35840  Biso   1.000  H
  C45      1.0000 0.25310  0.19100  0.75850  Biso   1.000  C
  C46      1.0000 0.25310  0.80900  0.25850  Biso   1.000  C
  C47      1.0000 0.75310  0.69100  0.75850  Biso   1.000  C
  C48      1.0000 0.75310  0.30900  0.25850  Biso   1.000  C
  H29      1.0000 0.28000  0.23620  0.73480  Biso   1.000  H
  H30      1.0000 0.28000  0.76380  0.23480  Biso   1.000  H
  H31      1.0000 0.78000  0.73620  0.73480  Biso   1.000  H
  H32      1.0000 0.78000  0.26380  0.23480  Biso   1.000  H
  C49      1.0000 0.48110  0.41360  0.88500  Biso   1.000  C
  C50      1.0000 0.48110  0.58640  0.38500  Biso   1.000  C
  C51      1.0000 0.98110  0.91360  0.88500  Biso   1.000  C
  C52      1.0000 0.98110  0.08640  0.38500  Biso   1.000  C
  H33      1.0000 0.54520  0.41790  0.94020  Biso   1.000  H
  H34      1.0000 0.54520  0.58210  0.44020  Biso   1.000  H
  H35      1.0000 0.04520  0.91790  0.94020  Biso   1.000  H
  H36      1.0000 0.04520  0.08210  0.44020  Biso   1.000  H
  C53      1.0000 0.60810  0.91010  0.85130  Biso   1.000  C
  C54      1.0000 0.60810  0.08990  0.35130  Biso   1.000  C
  C55      1.0000 0.10810  0.41010  0.85130  Biso   1.000  C
  C56      1.0000 0.10810  0.58990  0.35130  Biso   1.000  C
  H37      1.0000 0.58080  0.86440  0.80630  Biso   1.000  H
  H38      1.0000 0.58080  0.13560  0.30630  Biso   1.000  H
  H39      1.0000 0.08080  0.36440  0.80630  Biso   1.000  H
  H40      1.0000 0.08080  0.63560  0.30630  Biso   1.000  H
  C57      1.0000 0.49790  0.27660  0.77230  Biso   1.000  C
  C58      1.0000 0.49790  0.72340  0.27230  Biso   1.000  C
  C59      1.0000 0.99790  0.77660  0.77230  Biso   1.000  C
  C60      1.0000 0.99790  0.22340  0.27230  Biso   1.000  C
  C61      1.0000 0.61060  0.17660  0.80990  Biso   1.000  C
  C62      1.0000 0.61060  0.82340  0.30990  Biso   1.000  C
  C63      1.0000 0.11060  0.67660  0.80990  Biso   1.000  C
  C64      1.0000 0.11060  0.32340  0.30990  Biso   1.000  C
  H41      1.0000 0.67070  0.16590  0.81960  Biso   1.000  H
  H42      1.0000 0.67070  0.83410  0.31960  Biso   1.000  H
  H43      1.0000 0.17070  0.66590  0.81960  Biso   1.000  H
  H44      1.0000 0.17070  0.33410  0.31960  Biso   1.000  H
  C65      1.0000 0.47230  0.97320  0.67190  Biso   1.000  C
  C66      1.0000 0.47230  0.02680  0.17190  Biso   1.000  C
  C67      1.0000 0.97230  0.47320  0.67190  Biso   1.000  C
  C68      1.0000 0.97230  0.52680  0.17190  Biso   1.000  C
  C69      1.0000 0.68860  0.04190  0.98680  Biso   1.000  C
  C70      1.0000 0.68860  0.95810  0.48680  Biso   1.000  C
  C71      1.0000 0.18860  0.54190  0.98680  Biso   1.000  C
  C72      1.0000 0.18860  0.45810  0.48680  Biso   1.000  C
  H45      1.0000 0.71630  0.08680  0.03560  Biso   1.000  H
  H46      1.0000 0.71630  0.91320  0.53560  Biso   1.000  H
  H47      1.0000 0.21630  0.58680  0.03560  Biso   1.000  H
  H48      1.0000 0.21630  0.41320  0.53560  Biso   1.000  H
  C73      1.0000 0.88490  0.26730  0.77230  Biso   1.000  C
  C74      1.0000 0.88490  0.73270  0.27230  Biso   1.000  C
  C75      1.0000 0.38490  0.76730  0.77230  Biso   1.000  C
  C76      1.0000 0.38490  0.23270  0.27230  Biso   1.000  C
  H49      1.0000 0.93980  0.29520  0.78600  Biso   1.000  H
  H50      1.0000 0.93980  0.70480  0.28600  Biso   1.000  H
  H51      1.0000 0.43980  0.79520  0.78600  Biso   1.000  H
  H52      1.0000 0.43980  0.20480  0.28600  Biso   1.000  H
  H53      1.0000 0.87170  0.24100  0.65930  Biso   1.000  H
  H54      1.0000 0.87170  0.75900  0.15930  Biso   1.000  H
  H55      1.0000 0.37170  0.74100  0.65930  Biso   1.000  H
  H56      1.0000 0.37170  0.25900  0.15930  Biso   1.000  H
  H57      1.0000 0.89090  0.23090  0.86800  Biso   1.000  H
  H58      1.0000 0.89090  0.76910  0.36800  Biso   1.000  H
  H59      1.0000 0.39090  0.73090  0.86800  Biso   1.000  H
  H60      1.0000 0.39090  0.26910  0.36800  Biso   1.000  H
  C77      1.0000 0.16540  0.19290  0.77040  Biso   1.000  C
  C78      1.0000 0.16540  0.80710  0.27040  Biso   1.000  C
  C79      1.0000 0.66540  0.69290  0.77040  Biso   1.000  C
  C80      1.0000 0.66540  0.30710  0.27040  Biso   1.000  C
  H61      1.0000 0.13360  0.23860  0.75250  Biso   1.000  H
  H62      1.0000 0.13360  0.76140  0.25250  Biso   1.000  H
  H63      1.0000 0.63360  0.73860  0.75250  Biso   1.000  H
  H64      1.0000 0.63360  0.26140  0.25250  Biso   1.000  H
