data_image0
_cell_length_a       23.542
_cell_length_b       11.48
_cell_length_c       21.416
_cell_angle_alpha    90
_cell_angle_beta     90.06
_cell_angle_gamma    90

_symmetry_space_group_name_H-M    "P 1"
_symmetry_int_tables_number       1

loop_
  _symmetry_equiv_pos_as_xyz
  'x, y, z'

loop_
  _atom_site_label
  _atom_site_occupancy
  _atom_site_fract_x
  _atom_site_fract_y
  _atom_site_fract_z
  _atom_site_thermal_displace_type
  _atom_site_B_iso_or_equiv
  _atom_site_type_symbol
  Cu1      1.0000 0.39180  0.64812  0.70020  Biso   1.000  Cu
  Cu2      1.0000 0.39180  0.35188  0.20020  Biso   1.000  Cu
  Cu3      1.0000 0.88616  0.11072  0.39927  Biso   1.000  Cu
  Cu4      1.0000 0.88616  0.88928  0.89927  Biso   1.000  Cu
  Cu5      1.0000 0.64339  0.39084  0.92704  Biso   1.000  Cu
  Cu6      1.0000 0.64339  0.60916  0.42704  Biso   1.000  Cu
  Cu7      1.0000 0.14493  0.14844  0.67192  Biso   1.000  Cu
  Cu8      1.0000 0.14493  0.85156  0.17192  Biso   1.000  Cu
  O1       1.0000 0.34410  0.76400  0.73620  Biso   1.000  O
  O2       1.0000 0.34410  0.23600  0.23620  Biso   1.000  O
  C1       1.0000 0.29680  0.78210  0.63850  Biso   1.000  C
  C2       1.0000 0.29680  0.21790  0.13850  Biso   1.000  C
  C3       1.0000 0.25750  0.84130  0.59930  Biso   1.000  C
  C4       1.0000 0.25750  0.15870  0.09930  Biso   1.000  C
  C5       1.0000 0.25200  0.80720  0.52940  Biso   1.000  C
  C6       1.0000 0.25200  0.19280  0.02940  Biso   1.000  C
  C7       1.0000 0.22590  0.68810  0.52480  Biso   1.000  C
  C8       1.0000 0.22590  0.31190  0.02480  Biso   1.000  C
  H1       1.0000 0.25090  0.63200  0.54360  Biso   1.000  H
  H2       1.0000 0.25090  0.36800  0.04360  Biso   1.000  H
  H3       1.0000 0.22010  0.66860  0.48170  Biso   1.000  H
  H4       1.0000 0.22010  0.33140  0.98170  Biso   1.000  H
  H5       1.0000 0.19020  0.68750  0.54630  Biso   1.000  H
  H6       1.0000 0.19020  0.31250  0.04630  Biso   1.000  H
  C9       1.0000 0.21160  0.89290  0.49560  Biso   1.000  C
  C10      1.0000 0.21160  0.10710  0.99560  Biso   1.000  C
  H7       1.0000 0.22970  0.96750  0.49200  Biso   1.000  H
  H8       1.0000 0.22970  0.03250  0.99200  Biso   1.000  H
  H9       1.0000 0.17720  0.90080  0.51920  Biso   1.000  H
  H10      1.0000 0.17720  0.09920  0.01920  Biso   1.000  H
  H11      1.0000 0.20290  0.86350  0.45480  Biso   1.000  H
  H12      1.0000 0.20290  0.13650  0.95480  Biso   1.000  H
  C11      1.0000 0.31060  0.80980  0.49730  Biso   1.000  C
  C12      1.0000 0.31060  0.19020  0.99730  Biso   1.000  C
  H13      1.0000 0.32480  0.88810  0.49700  Biso   1.000  H
  H14      1.0000 0.32480  0.11190  0.99700  Biso   1.000  H
  H15      1.0000 0.30700  0.78210  0.45520  Biso   1.000  H
  H16      1.0000 0.30700  0.21790  0.95520  Biso   1.000  H
  H17      1.0000 0.33650  0.76060  0.51980  Biso   1.000  H
  H18      1.0000 0.33650  0.23940  0.01980  Biso   1.000  H
  C13      1.0000 0.22660  0.92190  0.62730  Biso   1.000  C
  C14      1.0000 0.22660  0.07810  0.12730  Biso   1.000  C
  H19      1.0000 0.20130  0.96340  0.60250  Biso   1.000  H
  H20      1.0000 0.20130  0.03660  0.10250  Biso   1.000  H
  C15      1.0000 0.22850  0.95240  0.69440  Biso   1.000  C
  C16      1.0000 0.22850  0.04760  0.19440  Biso   1.000  C
  O3       1.0000 0.19170  0.02390  0.71360  Biso   1.000  O
  O4       1.0000 0.19170  0.97610  0.21360  Biso   1.000  O
  C17      1.0000 0.27120  0.90570  0.73580  Biso   1.000  C
  C18      1.0000 0.27120  0.09430  0.23580  Biso   1.000  C
  C19      1.0000 0.27320  0.94490  0.80200  Biso   1.000  C
  C20      1.0000 0.27320  0.05510  0.30200  Biso   1.000  C
  C21      1.0000 0.27870  0.07860  0.80720  Biso   1.000  C
  C22      1.0000 0.27870  0.92140  0.30720  Biso   1.000  C
  H21      1.0000 0.24660  0.11480  0.78740  Biso   1.000  H
  H22      1.0000 0.24660  0.88520  0.28740  Biso   1.000  H
  H23      1.0000 0.31300  0.10350  0.78700  Biso   1.000  H
  H24      1.0000 0.31300  0.89650  0.28700  Biso   1.000  H
  H25      1.0000 0.27980  0.10060  0.85040  Biso   1.000  H
  H26      1.0000 0.27980  0.89940  0.35040  Biso   1.000  H
  C23      1.0000 0.22210  0.90670  0.84040  Biso   1.000  C
  C24      1.0000 0.22210  0.09330  0.34040  Biso   1.000  C
  H27      1.0000 0.18780  0.93160  0.82010  Biso   1.000  H
  H28      1.0000 0.18780  0.06840  0.32010  Biso   1.000  H
  H29      1.0000 0.22420  0.94100  0.88120  Biso   1.000  H
  H30      1.0000 0.22420  0.05900  0.38120  Biso   1.000  H
  H31      1.0000 0.22200  0.82340  0.84410  Biso   1.000  H
  H32      1.0000 0.22200  0.17660  0.34410  Biso   1.000  H
  C25      1.0000 0.32540  0.90220  0.83680  Biso   1.000  C
  C26      1.0000 0.32540  0.09780  0.33680  Biso   1.000  C
  H33      1.0000 0.32290  0.92490  0.87980  Biso   1.000  H
  H34      1.0000 0.32290  0.07510  0.37980  Biso   1.000  H
  H35      1.0000 0.35880  0.93570  0.81850  Biso   1.000  H
  H36      1.0000 0.35880  0.06430  0.31850  Biso   1.000  H
  H37      1.0000 0.32750  0.81880  0.83400  Biso   1.000  H
  H38      1.0000 0.32750  0.18120  0.33400  Biso   1.000  H
  C27      1.0000 0.30540  0.81820  0.70910  Biso   1.000  C
  C28      1.0000 0.30540  0.18180  0.20910  Biso   1.000  C
  O5       1.0000 0.32640  0.69770  0.62170  Biso   1.000  O
  O6       1.0000 0.32640  0.30230  0.12170  Biso   1.000  O
  O7       1.0000 0.67220  0.24270  0.95510  Biso   1.000  O
  O8       1.0000 0.67220  0.75730  0.45510  Biso   1.000  O
  C29      1.0000 0.71620  0.21880  0.85790  Biso   1.000  C
  C30      1.0000 0.71620  0.78120  0.35790  Biso   1.000  C
  C31      1.0000 0.75670  0.15770  0.81700  Biso   1.000  C
  C32      1.0000 0.75670  0.84230  0.31700  Biso   1.000  C
  C33      1.0000 0.76260  0.18930  0.74800  Biso   1.000  C
  C34      1.0000 0.76260  0.81070  0.24800  Biso   1.000  C
  C35      1.0000 0.78240  0.31690  0.74350  Biso   1.000  C
  C36      1.0000 0.78240  0.68310  0.24350  Biso   1.000  C
  H39      1.0000 0.78870  0.33670  0.70050  Biso   1.000  H
  H40      1.0000 0.78870  0.66330  0.20050  Biso   1.000  H
  H41      1.0000 0.75380  0.36700  0.76060  Biso   1.000  H
  H42      1.0000 0.75380  0.63300  0.26060  Biso   1.000  H
  H43      1.0000 0.81710  0.32640  0.76640  Biso   1.000  H
  H44      1.0000 0.81710  0.67360  0.26640  Biso   1.000  H
  C37      1.0000 0.70550  0.17120  0.71650  Biso   1.000  C
  C38      1.0000 0.70550  0.82880  0.21650  Biso   1.000  C
  H45      1.0000 0.70850  0.19160  0.67310  Biso   1.000  H
  H46      1.0000 0.70850  0.80840  0.17310  Biso   1.000  H
  H47      1.0000 0.69450  0.09100  0.72020  Biso   1.000  H
  H48      1.0000 0.69450  0.90900  0.22020  Biso   1.000  H
  H49      1.0000 0.67750  0.21960  0.73620  Biso   1.000  H
  H50      1.0000 0.67750  0.78040  0.23620  Biso   1.000  H
  C39      1.0000 0.80750  0.11050  0.71540  Biso   1.000  C
  C40      1.0000 0.80750  0.88950  0.21540  Biso   1.000  C
  H51      1.0000 0.81240  0.13560  0.67300  Biso   1.000  H
  H52      1.0000 0.81240  0.86440  0.17300  Biso   1.000  H
  H53      1.0000 0.84300  0.11610  0.73720  Biso   1.000  H
  H54      1.0000 0.84300  0.88390  0.23720  Biso   1.000  H
  H55      1.0000 0.79460  0.03110  0.71580  Biso   1.000  H
  H56      1.0000 0.79460  0.96890  0.21580  Biso   1.000  H
  C41      1.0000 0.78780  0.07510  0.84600  Biso   1.000  C
  C42      1.0000 0.78780  0.92490  0.34600  Biso   1.000  C
  H57      1.0000 0.81220  0.03160  0.82110  Biso   1.000  H
  H58      1.0000 0.81220  0.96840  0.32110  Biso   1.000  H
  C43      1.0000 0.78730  0.04660  0.91320  Biso   1.000  C
  C44      1.0000 0.78730  0.95340  0.41320  Biso   1.000  C
  O9       1.0000 0.81810  0.97010  0.93240  Biso   1.000  O
  O10      1.0000 0.81810  0.02990  0.43240  Biso   1.000  O
  C45      1.0000 0.74690  0.10720  0.95380  Biso   1.000  C
  C46      1.0000 0.74690  0.89280  0.45380  Biso   1.000  C
  C47      1.0000 0.74660  0.06740  0.02480  Biso   1.000  C
  C48      1.0000 0.74660  0.93260  0.52480  Biso   1.000  C
  C49      1.0000 0.72350  0.94130  0.02690  Biso   1.000  C
  C50      1.0000 0.72350  0.05870  0.52690  Biso   1.000  C
  H59      1.0000 0.72250  0.91480  0.06940  Biso   1.000  H
  H60      1.0000 0.72250  0.08520  0.56940  Biso   1.000  H
  H61      1.0000 0.68580  0.93950  0.00970  Biso   1.000  H
  H62      1.0000 0.68580  0.06050  0.50970  Biso   1.000  H
  H63      1.0000 0.74780  0.89130  0.00290  Biso   1.000  H
  H64      1.0000 0.74780  0.10870  0.50290  Biso   1.000  H
  C51      1.0000 0.70530  0.13890  0.06500  Biso   1.000  C
  C52      1.0000 0.70530  0.86110  0.56500  Biso   1.000  C
  H65      1.0000 0.71100  0.22040  0.05710  Biso   1.000  H
  H66      1.0000 0.71100  0.77960  0.55710  Biso   1.000  H
  H67      1.0000 0.66690  0.11810  0.05470  Biso   1.000  H
  H68      1.0000 0.66690  0.88190  0.55470  Biso   1.000  H
  H69      1.0000 0.71220  0.12290  0.10830  Biso   1.000  H
  H70      1.0000 0.71220  0.87710  0.60830  Biso   1.000  H
  C53      1.0000 0.80530  0.08200  0.05150  Biso   1.000  C
  C54      1.0000 0.80530  0.91800  0.55150  Biso   1.000  C
  H71      1.0000 0.81830  0.16000  0.04410  Biso   1.000  H
  H72      1.0000 0.81830  0.84000  0.54410  Biso   1.000  H
  H73      1.0000 0.80430  0.06760  0.09570  Biso   1.000  H
  H74      1.0000 0.80430  0.93240  0.59570  Biso   1.000  H
  H75      1.0000 0.83070  0.02780  0.03200  Biso   1.000  H
  H76      1.0000 0.83070  0.97220  0.53200  Biso   1.000  H
  C55      1.0000 0.71230  0.18970  0.92810  Biso   1.000  C
  C56      1.0000 0.71230  0.81030  0.42810  Biso   1.000  C
  O11      1.0000 0.68650  0.29950  0.83920  Biso   1.000  O
  O12      1.0000 0.68650  0.70050  0.33920  Biso   1.000  O
  O13      1.0000 0.10150  0.27210  0.62050  Biso   1.000  O
  O14      1.0000 0.10150  0.72790  0.12050  Biso   1.000  O
  C57      1.0000 0.06680  0.22740  0.58250  Biso   1.000  C
  C58      1.0000 0.06680  0.77260  0.08250  Biso   1.000  C
  C59      1.0000 0.03250  0.30030  0.54080  Biso   1.000  C
  C60      1.0000 0.03250  0.69970  0.04080  Biso   1.000  C
  C61      1.0000 0.04030  0.43240  0.54000  Biso   1.000  C
  C62      1.0000 0.04030  0.56760  0.04000  Biso   1.000  C
  C63      1.0000 0.02690  0.47990  0.60420  Biso   1.000  C
  C64      1.0000 0.02690  0.52010  0.10420  Biso   1.000  C
  H77      1.0000 0.98890  0.45830  0.61550  Biso   1.000  H
  H78      1.0000 0.98890  0.54170  0.11550  Biso   1.000  H
  H79      1.0000 0.03010  0.56320  0.60370  Biso   1.000  H
  H80      1.0000 0.03010  0.43680  0.10370  Biso   1.000  H
  H81      1.0000 0.05320  0.44830  0.63400  Biso   1.000  H
  H82      1.0000 0.05320  0.55170  0.13400  Biso   1.000  H
  C65      1.0000 0.10260  0.45760  0.52190  Biso   1.000  C
  C66      1.0000 0.10260  0.54240  0.02190  Biso   1.000  C
  H83      1.0000 0.12740  0.42750  0.55360  Biso   1.000  H
  H84      1.0000 0.12740  0.57250  0.05360  Biso   1.000  H
  H85      1.0000 0.10800  0.54020  0.51820  Biso   1.000  H
  H86      1.0000 0.10800  0.45980  0.01820  Biso   1.000  H
  H87      1.0000 0.11100  0.42090  0.48270  Biso   1.000  H
  H88      1.0000 0.11100  0.57910  0.98270  Biso   1.000  H
  C67      1.0000 0.00120  0.48530  0.49200  Biso   1.000  C
  C68      1.0000 0.00120  0.51470  0.99200  Biso   1.000  C
  H89      1.0000 0.96250  0.47230  0.50410  Biso   1.000  H
  H90      1.0000 0.96250  0.52770  0.00410  Biso   1.000  H
  H91      1.0000 0.00800  0.44990  0.45210  Biso   1.000  H
  H92      1.0000 0.00800  0.55010  0.95210  Biso   1.000  H
  H93      1.0000 0.00820  0.56760  0.48930  Biso   1.000  H
  H94      1.0000 0.00820  0.43240  0.98930  Biso   1.000  H
  C69      1.0000 0.99250  0.23930  0.51130  Biso   1.000  C
  C70      1.0000 0.99250  0.76070  0.01130  Biso   1.000  C
  H95      1.0000 0.96780  0.28140  0.48600  Biso   1.000  H
  H96      1.0000 0.96780  0.71860  0.98600  Biso   1.000  H
  C71      1.0000 0.98330  0.11350  0.51410  Biso   1.000  C
  C72      1.0000 0.98330  0.88650  0.01410  Biso   1.000  C
  O15      1.0000 0.94170  0.07360  0.48640  Biso   1.000  O
  O16      1.0000 0.94170  0.92640  0.98640  Biso   1.000  O
  C73      1.0000 0.02070  0.04140  0.55150  Biso   1.000  C
  C74      1.0000 0.02070  0.95860  0.05150  Biso   1.000  C
  C75      1.0000 0.01030  0.90960  0.55510  Biso   1.000  C
  C76      1.0000 0.01030  0.09040  0.05510  Biso   1.000  C
  C77      1.0000 0.05610  0.84330  0.58160  Biso   1.000  C
  C78      1.0000 0.05610  0.15670  0.08160  Biso   1.000  C
  H97      1.0000 0.08570  0.83450  0.55110  Biso   1.000  H
  H98      1.0000 0.08570  0.16550  0.05110  Biso   1.000  H
  H99      1.0000 0.04250  0.76790  0.59380  Biso   1.000  H
  H100     1.0000 0.04250  0.23210  0.09380  Biso   1.000  H
  H101     1.0000 0.07080  0.88320  0.61750  Biso   1.000  H
  H102     1.0000 0.07080  0.11680  0.11750  Biso   1.000  H
  C79      1.0000 0.99190  0.86340  0.50290  Biso   1.000  C
  C80      1.0000 0.99190  0.13660  0.00290  Biso   1.000  C
  H103     1.0000 0.02010  0.87280  0.47100  Biso   1.000  H
  H104     1.0000 0.02010  0.12720  0.97100  Biso   1.000  H
  H105     1.0000 0.95750  0.90160  0.49030  Biso   1.000  H
  H106     1.0000 0.95750  0.09840  0.99030  Biso   1.000  H
  H107     1.0000 0.98460  0.78200  0.50920  Biso   1.000  H
  H108     1.0000 0.98460  0.21800  0.00920  Biso   1.000  H
  C81      1.0000 0.96850  0.88320  0.59930  Biso   1.000  C
  C82      1.0000 0.96850  0.11680  0.09930  Biso   1.000  C
  H109     1.0000 0.96250  0.80050  0.60020  Biso   1.000  H
  H110     1.0000 0.96250  0.19950  0.10020  Biso   1.000  H
  H111     1.0000 0.93370  0.92160  0.58810  Biso   1.000  H
  H112     1.0000 0.93370  0.07840  0.08810  Biso   1.000  H
  H113     1.0000 0.98070  0.90940  0.63970  Biso   1.000  H
  H114     1.0000 0.98070  0.09060  0.13970  Biso   1.000  H
  C83      1.0000 0.06280  0.09730  0.58480  Biso   1.000  C
  C84      1.0000 0.06280  0.90270  0.08480  Biso   1.000  C
  O17      1.0000 0.10060  0.04830  0.62040  Biso   1.000  O
  O18      1.0000 0.10060  0.95170  0.12040  Biso   1.000  O
  O19      1.0000 0.91410  0.02620  0.86020  Biso   1.000  O
  O20      1.0000 0.91410  0.97380  0.36020  Biso   1.000  O
  C85      1.0000 0.98430  0.89410  0.82800  Biso   1.000  C
  C86      1.0000 0.98430  0.10590  0.32800  Biso   1.000  C
  C87      1.0000 0.03500  0.86160  0.79050  Biso   1.000  C
  C88      1.0000 0.03500  0.13840  0.29050  Biso   1.000  C
  C89      1.0000 0.05190  0.73410  0.78420  Biso   1.000  C
  C90      1.0000 0.05190  0.26590  0.28420  Biso   1.000  C
  C91      1.0000 0.10310  0.72280  0.74080  Biso   1.000  C
  C92      1.0000 0.10310  0.27720  0.24080  Biso   1.000  C
  H115     1.0000 0.09280  0.74850  0.69970  Biso   1.000  H
  H116     1.0000 0.09280  0.25150  0.19970  Biso   1.000  H
  H117     1.0000 0.13370  0.76990  0.75640  Biso   1.000  H
  H118     1.0000 0.13370  0.23010  0.25640  Biso   1.000  H
  H119     1.0000 0.11500  0.64290  0.73920  Biso   1.000  H
  H120     1.0000 0.11500  0.35710  0.23920  Biso   1.000  H
  C93      1.0000 0.00430  0.66300  0.75880  Biso   1.000  C
  C94      1.0000 0.00430  0.33700  0.25880  Biso   1.000  C
  H121     1.0000 0.99450  0.69060  0.71790  Biso   1.000  H
  H122     1.0000 0.99450  0.30940  0.21790  Biso   1.000  H
  H123     1.0000 0.01580  0.58290  0.75630  Biso   1.000  H
  H124     1.0000 0.01580  0.41710  0.25630  Biso   1.000  H
  H125     1.0000 0.97200  0.66970  0.78580  Biso   1.000  H
  H126     1.0000 0.97200  0.33030  0.28580  Biso   1.000  H
  C95      1.0000 0.07190  0.69300  0.84960  Biso   1.000  C
  C96      1.0000 0.07190  0.30700  0.34960  Biso   1.000  C
  H127     1.0000 0.04280  0.70870  0.87970  Biso   1.000  H
  H128     1.0000 0.04280  0.29130  0.37970  Biso   1.000  H
  H129     1.0000 0.07950  0.61080  0.84850  Biso   1.000  H
  H130     1.0000 0.07950  0.38920  0.34850  Biso   1.000  H
  H131     1.0000 0.10590  0.73400  0.86100  Biso   1.000  H
  H132     1.0000 0.10590  0.26600  0.36100  Biso   1.000  H
  C97      1.0000 0.06130  0.95240  0.76580  Biso   1.000  C
  C98      1.0000 0.06130  0.04760  0.26580  Biso   1.000  C
  H133     1.0000 0.09400  0.93720  0.74290  Biso   1.000  H
  H134     1.0000 0.09400  0.06280  0.24290  Biso   1.000  H
  C99      1.0000 0.04360  0.07790  0.77120  Biso   1.000  C
  C100     1.0000 0.04360  0.92210  0.27120  Biso   1.000  C
  O21      1.0000 0.07530  0.14950  0.74460  Biso   1.000  O
  O22      1.0000 0.07530  0.85050  0.24460  Biso   1.000  O
  C101     1.0000 0.99530  0.10610  0.80400  Biso   1.000  C
  C102     1.0000 0.99530  0.89390  0.30400  Biso   1.000  C
  C103     1.0000 0.97760  0.24030  0.80560  Biso   1.000  C
  C104     1.0000 0.97760  0.75970  0.30560  Biso   1.000  C
  C105     1.0000 0.02520  0.31020  0.83550  Biso   1.000  C
  C106     1.0000 0.02520  0.68980  0.33550  Biso   1.000  C
  H135     1.0000 0.01310  0.38940  0.84100  Biso   1.000  H
  H136     1.0000 0.01310  0.61060  0.34100  Biso   1.000  H
  H137     1.0000 0.03450  0.27710  0.87530  Biso   1.000  H
  H138     1.0000 0.03450  0.72290  0.37530  Biso   1.000  H
  H139     1.0000 0.05800  0.30840  0.80890  Biso   1.000  H
  H140     1.0000 0.05800  0.69160  0.30890  Biso   1.000  H
  C107     1.0000 0.96670  0.28370  0.74040  Biso   1.000  C
  C108     1.0000 0.96670  0.71630  0.24040  Biso   1.000  C
  H141     1.0000 0.95180  0.36140  0.74220  Biso   1.000  H
  H142     1.0000 0.95180  0.63860  0.24220  Biso   1.000  H
  H143     1.0000 0.00160  0.28360  0.71730  Biso   1.000  H
  H144     1.0000 0.00160  0.71640  0.21730  Biso   1.000  H
  H145     1.0000 0.93970  0.23360  0.72020  Biso   1.000  H
  H146     1.0000 0.93970  0.76640  0.22020  Biso   1.000  H
  C109     1.0000 0.92460  0.26580  0.84650  Biso   1.000  C
  C110     1.0000 0.92460  0.73420  0.34650  Biso   1.000  C
  H147     1.0000 0.91650  0.34770  0.84570  Biso   1.000  H
  H148     1.0000 0.91650  0.65230  0.34570  Biso   1.000  H
  H149     1.0000 0.89260  0.22350  0.83050  Biso   1.000  H
  H150     1.0000 0.89260  0.77650  0.33050  Biso   1.000  H
  H151     1.0000 0.93190  0.24190  0.88870  Biso   1.000  H
  H152     1.0000 0.93190  0.75810  0.38870  Biso   1.000  H
  C111     1.0000 0.96200  0.02040  0.83000  Biso   1.000  C
  C112     1.0000 0.96200  0.97960  0.33000  Biso   1.000  C
  O23      1.0000 0.95700  0.82330  0.85750  Biso   1.000  O
  O24      1.0000 0.95700  0.17670  0.35750  Biso   1.000  O
  O25      1.0000 0.56800  0.32400  0.89590  Biso   1.000  O
  O26      1.0000 0.56800  0.67600  0.39590  Biso   1.000  O
  C113     1.0000 0.53790  0.39590  0.86660  Biso   1.000  C
  C114     1.0000 0.53790  0.60410  0.36660  Biso   1.000  C
  C115     1.0000 0.48880  0.36390  0.83160  Biso   1.000  C
  C116     1.0000 0.48880  0.63610  0.33160  Biso   1.000  C
  C117     1.0000 0.47210  0.23490  0.82730  Biso   1.000  C
  C118     1.0000 0.47210  0.76510  0.32730  Biso   1.000  C
  C119     1.0000 0.52270  0.16020  0.80460  Biso   1.000  C
  C120     1.0000 0.52270  0.83980  0.30460  Biso   1.000  C
  H153     1.0000 0.55280  0.16370  0.83480  Biso   1.000  H
  H154     1.0000 0.55280  0.83630  0.33480  Biso   1.000  H
  H155     1.0000 0.51060  0.08090  0.79970  Biso   1.000  H
  H156     1.0000 0.51060  0.91910  0.29970  Biso   1.000  H
  H157     1.0000 0.53600  0.18960  0.76530  Biso   1.000  H
  H158     1.0000 0.53600  0.81040  0.26530  Biso   1.000  H
  C121     1.0000 0.45210  0.19150  0.89220  Biso   1.000  C
  C122     1.0000 0.45210  0.80850  0.39220  Biso   1.000  C
  H159     1.0000 0.41970  0.23610  0.90540  Biso   1.000  H
  H160     1.0000 0.41970  0.76390  0.40540  Biso   1.000  H
  H161     1.0000 0.44180  0.11070  0.88950  Biso   1.000  H
  H162     1.0000 0.44180  0.88930  0.38950  Biso   1.000  H
  H163     1.0000 0.48230  0.20070  0.92200  Biso   1.000  H
  H164     1.0000 0.48230  0.79930  0.42200  Biso   1.000  H
  C123     1.0000 0.42290  0.21920  0.78090  Biso   1.000  C
  C124     1.0000 0.42290  0.78080  0.28090  Biso   1.000  C
  H165     1.0000 0.39050  0.26270  0.79500  Biso   1.000  H
  H166     1.0000 0.39050  0.73730  0.29500  Biso   1.000  H
  H167     1.0000 0.43430  0.24690  0.74050  Biso   1.000  H
  H168     1.0000 0.43430  0.75310  0.24050  Biso   1.000  H
  H169     1.0000 0.41310  0.13820  0.77820  Biso   1.000  H
  H170     1.0000 0.41310  0.86180  0.27820  Biso   1.000  H
  C125     1.0000 0.45970  0.45570  0.80700  Biso   1.000  C
  C126     1.0000 0.45970  0.54430  0.30700  Biso   1.000  C
  H171     1.0000 0.42670  0.43980  0.78470  Biso   1.000  H
  H172     1.0000 0.42670  0.56020  0.28470  Biso   1.000  H
  C127     1.0000 0.47650  0.57520  0.81320  Biso   1.000  C
  C128     1.0000 0.47650  0.42480  0.31320  Biso   1.000  C
  O27      1.0000 0.44410  0.64810  0.78850  Biso   1.000  O
  O28      1.0000 0.44410  0.35190  0.28850  Biso   1.000  O
  C129     1.0000 0.54010  0.74290  0.85040  Biso   1.000  C
  C130     1.0000 0.54010  0.25710  0.35040  Biso   1.000  C
  C131     1.0000 0.52860  0.61280  0.84770  Biso   1.000  C
  C132     1.0000 0.52860  0.38720  0.34770  Biso   1.000  C
  C133     1.0000 0.59480  0.76870  0.88780  Biso   1.000  C
  C134     1.0000 0.59480  0.23130  0.38780  Biso   1.000  C
  H173     1.0000 0.58820  0.75360  0.93130  Biso   1.000  H
  H174     1.0000 0.58820  0.24640  0.43130  Biso   1.000  H
  H175     1.0000 0.62490  0.71950  0.87310  Biso   1.000  H
  H176     1.0000 0.62490  0.28050  0.37310  Biso   1.000  H
  H177     1.0000 0.60520  0.84880  0.88230  Biso   1.000  H
  H178     1.0000 0.60520  0.15120  0.38230  Biso   1.000  H
  C135     1.0000 0.49090  0.80270  0.88570  Biso   1.000  C
  C136     1.0000 0.49090  0.19730  0.38570  Biso   1.000  C
  H179     1.0000 0.45590  0.78990  0.86360  Biso   1.000  H
  H180     1.0000 0.45590  0.21010  0.36360  Biso   1.000  H
  H181     1.0000 0.48800  0.77060  0.92700  Biso   1.000  H
  H182     1.0000 0.48800  0.22940  0.42700  Biso   1.000  H
  H183     1.0000 0.49810  0.88480  0.88850  Biso   1.000  H
  H184     1.0000 0.49810  0.11520  0.38850  Biso   1.000  H
  C137     1.0000 0.54710  0.79380  0.78510  Biso   1.000  C
  C138     1.0000 0.54710  0.20620  0.28510  Biso   1.000  C
  H185     1.0000 0.51260  0.78300  0.76190  Biso   1.000  H
  H186     1.0000 0.51260  0.21700  0.26190  Biso   1.000  H
  H187     1.0000 0.55540  0.87540  0.78820  Biso   1.000  H
  H188     1.0000 0.55540  0.12460  0.28820  Biso   1.000  H
  H189     1.0000 0.57770  0.75490  0.76410  Biso   1.000  H
  H190     1.0000 0.57770  0.24510  0.26410  Biso   1.000  H
  C139     1.0000 0.56070  0.52280  0.87010  Biso   1.000  C
  C140     1.0000 0.56070  0.47720  0.37010  Biso   1.000  C
  O29      1.0000 0.60920  0.53050  0.89620  Biso   1.000  O
  O30      1.0000 0.60920  0.46950  0.39620  Biso   1.000  O
  O31      1.0000 0.22230  0.20140  0.60940  Biso   1.000  O
  O32      1.0000 0.22230  0.79860  0.10940  Biso   1.000  O
  C141     1.0000 0.24660  0.28560  0.63240  Biso   1.000  C
  C142     1.0000 0.24660  0.71440  0.13240  Biso   1.000  C
  C143     1.0000 0.29340  0.35030  0.60040  Biso   1.000  C
  C144     1.0000 0.29340  0.64970  0.10040  Biso   1.000  C
  C145     1.0000 0.30980  0.32190  0.53270  Biso   1.000  C
  C146     1.0000 0.30980  0.67810  0.03270  Biso   1.000  C
  C147     1.0000 0.25580  0.32820  0.49120  Biso   1.000  C
  C148     1.0000 0.25580  0.67180  0.99120  Biso   1.000  C
  H191     1.0000 0.26590  0.31300  0.44850  Biso   1.000  H
  H192     1.0000 0.26590  0.68700  0.94850  Biso   1.000  H
  H193     1.0000 0.23930  0.40440  0.49430  Biso   1.000  H
  H194     1.0000 0.23930  0.59560  0.99430  Biso   1.000  H
  H195     1.0000 0.22890  0.27100  0.50500  Biso   1.000  H
  H196     1.0000 0.22890  0.72900  0.00500  Biso   1.000  H
  C149     1.0000 0.33410  0.19880  0.52810  Biso   1.000  C
  C150     1.0000 0.33410  0.80120  0.02810  Biso   1.000  C
  H197     1.0000 0.34140  0.18030  0.48520  Biso   1.000  H
  H198     1.0000 0.34140  0.81970  0.98520  Biso   1.000  H
  H199     1.0000 0.30720  0.14420  0.54490  Biso   1.000  H
  H200     1.0000 0.30720  0.85580  0.04490  Biso   1.000  H
  H201     1.0000 0.36880  0.19440  0.55150  Biso   1.000  H
  H202     1.0000 0.36880  0.80560  0.05150  Biso   1.000  H
  C151     1.0000 0.35360  0.40780  0.50570  Biso   1.000  C
  C152     1.0000 0.35360  0.59220  0.00570  Biso   1.000  C
  H203     1.0000 0.35780  0.39410  0.46170  Biso   1.000  H
  H204     1.0000 0.35780  0.60590  0.96170  Biso   1.000  H
  H205     1.0000 0.38950  0.39670  0.52610  Biso   1.000  H
  H206     1.0000 0.38950  0.60330  0.02610  Biso   1.000  H
  H207     1.0000 0.34080  0.48620  0.51240  Biso   1.000  H
  H208     1.0000 0.34080  0.51380  0.01240  Biso   1.000  H
  C153     1.0000 0.32070  0.42130  0.63770  Biso   1.000  C
  C154     1.0000 0.32070  0.57870  0.13770  Biso   1.000  C
  H209     1.0000 0.35250  0.45740  0.62090  Biso   1.000  H
  H210     1.0000 0.35250  0.54260  0.12090  Biso   1.000  H
  C155     1.0000 0.30740  0.45120  0.70320  Biso   1.000  C
  C156     1.0000 0.30740  0.54880  0.20320  Biso   1.000  C
  O33      1.0000 0.34000  0.51960  0.72900  Biso   1.000  O
  O34      1.0000 0.34000  0.48040  0.22900  Biso   1.000  O
  C157     1.0000 0.25850  0.40300  0.73330  Biso   1.000  C
  C158     1.0000 0.25850  0.59700  0.23330  Biso   1.000  C
  C159     1.0000 0.24360  0.44440  0.79960  Biso   1.000  C
  C160     1.0000 0.24360  0.55560  0.29960  Biso   1.000  C
  C161     1.0000 0.28860  0.40840  0.84560  Biso   1.000  C
  C162     1.0000 0.28860  0.59160  0.34560  Biso   1.000  C
  H211     1.0000 0.29550  0.32630  0.84190  Biso   1.000  H
  H212     1.0000 0.29550  0.67370  0.34190  Biso   1.000  H
  H213     1.0000 0.27600  0.42570  0.88720  Biso   1.000  H
  H214     1.0000 0.27600  0.57430  0.38720  Biso   1.000  H
  H215     1.0000 0.32300  0.45030  0.83720  Biso   1.000  H
  H216     1.0000 0.32300  0.54970  0.33720  Biso   1.000  H
  C163     1.0000 0.23760  0.57830  0.79880  Biso   1.000  C
  C164     1.0000 0.23760  0.42170  0.29880  Biso   1.000  C
  H217     1.0000 0.22830  0.60540  0.83990  Biso   1.000  H
  H218     1.0000 0.22830  0.39460  0.33990  Biso   1.000  H
  H219     1.0000 0.20790  0.60000  0.77030  Biso   1.000  H
  H220     1.0000 0.20790  0.40000  0.27030  Biso   1.000  H
  H221     1.0000 0.27270  0.61260  0.78560  Biso   1.000  H
  H222     1.0000 0.27270  0.38740  0.28560  Biso   1.000  H
  C165     1.0000 0.18630  0.39480  0.82320  Biso   1.000  C
  C166     1.0000 0.18630  0.60520  0.32320  Biso   1.000  C
  H223     1.0000 0.18610  0.31170  0.81820  Biso   1.000  H
  H224     1.0000 0.18610  0.68830  0.31820  Biso   1.000  H
  H225     1.0000 0.15580  0.42820  0.79950  Biso   1.000  H
  H226     1.0000 0.15580  0.57180  0.29950  Biso   1.000  H
  H227     1.0000 0.18170  0.41390  0.86660  Biso   1.000  H
  H228     1.0000 0.18170  0.58610  0.36660  Biso   1.000  H
  C167     1.0000 0.22830  0.32170  0.70100  Biso   1.000  C
  C168     1.0000 0.22830  0.67830  0.20100  Biso   1.000  C
  O35      1.0000 0.18470  0.26340  0.71870  Biso   1.000  O
  O36      1.0000 0.18470  0.73660  0.21870  Biso   1.000  O
  O37      1.0000 0.82820  0.79780  0.82550  Biso   1.000  O
  O38      1.0000 0.82820  0.20220  0.32550  Biso   1.000  O
  C169     1.0000 0.80480  0.72180  0.85150  Biso   1.000  C
  C170     1.0000 0.80480  0.27820  0.35150  Biso   1.000  C
  C171     1.0000 0.75640  0.65800  0.81920  Biso   1.000  C
  C172     1.0000 0.75640  0.34200  0.31920  Biso   1.000  C
  C173     1.0000 0.73930  0.68650  0.75210  Biso   1.000  C
  C174     1.0000 0.73930  0.31350  0.25210  Biso   1.000  C
  C175     1.0000 0.78870  0.67080  0.70780  Biso   1.000  C
  C176     1.0000 0.78870  0.32920  0.20780  Biso   1.000  C
  H229     1.0000 0.79560  0.58920  0.70170  Biso   1.000  H
  H230     1.0000 0.79560  0.41080  0.20170  Biso   1.000  H
  H231     1.0000 0.77990  0.70650  0.66850  Biso   1.000  H
  H232     1.0000 0.77990  0.29350  0.16850  Biso   1.000  H
  H233     1.0000 0.82200  0.70670  0.72520  Biso   1.000  H
  H234     1.0000 0.82200  0.29330  0.22520  Biso   1.000  H
  C177     1.0000 0.69010  0.60760  0.72960  Biso   1.000  C
  C178     1.0000 0.69010  0.39240  0.22960  Biso   1.000  C
  H235     1.0000 0.65810  0.61670  0.75700  Biso   1.000  H
  H236     1.0000 0.65810  0.38330  0.25700  Biso   1.000  H
  H237     1.0000 0.67930  0.62940  0.68800  Biso   1.000  H
  H238     1.0000 0.67930  0.37060  0.18800  Biso   1.000  H
  H239     1.0000 0.70220  0.52780  0.73000  Biso   1.000  H
  H240     1.0000 0.70220  0.47220  0.23000  Biso   1.000  H
  C179     1.0000 0.71720  0.81110  0.75030  Biso   1.000  C
  C180     1.0000 0.71720  0.18890  0.25030  Biso   1.000  C
  H241     1.0000 0.68420  0.81750  0.77640  Biso   1.000  H
  H242     1.0000 0.68420  0.18250  0.27640  Biso   1.000  H
  H243     1.0000 0.74610  0.86320  0.76500  Biso   1.000  H
  H244     1.0000 0.74610  0.13680  0.26500  Biso   1.000  H
  H245     1.0000 0.70720  0.83110  0.70810  Biso   1.000  H
  H246     1.0000 0.70720  0.16890  0.20810  Biso   1.000  H
  C181     1.0000 0.73100  0.57420  0.85320  Biso   1.000  C
  C182     1.0000 0.73100  0.42580  0.35320  Biso   1.000  C
  H247     1.0000 0.70250  0.53050  0.83440  Biso   1.000  H
  H248     1.0000 0.70250  0.46950  0.33440  Biso   1.000  H
  C183     1.0000 0.74630  0.54710  0.92090  Biso   1.000  C
  C184     1.0000 0.74630  0.45290  0.42090  Biso   1.000  C
  O39      1.0000 0.71680  0.46620  0.94560  Biso   1.000  O
  O40      1.0000 0.71680  0.53380  0.44560  Biso   1.000  O
  C185     1.0000 0.78960  0.60170  0.95250  Biso   1.000  C
  C186     1.0000 0.78960  0.39830  0.45250  Biso   1.000  C
  C187     1.0000 0.80280  0.57070  0.02040  Biso   1.000  C
  C188     1.0000 0.80280  0.42930  0.52040  Biso   1.000  C
  C189     1.0000 0.84610  0.64780  0.05360  Biso   1.000  C
  C190     1.0000 0.84610  0.35220  0.55360  Biso   1.000  C
  H249     1.0000 0.85020  0.62250  0.09610  Biso   1.000  H
  H250     1.0000 0.85020  0.37750  0.59610  Biso   1.000  H
  H251     1.0000 0.88200  0.64230  0.03270  Biso   1.000  H
  H252     1.0000 0.88200  0.35770  0.53270  Biso   1.000  H
  H253     1.0000 0.83320  0.72720  0.05290  Biso   1.000  H
  H254     1.0000 0.83320  0.27280  0.55290  Biso   1.000  H
  C191     1.0000 0.82420  0.44490  0.02380  Biso   1.000  C
  C192     1.0000 0.82420  0.55510  0.52380  Biso   1.000  C
  H255     1.0000 0.83000  0.42340  0.06660  Biso   1.000  H
  H256     1.0000 0.83000  0.57660  0.56660  Biso   1.000  H
  H257     1.0000 0.79660  0.39390  0.00530  Biso   1.000  H
  H258     1.0000 0.79660  0.60610  0.50530  Biso   1.000  H
  H259     1.0000 0.85940  0.43850  0.00150  Biso   1.000  H
  H260     1.0000 0.85940  0.56150  0.50150  Biso   1.000  H
  C193     1.0000 0.74710  0.57820  0.05980  Biso   1.000  C
  C194     1.0000 0.74710  0.42180  0.55980  Biso   1.000  C
  H261     1.0000 0.75490  0.55570  0.10210  Biso   1.000  H
  H262     1.0000 0.75490  0.44430  0.60210  Biso   1.000  H
  H263     1.0000 0.73300  0.65670  0.05910  Biso   1.000  H
  H264     1.0000 0.73300  0.34330  0.55910  Biso   1.000  H
  H265     1.0000 0.71910  0.52680  0.04240  Biso   1.000  H
  H266     1.0000 0.71910  0.47320  0.54240  Biso   1.000  H
  C195     1.0000 0.82060  0.68820  0.91930  Biso   1.000  C
  C196     1.0000 0.82060  0.31180  0.41930  Biso   1.000  C
  O41      1.0000 0.86320  0.74610  0.93700  Biso   1.000  O
  O42      1.0000 0.86320  0.25390  0.43700  Biso   1.000  O
  O43      1.0000 0.44140  0.76990  0.65720  Biso   1.000  O
  O44      1.0000 0.44140  0.23010  0.15720  Biso   1.000  O
  C197     1.0000 0.47880  0.72950  0.62320  Biso   1.000  C
  C198     1.0000 0.47880  0.27050  0.12320  Biso   1.000  C
  C199     1.0000 0.51490  0.79780  0.58110  Biso   1.000  C
  C200     1.0000 0.51490  0.20220  0.08110  Biso   1.000  C
  C201     1.0000 0.50700  0.93240  0.57710  Biso   1.000  C
  C202     1.0000 0.50700  0.06760  0.07710  Biso   1.000  C
  C203     1.0000 0.54440  0.98800  0.52870  Biso   1.000  C
  C204     1.0000 0.54440  0.01200  0.02870  Biso   1.000  C
  H267     1.0000 0.53990  0.07100  0.53020  Biso   1.000  H
  H268     1.0000 0.53990  0.92900  0.03020  Biso   1.000  H
  H269     1.0000 0.53400  0.96000  0.48800  Biso   1.000  H
  H270     1.0000 0.53400  0.04000  0.98800  Biso   1.000  H
  H271     1.0000 0.58340  0.96840  0.53700  Biso   1.000  H
  H272     1.0000 0.58340  0.03160  0.03700  Biso   1.000  H
  C205     1.0000 0.52170  0.98550  0.64200  Biso   1.000  C
  C206     1.0000 0.52170  0.01450  0.14200  Biso   1.000  C
  H273     1.0000 0.51740  0.06860  0.64040  Biso   1.000  H
  H274     1.0000 0.51740  0.93140  0.14040  Biso   1.000  H
  H275     1.0000 0.56030  0.96660  0.65270  Biso   1.000  H
  H276     1.0000 0.56030  0.03340  0.15270  Biso   1.000  H
  H277     1.0000 0.49660  0.95410  0.67300  Biso   1.000  H
  H278     1.0000 0.49660  0.04590  0.17300  Biso   1.000  H
  C207     1.0000 0.44600  0.96410  0.56130  Biso   1.000  C
  C208     1.0000 0.44600  0.03590  0.06130  Biso   1.000  C
  H279     1.0000 0.44190  0.04730  0.56140  Biso   1.000  H
  H280     1.0000 0.44190  0.95270  0.06140  Biso   1.000  H
  H281     1.0000 0.42100  0.93070  0.59180  Biso   1.000  H
  H282     1.0000 0.42100  0.06930  0.09180  Biso   1.000  H
  H283     1.0000 0.43660  0.93440  0.52060  Biso   1.000  H
  H284     1.0000 0.43660  0.06560  0.02060  Biso   1.000  H
  C209     1.0000 0.55290  0.74130  0.54940  Biso   1.000  C
  C210     1.0000 0.55290  0.25870  0.04940  Biso   1.000  C
  H285     1.0000 0.57470  0.78270  0.52080  Biso   1.000  H
  H286     1.0000 0.57470  0.21730  0.02080  Biso   1.000  H
  C211     1.0000 0.56360  0.61460  0.55590  Biso   1.000  C
  C212     1.0000 0.56360  0.38540  0.05590  Biso   1.000  C
  O45      1.0000 0.60310  0.57410  0.52380  Biso   1.000  O
  O46      1.0000 0.60310  0.42590  0.02380  Biso   1.000  O
  C213     1.0000 0.52700  0.54430  0.59780  Biso   1.000  C
  C214     1.0000 0.52700  0.45570  0.09780  Biso   1.000  C
  C215     1.0000 0.54140  0.41130  0.60300  Biso   1.000  C
  C216     1.0000 0.54140  0.58870  0.10300  Biso   1.000  C
  C217     1.0000 0.49530  0.33900  0.63240  Biso   1.000  C
  C218     1.0000 0.49530  0.66100  0.13240  Biso   1.000  C
  H287     1.0000 0.49130  0.36020  0.67550  Biso   1.000  H
  H288     1.0000 0.49130  0.63980  0.17550  Biso   1.000  H
  H289     1.0000 0.50510  0.25800  0.62940  Biso   1.000  H
  H290     1.0000 0.50510  0.74200  0.12940  Biso   1.000  H
  H291     1.0000 0.46010  0.35270  0.61090  Biso   1.000  H
  H292     1.0000 0.46010  0.64730  0.11090  Biso   1.000  H
  C219     1.0000 0.58370  0.39240  0.63850  Biso   1.000  C
  C220     1.0000 0.58370  0.60760  0.13850  Biso   1.000  C
  H293     1.0000 0.61430  0.44360  0.62730  Biso   1.000  H
  H294     1.0000 0.61430  0.55640  0.12730  Biso   1.000  H
  H295     1.0000 0.59570  0.31300  0.63390  Biso   1.000  H
  H296     1.0000 0.59570  0.68700  0.13390  Biso   1.000  H
  H297     1.0000 0.57290  0.40620  0.68110  Biso   1.000  H
  H298     1.0000 0.57290  0.59380  0.18110  Biso   1.000  H
  C221     1.0000 0.56040  0.35870  0.55650  Biso   1.000  C
  C222     1.0000 0.56040  0.64130  0.05650  Biso   1.000  C
  H299     1.0000 0.58870  0.40580  0.53650  Biso   1.000  H
  H300     1.0000 0.58870  0.59420  0.03650  Biso   1.000  H
  H301     1.0000 0.53000  0.34360  0.52770  Biso   1.000  H
  H302     1.0000 0.53000  0.65640  0.02770  Biso   1.000  H
  H303     1.0000 0.57700  0.28640  0.56960  Biso   1.000  H
  H304     1.0000 0.57700  0.71360  0.06960  Biso   1.000  H
  C223     1.0000 0.48410  0.59460  0.62660  Biso   1.000  C
  C224     1.0000 0.48410  0.40540  0.12660  Biso   1.000  C
  O47      1.0000 0.44510  0.54970  0.65830  Biso   1.000  O
  O48      1.0000 0.44510  0.45030  0.15830  Biso   1.000  O
