data_image0
_cell_length_a       10.5275
_cell_length_b       20.2695
_cell_length_c       27.2346
_cell_angle_alpha    90
_cell_angle_beta     90
_cell_angle_gamma    90

_symmetry_space_group_name_H-M    "P 1"
_symmetry_int_tables_number       1

loop_
  _symmetry_equiv_pos_as_xyz
  'x, y, z'

loop_
  _atom_site_label
  _atom_site_occupancy
  _atom_site_fract_x
  _atom_site_fract_y
  _atom_site_fract_z
  _atom_site_thermal_displace_type
  _atom_site_B_iso_or_equiv
  _atom_site_type_symbol
  Cu1      1.0000 0.00000  0.75000  0.63992  Biso   1.000  Cu
  Cu2      1.0000 0.50000  0.25000  0.13992  Biso   1.000  Cu
  Cu3      1.0000 0.50000  0.75000  0.86008  Biso   1.000  Cu
  Cu4      1.0000 0.00000  0.75000  0.13992  Biso   1.000  Cu
  Cu5      1.0000 0.50000  0.25000  0.63992  Biso   1.000  Cu
  Cu6      1.0000 0.00000  0.25000  0.36008  Biso   1.000  Cu
  Cu7      1.0000 0.00000  0.25000  0.86008  Biso   1.000  Cu
  Cu8      1.0000 0.50000  0.75000  0.36008  Biso   1.000  Cu
  S1       1.0000 0.44540  0.97247  0.67982  Biso   1.000  S
  S2       1.0000 0.94540  0.47247  0.17982  Biso   1.000  S
  S3       1.0000 0.94540  0.97247  0.82018  Biso   1.000  S
  S4       1.0000 0.44540  0.52753  0.17982  Biso   1.000  S
  S5       1.0000 0.05460  0.47247  0.67982  Biso   1.000  S
  S6       1.0000 0.44540  0.47247  0.32018  Biso   1.000  S
  S7       1.0000 0.94540  0.02753  0.67982  Biso   1.000  S
  S8       1.0000 0.55460  0.97247  0.17982  Biso   1.000  S
  S9       1.0000 0.55460  0.02753  0.32018  Biso   1.000  S
  S10      1.0000 0.05460  0.52753  0.82018  Biso   1.000  S
  S11      1.0000 0.05460  0.02753  0.17982  Biso   1.000  S
  S12      1.0000 0.55460  0.47247  0.82018  Biso   1.000  S
  S13      1.0000 0.94540  0.52753  0.32018  Biso   1.000  S
  S14      1.0000 0.55460  0.52753  0.67982  Biso   1.000  S
  S15      1.0000 0.05460  0.97247  0.32018  Biso   1.000  S
  S16      1.0000 0.44540  0.02753  0.82018  Biso   1.000  S
  S17      1.0000 0.55980  0.97908  0.62016  Biso   1.000  S
  S18      1.0000 0.05980  0.47908  0.12016  Biso   1.000  S
  S19      1.0000 0.05980  0.97908  0.87984  Biso   1.000  S
  S20      1.0000 0.55980  0.52092  0.12016  Biso   1.000  S
  S21      1.0000 0.94020  0.47908  0.62016  Biso   1.000  S
  S22      1.0000 0.55980  0.47908  0.37984  Biso   1.000  S
  S23      1.0000 0.05980  0.02092  0.62016  Biso   1.000  S
  S24      1.0000 0.44020  0.97908  0.12016  Biso   1.000  S
  S25      1.0000 0.44020  0.02092  0.37984  Biso   1.000  S
  S26      1.0000 0.94020  0.52092  0.87984  Biso   1.000  S
  S27      1.0000 0.94020  0.02092  0.12016  Biso   1.000  S
  S28      1.0000 0.44020  0.47908  0.87984  Biso   1.000  S
  S29      1.0000 0.05980  0.52092  0.37984  Biso   1.000  S
  S30      1.0000 0.44020  0.52092  0.62016  Biso   1.000  S
  S31      1.0000 0.94020  0.97908  0.37984  Biso   1.000  S
  S32      1.0000 0.55980  0.02092  0.87984  Biso   1.000  S
  O1       1.0000 0.00000  0.75000  0.55530  Biso   1.000  O
  O2       1.0000 0.50000  0.25000  0.05530  Biso   1.000  O
  O3       1.0000 0.50000  0.75000  0.94470  Biso   1.000  O
  O4       1.0000 0.00000  0.75000  0.05530  Biso   1.000  O
  O5       1.0000 0.50000  0.25000  0.55530  Biso   1.000  O
  O6       1.0000 0.00000  0.25000  0.44470  Biso   1.000  O
  O7       1.0000 0.00000  0.25000  0.94470  Biso   1.000  O
  O8       1.0000 0.50000  0.75000  0.44470  Biso   1.000  O
  O9       1.0000 0.12290  0.17310  0.51410  Biso   1.000  O
  O10      1.0000 0.62290  0.67310  0.01410  Biso   1.000  O
  O11      1.0000 0.62290  0.17310  0.98590  Biso   1.000  O
  O12      1.0000 0.12290  0.32690  0.01410  Biso   1.000  O
  O13      1.0000 0.37710  0.67310  0.51410  Biso   1.000  O
  O14      1.0000 0.12290  0.67310  0.48590  Biso   1.000  O
  O15      1.0000 0.62290  0.82690  0.51410  Biso   1.000  O
  O16      1.0000 0.87710  0.17310  0.01410  Biso   1.000  O
  O17      1.0000 0.87710  0.82690  0.48590  Biso   1.000  O
  O18      1.0000 0.37710  0.32690  0.98590  Biso   1.000  O
  O19      1.0000 0.37710  0.82690  0.01410  Biso   1.000  O
  O20      1.0000 0.87710  0.67310  0.98590  Biso   1.000  O
  O21      1.0000 0.62290  0.32690  0.48590  Biso   1.000  O
  O22      1.0000 0.87710  0.32690  0.51410  Biso   1.000  O
  O23      1.0000 0.37710  0.17310  0.48590  Biso   1.000  O
  O24      1.0000 0.12290  0.82690  0.98590  Biso   1.000  O
  O25      1.0000 0.95500  0.76670  0.73530  Biso   1.000  O
  O26      1.0000 0.45500  0.26670  0.23530  Biso   1.000  O
  O27      1.0000 0.45500  0.76670  0.76470  Biso   1.000  O
  O28      1.0000 0.95500  0.73330  0.23530  Biso   1.000  O
  O29      1.0000 0.54500  0.26670  0.73530  Biso   1.000  O
  O30      1.0000 0.95500  0.26670  0.26470  Biso   1.000  O
  O31      1.0000 0.45500  0.23330  0.73530  Biso   1.000  O
  O32      1.0000 0.04500  0.76670  0.23530  Biso   1.000  O
  O33      1.0000 0.04500  0.23330  0.26470  Biso   1.000  O
  O34      1.0000 0.54500  0.73330  0.76470  Biso   1.000  O
  O35      1.0000 0.54500  0.23330  0.23530  Biso   1.000  O
  O36      1.0000 0.04500  0.26670  0.76470  Biso   1.000  O
  O37      1.0000 0.45500  0.73330  0.26470  Biso   1.000  O
  O38      1.0000 0.04500  0.73330  0.73530  Biso   1.000  O
  O39      1.0000 0.54500  0.76670  0.26470  Biso   1.000  O
  O40      1.0000 0.95500  0.23330  0.76470  Biso   1.000  O
  O41      1.0000 0.50000  0.25000  0.41650  Biso   1.000  O
  O42      1.0000 0.00000  0.75000  0.91650  Biso   1.000  O
  O43      1.0000 0.00000  0.25000  0.08350  Biso   1.000  O
  O44      1.0000 0.50000  0.25000  0.91650  Biso   1.000  O
  O45      1.0000 0.00000  0.75000  0.41650  Biso   1.000  O
  O46      1.0000 0.50000  0.75000  0.58350  Biso   1.000  O
  O47      1.0000 0.50000  0.75000  0.08350  Biso   1.000  O
  O48      1.0000 0.00000  0.25000  0.58350  Biso   1.000  O
  O49      1.0000 0.92200  0.79720  0.76960  Biso   1.000  O
  O50      1.0000 0.42200  0.29720  0.26960  Biso   1.000  O
  O51      1.0000 0.42200  0.79720  0.73040  Biso   1.000  O
  O52      1.0000 0.92200  0.70280  0.26960  Biso   1.000  O
  O53      1.0000 0.57800  0.29720  0.76960  Biso   1.000  O
  O54      1.0000 0.92200  0.29720  0.23040  Biso   1.000  O
  O55      1.0000 0.42200  0.20280  0.76960  Biso   1.000  O
  O56      1.0000 0.07800  0.79720  0.26960  Biso   1.000  O
  O57      1.0000 0.07800  0.20280  0.23040  Biso   1.000  O
  O58      1.0000 0.57800  0.70280  0.73040  Biso   1.000  O
  O59      1.0000 0.57800  0.20280  0.26960  Biso   1.000  O
  O60      1.0000 0.07800  0.29720  0.73040  Biso   1.000  O
  O61      1.0000 0.42200  0.70280  0.23040  Biso   1.000  O
  O62      1.0000 0.07800  0.70280  0.76960  Biso   1.000  O
  O63      1.0000 0.57800  0.79720  0.23040  Biso   1.000  O
  O64      1.0000 0.92200  0.20280  0.73040  Biso   1.000  O
  O65      1.0000 0.96400  0.76860  0.81210  Biso   1.000  O
  O66      1.0000 0.46400  0.26860  0.31210  Biso   1.000  O
  O67      1.0000 0.46400  0.76860  0.68790  Biso   1.000  O
  O68      1.0000 0.96400  0.73140  0.31210  Biso   1.000  O
  O69      1.0000 0.53600  0.26860  0.81210  Biso   1.000  O
  O70      1.0000 0.96400  0.26860  0.18790  Biso   1.000  O
  O71      1.0000 0.46400  0.23140  0.81210  Biso   1.000  O
  O72      1.0000 0.03600  0.76860  0.31210  Biso   1.000  O
  O73      1.0000 0.03600  0.23140  0.18790  Biso   1.000  O
  O74      1.0000 0.53600  0.73140  0.68790  Biso   1.000  O
  O75      1.0000 0.53600  0.23140  0.31210  Biso   1.000  O
  O76      1.0000 0.03600  0.26860  0.68790  Biso   1.000  O
  O77      1.0000 0.46400  0.73140  0.18790  Biso   1.000  O
  O78      1.0000 0.03600  0.73140  0.81210  Biso   1.000  O
  O79      1.0000 0.53600  0.76860  0.18790  Biso   1.000  O
  O80      1.0000 0.96400  0.23140  0.68790  Biso   1.000  O
  O81      1.0000 0.98000  0.06400  0.49590  Biso   1.000  O
  O82      1.0000 0.48000  0.56400  0.99590  Biso   1.000  O
  O83      1.0000 0.48000  0.06400  0.00410  Biso   1.000  O
  O84      1.0000 0.98000  0.43600  0.99590  Biso   1.000  O
  O85      1.0000 0.52000  0.56400  0.49590  Biso   1.000  O
  O86      1.0000 0.98000  0.56400  0.50410  Biso   1.000  O
  O87      1.0000 0.48000  0.93600  0.49590  Biso   1.000  O
  O88      1.0000 0.02000  0.06400  0.99590  Biso   1.000  O
  O89      1.0000 0.02000  0.93600  0.50410  Biso   1.000  O
  O90      1.0000 0.52000  0.43600  0.00410  Biso   1.000  O
  O91      1.0000 0.52000  0.93600  0.99590  Biso   1.000  O
  O92      1.0000 0.02000  0.56400  0.00410  Biso   1.000  O
  O93      1.0000 0.48000  0.43600  0.50410  Biso   1.000  O
  O94      1.0000 0.02000  0.43600  0.49590  Biso   1.000  O
  O95      1.0000 0.52000  0.06400  0.50410  Biso   1.000  O
  O96      1.0000 0.98000  0.93600  0.00410  Biso   1.000  O
  O97      1.0000 0.83800  0.10800  0.49640  Biso   1.000  O
  O98      1.0000 0.33800  0.60800  0.99640  Biso   1.000  O
  O99      1.0000 0.33800  0.10800  0.00360  Biso   1.000  O
  O100     1.0000 0.83800  0.39200  0.99640  Biso   1.000  O
  O101     1.0000 0.66200  0.60800  0.49640  Biso   1.000  O
  O102     1.0000 0.83800  0.60800  0.50360  Biso   1.000  O
  O103     1.0000 0.33800  0.89200  0.49640  Biso   1.000  O
  O104     1.0000 0.16200  0.10800  0.99640  Biso   1.000  O
  O105     1.0000 0.16200  0.89200  0.50360  Biso   1.000  O
  O106     1.0000 0.66200  0.39200  0.00360  Biso   1.000  O
  O107     1.0000 0.66200  0.89200  0.99640  Biso   1.000  O
  O108     1.0000 0.16200  0.60800  0.00360  Biso   1.000  O
  O109     1.0000 0.33800  0.39200  0.50360  Biso   1.000  O
  O110     1.0000 0.16200  0.39200  0.49640  Biso   1.000  O
  O111     1.0000 0.66200  0.10800  0.50360  Biso   1.000  O
  O112     1.0000 0.83800  0.89200  0.00360  Biso   1.000  O
  O113     1.0000 0.81200  0.00690  0.49260  Biso   1.000  O
  O114     1.0000 0.31200  0.50690  0.99260  Biso   1.000  O
  O115     1.0000 0.31200  0.00690  0.00740  Biso   1.000  O
  O116     1.0000 0.81200  0.49310  0.99260  Biso   1.000  O
  O117     1.0000 0.68800  0.50690  0.49260  Biso   1.000  O
  O118     1.0000 0.81200  0.50690  0.50740  Biso   1.000  O
  O119     1.0000 0.31200  0.99310  0.49260  Biso   1.000  O
  O120     1.0000 0.18800  0.00690  0.99260  Biso   1.000  O
  O121     1.0000 0.18800  0.99310  0.50740  Biso   1.000  O
  O122     1.0000 0.68800  0.49310  0.00740  Biso   1.000  O
  O123     1.0000 0.68800  0.99310  0.99260  Biso   1.000  O
  O124     1.0000 0.18800  0.50690  0.00740  Biso   1.000  O
  O125     1.0000 0.31200  0.49310  0.50740  Biso   1.000  O
  O126     1.0000 0.18800  0.49310  0.49260  Biso   1.000  O
  O127     1.0000 0.68800  0.00690  0.50740  Biso   1.000  O
  O128     1.0000 0.81200  0.99310  0.00740  Biso   1.000  O
  N1       1.0000 0.13580  0.82240  0.64830  Biso   1.000  N
  N2       1.0000 0.63580  0.32240  0.14830  Biso   1.000  N
  N3       1.0000 0.63580  0.82240  0.85170  Biso   1.000  N
  N4       1.0000 0.13580  0.67760  0.14830  Biso   1.000  N
  N5       1.0000 0.36420  0.32240  0.64830  Biso   1.000  N
  N6       1.0000 0.13580  0.32240  0.35170  Biso   1.000  N
  N7       1.0000 0.63580  0.17760  0.64830  Biso   1.000  N
  N8       1.0000 0.86420  0.82240  0.14830  Biso   1.000  N
  N9       1.0000 0.86420  0.17760  0.35170  Biso   1.000  N
  N10      1.0000 0.36420  0.67760  0.85170  Biso   1.000  N
  N11      1.0000 0.36420  0.17760  0.14830  Biso   1.000  N
  N12      1.0000 0.86420  0.32240  0.85170  Biso   1.000  N
  N13      1.0000 0.63580  0.67760  0.35170  Biso   1.000  N
  N14      1.0000 0.86420  0.67760  0.64830  Biso   1.000  N
  N15      1.0000 0.36420  0.82240  0.35170  Biso   1.000  N
  N16      1.0000 0.13580  0.17760  0.85170  Biso   1.000  N
  N17      1.0000 0.86580  0.82200  0.63790  Biso   1.000  N
  N18      1.0000 0.36580  0.32200  0.13790  Biso   1.000  N
  N19      1.0000 0.36580  0.82200  0.86210  Biso   1.000  N
  N20      1.0000 0.86580  0.67800  0.13790  Biso   1.000  N
  N21      1.0000 0.63420  0.32200  0.63790  Biso   1.000  N
  N22      1.0000 0.86580  0.32200  0.36210  Biso   1.000  N
  N23      1.0000 0.36580  0.17800  0.63790  Biso   1.000  N
  N24      1.0000 0.13420  0.82200  0.13790  Biso   1.000  N
  N25      1.0000 0.13420  0.17800  0.36210  Biso   1.000  N
  N26      1.0000 0.63420  0.67800  0.86210  Biso   1.000  N
  N27      1.0000 0.63420  0.17800  0.13790  Biso   1.000  N
  N28      1.0000 0.13420  0.32200  0.86210  Biso   1.000  N
  N29      1.0000 0.36580  0.67800  0.36210  Biso   1.000  N
  N30      1.0000 0.13420  0.67800  0.63790  Biso   1.000  N
  N31      1.0000 0.63420  0.82200  0.36210  Biso   1.000  N
  N32      1.0000 0.86580  0.17800  0.86210  Biso   1.000  N
  N33      1.0000 0.00000  0.75000  0.77310  Biso   1.000  N
  N34      1.0000 0.50000  0.25000  0.27310  Biso   1.000  N
  N35      1.0000 0.50000  0.75000  0.72690  Biso   1.000  N
  N36      1.0000 0.00000  0.75000  0.27310  Biso   1.000  N
  N37      1.0000 0.50000  0.25000  0.77310  Biso   1.000  N
  N38      1.0000 0.00000  0.25000  0.22690  Biso   1.000  N
  N39      1.0000 0.00000  0.25000  0.72690  Biso   1.000  N
  N40      1.0000 0.50000  0.75000  0.22690  Biso   1.000  N
  N41      1.0000 0.88400  0.05720  0.49350  Biso   1.000  N
  N42      1.0000 0.38400  0.55720  0.99350  Biso   1.000  N
  N43      1.0000 0.38400  0.05720  0.00650  Biso   1.000  N
  N44      1.0000 0.88400  0.44280  0.99350  Biso   1.000  N
  N45      1.0000 0.61600  0.55720  0.49350  Biso   1.000  N
  N46      1.0000 0.88400  0.55720  0.50650  Biso   1.000  N
  N47      1.0000 0.38400  0.94280  0.49350  Biso   1.000  N
  N48      1.0000 0.11600  0.05720  0.99350  Biso   1.000  N
  N49      1.0000 0.11600  0.94280  0.50650  Biso   1.000  N
  N50      1.0000 0.61600  0.44280  0.00650  Biso   1.000  N
  N51      1.0000 0.61600  0.94280  0.99350  Biso   1.000  N
  N52      1.0000 0.11600  0.55720  0.00650  Biso   1.000  N
  N53      1.0000 0.38400  0.44280  0.50650  Biso   1.000  N
  N54      1.0000 0.11600  0.44280  0.49350  Biso   1.000  N
  N55      1.0000 0.61600  0.05720  0.50650  Biso   1.000  N
  N56      1.0000 0.88400  0.94280  0.00650  Biso   1.000  N
  C1       1.0000 0.13600  0.85940  0.68910  Biso   1.000  C
  C2       1.0000 0.63600  0.35940  0.18910  Biso   1.000  C
  C3       1.0000 0.63600  0.85940  0.81090  Biso   1.000  C
  C4       1.0000 0.13600  0.64060  0.18910  Biso   1.000  C
  C5       1.0000 0.36400  0.35940  0.68910  Biso   1.000  C
  C6       1.0000 0.13600  0.35940  0.31090  Biso   1.000  C
  C7       1.0000 0.63600  0.14060  0.68910  Biso   1.000  C
  C8       1.0000 0.86400  0.85940  0.18910  Biso   1.000  C
  C9       1.0000 0.86400  0.14060  0.31090  Biso   1.000  C
  C10      1.0000 0.36400  0.64060  0.81090  Biso   1.000  C
  C11      1.0000 0.36400  0.14060  0.18910  Biso   1.000  C
  C12      1.0000 0.86400  0.35940  0.81090  Biso   1.000  C
  C13      1.0000 0.63600  0.64060  0.31090  Biso   1.000  C
  C14      1.0000 0.86400  0.64060  0.68910  Biso   1.000  C
  C15      1.0000 0.36400  0.85940  0.31090  Biso   1.000  C
  C16      1.0000 0.13600  0.14060  0.81090  Biso   1.000  C
  H1       1.0000 0.07050  0.85490  0.71170  Biso   1.000  H
  H2       1.0000 0.57050  0.35490  0.21170  Biso   1.000  H
  H3       1.0000 0.57050  0.85490  0.78830  Biso   1.000  H
  H4       1.0000 0.07050  0.64510  0.21170  Biso   1.000  H
  H5       1.0000 0.42950  0.35490  0.71170  Biso   1.000  H
  H6       1.0000 0.07050  0.35490  0.28830  Biso   1.000  H
  H7       1.0000 0.57050  0.14510  0.71170  Biso   1.000  H
  H8       1.0000 0.92950  0.85490  0.21170  Biso   1.000  H
  H9       1.0000 0.92950  0.14510  0.28830  Biso   1.000  H
  H10      1.0000 0.42950  0.64510  0.78830  Biso   1.000  H
  H11      1.0000 0.42950  0.14510  0.21170  Biso   1.000  H
  H12      1.0000 0.92950  0.35490  0.78830  Biso   1.000  H
  H13      1.0000 0.57050  0.64510  0.28830  Biso   1.000  H
  H14      1.0000 0.92950  0.64510  0.71170  Biso   1.000  H
  H15      1.0000 0.42950  0.85490  0.28830  Biso   1.000  H
  H16      1.0000 0.07050  0.14510  0.78830  Biso   1.000  H
  H17      1.0000 0.23470  0.92810  0.72720  Biso   1.000  H
  H18      1.0000 0.73470  0.42810  0.22720  Biso   1.000  H
  H19      1.0000 0.73470  0.92810  0.77280  Biso   1.000  H
  H20      1.0000 0.23470  0.57190  0.22720  Biso   1.000  H
  H21      1.0000 0.26530  0.42810  0.72720  Biso   1.000  H
  H22      1.0000 0.23470  0.42810  0.27280  Biso   1.000  H
  H23      1.0000 0.73470  0.07190  0.72720  Biso   1.000  H
  H24      1.0000 0.76530  0.92810  0.22720  Biso   1.000  H
  H25      1.0000 0.76530  0.07190  0.27280  Biso   1.000  H
  H26      1.0000 0.26530  0.57190  0.77280  Biso   1.000  H
  H27      1.0000 0.26530  0.07190  0.22720  Biso   1.000  H
  H28      1.0000 0.76530  0.42810  0.77280  Biso   1.000  H
  H29      1.0000 0.73470  0.57190  0.27280  Biso   1.000  H
  H30      1.0000 0.76530  0.57190  0.72720  Biso   1.000  H
  H31      1.0000 0.26530  0.92810  0.27280  Biso   1.000  H
  H32      1.0000 0.23470  0.07190  0.77280  Biso   1.000  H
  H33      1.0000 0.38380  0.88610  0.59480  Biso   1.000  H
  H34      1.0000 0.88380  0.38610  0.09480  Biso   1.000  H
  H35      1.0000 0.88380  0.88610  0.90520  Biso   1.000  H
  H36      1.0000 0.38380  0.61390  0.09480  Biso   1.000  H
  H37      1.0000 0.11620  0.38610  0.59480  Biso   1.000  H
  H38      1.0000 0.38380  0.38610  0.40520  Biso   1.000  H
  H39      1.0000 0.88380  0.11390  0.59480  Biso   1.000  H
  H40      1.0000 0.61620  0.88610  0.09480  Biso   1.000  H
  H41      1.0000 0.61620  0.11390  0.40520  Biso   1.000  H
  H42      1.0000 0.11620  0.61390  0.90520  Biso   1.000  H
  H43      1.0000 0.11620  0.11390  0.09480  Biso   1.000  H
  H44      1.0000 0.61620  0.38610  0.90520  Biso   1.000  H
  H45      1.0000 0.88380  0.61390  0.40520  Biso   1.000  H
  H46      1.0000 0.61620  0.61390  0.59480  Biso   1.000  H
  H47      1.0000 0.11620  0.88610  0.40520  Biso   1.000  H
  H48      1.0000 0.38380  0.11390  0.90520  Biso   1.000  H
  H49      1.0000 0.22980  0.80770  0.58430  Biso   1.000  H
  H50      1.0000 0.72980  0.30770  0.08430  Biso   1.000  H
  H51      1.0000 0.72980  0.80770  0.91570  Biso   1.000  H
  H52      1.0000 0.22980  0.69230  0.08430  Biso   1.000  H
  H53      1.0000 0.27020  0.30770  0.58430  Biso   1.000  H
  H54      1.0000 0.22980  0.30770  0.41570  Biso   1.000  H
  H55      1.0000 0.72980  0.19230  0.58430  Biso   1.000  H
  H56      1.0000 0.77020  0.80770  0.08430  Biso   1.000  H
  H57      1.0000 0.77020  0.19230  0.41570  Biso   1.000  H
  H58      1.0000 0.27020  0.69230  0.91570  Biso   1.000  H
  H59      1.0000 0.27020  0.19230  0.08430  Biso   1.000  H
  H60      1.0000 0.77020  0.30770  0.91570  Biso   1.000  H
  H61      1.0000 0.72980  0.69230  0.41570  Biso   1.000  H
  H62      1.0000 0.77020  0.69230  0.58430  Biso   1.000  H
  H63      1.0000 0.27020  0.80770  0.41570  Biso   1.000  H
  H64      1.0000 0.22980  0.19230  0.91570  Biso   1.000  H
  H65      1.0000 0.94610  0.87380  0.58210  Biso   1.000  H
  H66      1.0000 0.44610  0.37380  0.08210  Biso   1.000  H
  H67      1.0000 0.44610  0.87380  0.91790  Biso   1.000  H
  H68      1.0000 0.94610  0.62620  0.08210  Biso   1.000  H
  H69      1.0000 0.55390  0.37380  0.58210  Biso   1.000  H
  H70      1.0000 0.94610  0.37380  0.41790  Biso   1.000  H
  H71      1.0000 0.44610  0.12620  0.58210  Biso   1.000  H
  H72      1.0000 0.05390  0.87380  0.08210  Biso   1.000  H
  H73      1.0000 0.05390  0.12620  0.41790  Biso   1.000  H
  H74      1.0000 0.55390  0.62620  0.91790  Biso   1.000  H
  H75      1.0000 0.55390  0.12620  0.08210  Biso   1.000  H
  H76      1.0000 0.05390  0.37380  0.91790  Biso   1.000  H
  H77      1.0000 0.44610  0.62620  0.41790  Biso   1.000  H
  H78      1.0000 0.05390  0.62620  0.58210  Biso   1.000  H
  H79      1.0000 0.55390  0.87380  0.41790  Biso   1.000  H
  H80      1.0000 0.94610  0.12620  0.91790  Biso   1.000  H
  H81      1.0000 0.78950  0.95170  0.57210  Biso   1.000  H
  H82      1.0000 0.28950  0.45170  0.07210  Biso   1.000  H
  H83      1.0000 0.28950  0.95170  0.92790  Biso   1.000  H
  H84      1.0000 0.78950  0.54830  0.07210  Biso   1.000  H
  H85      1.0000 0.71050  0.45170  0.57210  Biso   1.000  H
  H86      1.0000 0.78950  0.45170  0.42790  Biso   1.000  H
  H87      1.0000 0.28950  0.04830  0.57210  Biso   1.000  H
  H88      1.0000 0.21050  0.95170  0.07210  Biso   1.000  H
  H89      1.0000 0.21050  0.04830  0.42790  Biso   1.000  H
  H90      1.0000 0.71050  0.54830  0.92790  Biso   1.000  H
  H91      1.0000 0.71050  0.04830  0.07210  Biso   1.000  H
  H92      1.0000 0.21050  0.45170  0.92790  Biso   1.000  H
  H93      1.0000 0.28950  0.54830  0.42790  Biso   1.000  H
  H94      1.0000 0.21050  0.54830  0.57210  Biso   1.000  H
  H95      1.0000 0.71050  0.95170  0.42790  Biso   1.000  H
  H96      1.0000 0.78950  0.04830  0.92790  Biso   1.000  H
  H97      1.0000 0.60160  0.86680  0.68630  Biso   1.000  H
  H98      1.0000 0.10160  0.36680  0.18630  Biso   1.000  H
  H99      1.0000 0.10160  0.86680  0.81370  Biso   1.000  H
  H100     1.0000 0.60160  0.63320  0.18630  Biso   1.000  H
  H101     1.0000 0.89840  0.36680  0.68630  Biso   1.000  H
  H102     1.0000 0.60160  0.36680  0.31370  Biso   1.000  H
  H103     1.0000 0.10160  0.13320  0.68630  Biso   1.000  H
  H104     1.0000 0.39840  0.86680  0.18630  Biso   1.000  H
  H105     1.0000 0.39840  0.13320  0.31370  Biso   1.000  H
  H106     1.0000 0.89840  0.63320  0.81370  Biso   1.000  H
  H107     1.0000 0.89840  0.13320  0.18630  Biso   1.000  H
  H108     1.0000 0.39840  0.36680  0.81370  Biso   1.000  H
  H109     1.0000 0.10160  0.63320  0.31370  Biso   1.000  H
  H110     1.0000 0.39840  0.63320  0.68630  Biso   1.000  H
  H111     1.0000 0.89840  0.86680  0.31370  Biso   1.000  H
  H112     1.0000 0.60160  0.13320  0.81370  Biso   1.000  H
  H113     1.0000 0.75880  0.78950  0.68980  Biso   1.000  H
  H114     1.0000 0.25880  0.28950  0.18980  Biso   1.000  H
  H115     1.0000 0.25880  0.78950  0.81020  Biso   1.000  H
  H116     1.0000 0.75880  0.71050  0.18980  Biso   1.000  H
  H117     1.0000 0.74120  0.28950  0.68980  Biso   1.000  H
  H118     1.0000 0.75880  0.28950  0.31020  Biso   1.000  H
  H119     1.0000 0.25880  0.21050  0.68980  Biso   1.000  H
  H120     1.0000 0.24120  0.78950  0.18980  Biso   1.000  H
  H121     1.0000 0.24120  0.21050  0.31020  Biso   1.000  H
  H122     1.0000 0.74120  0.71050  0.81020  Biso   1.000  H
  H123     1.0000 0.74120  0.21050  0.18980  Biso   1.000  H
  H124     1.0000 0.24120  0.28950  0.81020  Biso   1.000  H
  H125     1.0000 0.25880  0.71050  0.31020  Biso   1.000  H
  H126     1.0000 0.24120  0.71050  0.68980  Biso   1.000  H
  H127     1.0000 0.74120  0.78950  0.31020  Biso   1.000  H
  H128     1.0000 0.75880  0.21050  0.81020  Biso   1.000  H
  C17      1.0000 0.23210  0.90390  0.69780  Biso   1.000  C
  C18      1.0000 0.73210  0.40390  0.19780  Biso   1.000  C
  C19      1.0000 0.73210  0.90390  0.80220  Biso   1.000  C
  C20      1.0000 0.23210  0.59610  0.19780  Biso   1.000  C
  C21      1.0000 0.26790  0.40390  0.69780  Biso   1.000  C
  C22      1.0000 0.23210  0.40390  0.30220  Biso   1.000  C
  C23      1.0000 0.73210  0.09610  0.69780  Biso   1.000  C
  C24      1.0000 0.76790  0.90390  0.19780  Biso   1.000  C
  C25      1.0000 0.76790  0.09610  0.30220  Biso   1.000  C
  C26      1.0000 0.26790  0.59610  0.80220  Biso   1.000  C
  C27      1.0000 0.26790  0.09610  0.19780  Biso   1.000  C
  C28      1.0000 0.76790  0.40390  0.80220  Biso   1.000  C
  C29      1.0000 0.73210  0.59610  0.30220  Biso   1.000  C
  C30      1.0000 0.76790  0.59610  0.69780  Biso   1.000  C
  C31      1.0000 0.26790  0.90390  0.30220  Biso   1.000  C
  C32      1.0000 0.23210  0.09610  0.80220  Biso   1.000  C
  C33      1.0000 0.32570  0.91360  0.66350  Biso   1.000  C
  C34      1.0000 0.82570  0.41360  0.16350  Biso   1.000  C
  C35      1.0000 0.82570  0.91360  0.83650  Biso   1.000  C
  C36      1.0000 0.32570  0.58640  0.16350  Biso   1.000  C
  C37      1.0000 0.17430  0.41360  0.66350  Biso   1.000  C
  C38      1.0000 0.32570  0.41360  0.33650  Biso   1.000  C
  C39      1.0000 0.82570  0.08640  0.66350  Biso   1.000  C
  C40      1.0000 0.67430  0.91360  0.16350  Biso   1.000  C
  C41      1.0000 0.67430  0.08640  0.33650  Biso   1.000  C
  C42      1.0000 0.17430  0.58640  0.83650  Biso   1.000  C
  C43      1.0000 0.17430  0.08640  0.16350  Biso   1.000  C
  C44      1.0000 0.67430  0.41360  0.83650  Biso   1.000  C
  C45      1.0000 0.82570  0.58640  0.33650  Biso   1.000  C
  C46      1.0000 0.67430  0.58640  0.66350  Biso   1.000  C
  C47      1.0000 0.17430  0.91360  0.33650  Biso   1.000  C
  C48      1.0000 0.32570  0.08640  0.83650  Biso   1.000  C
  C49      1.0000 0.32040  0.87880  0.62070  Biso   1.000  C
  C50      1.0000 0.82040  0.37880  0.12070  Biso   1.000  C
  C51      1.0000 0.82040  0.87880  0.87930  Biso   1.000  C
  C52      1.0000 0.32040  0.62120  0.12070  Biso   1.000  C
  C53      1.0000 0.17960  0.37880  0.62070  Biso   1.000  C
  C54      1.0000 0.32040  0.37880  0.37930  Biso   1.000  C
  C55      1.0000 0.82040  0.12120  0.62070  Biso   1.000  C
  C56      1.0000 0.67960  0.87880  0.12070  Biso   1.000  C
  C57      1.0000 0.67960  0.12120  0.37930  Biso   1.000  C
  C58      1.0000 0.17960  0.62120  0.87930  Biso   1.000  C
  C59      1.0000 0.17960  0.12120  0.12070  Biso   1.000  C
  C60      1.0000 0.67960  0.37880  0.87930  Biso   1.000  C
  C61      1.0000 0.82040  0.62120  0.37930  Biso   1.000  C
  C62      1.0000 0.67960  0.62120  0.62070  Biso   1.000  C
  C63      1.0000 0.17960  0.87880  0.37930  Biso   1.000  C
  C64      1.0000 0.32040  0.12120  0.87930  Biso   1.000  C
  C65      1.0000 0.22830  0.83320  0.61450  Biso   1.000  C
  C66      1.0000 0.72830  0.33320  0.11450  Biso   1.000  C
  C67      1.0000 0.72830  0.83320  0.88550  Biso   1.000  C
  C68      1.0000 0.22830  0.66680  0.11450  Biso   1.000  C
  C69      1.0000 0.27170  0.33320  0.61450  Biso   1.000  C
  C70      1.0000 0.22830  0.33320  0.38550  Biso   1.000  C
  C71      1.0000 0.72830  0.16680  0.61450  Biso   1.000  C
  C72      1.0000 0.77170  0.83320  0.11450  Biso   1.000  C
  C73      1.0000 0.77170  0.16680  0.38550  Biso   1.000  C
  C74      1.0000 0.27170  0.66680  0.88550  Biso   1.000  C
  C75      1.0000 0.27170  0.16680  0.11450  Biso   1.000  C
  C76      1.0000 0.77170  0.33320  0.88550  Biso   1.000  C
  C77      1.0000 0.72830  0.66680  0.38550  Biso   1.000  C
  C78      1.0000 0.77170  0.66680  0.61450  Biso   1.000  C
  C79      1.0000 0.27170  0.83320  0.38550  Biso   1.000  C
  C80      1.0000 0.22830  0.16680  0.88550  Biso   1.000  C
  C81      1.0000 0.87190  0.87160  0.60400  Biso   1.000  C
  C82      1.0000 0.37190  0.37160  0.10400  Biso   1.000  C
  C83      1.0000 0.37190  0.87160  0.89600  Biso   1.000  C
  C84      1.0000 0.87190  0.62840  0.10400  Biso   1.000  C
  C85      1.0000 0.62810  0.37160  0.60400  Biso   1.000  C
  C86      1.0000 0.87190  0.37160  0.39600  Biso   1.000  C
  C87      1.0000 0.37190  0.12840  0.60400  Biso   1.000  C
  C88      1.0000 0.12810  0.87160  0.10400  Biso   1.000  C
  C89      1.0000 0.12810  0.12840  0.39600  Biso   1.000  C
  C90      1.0000 0.62810  0.62840  0.89600  Biso   1.000  C
  C91      1.0000 0.62810  0.12840  0.10400  Biso   1.000  C
  C92      1.0000 0.12810  0.37160  0.89600  Biso   1.000  C
  C93      1.0000 0.37190  0.62840  0.39600  Biso   1.000  C
  C94      1.0000 0.12810  0.62840  0.60400  Biso   1.000  C
  C95      1.0000 0.62810  0.87160  0.39600  Biso   1.000  C
  C96      1.0000 0.87190  0.12840  0.89600  Biso   1.000  C
  C97      1.0000 0.78070  0.91880  0.59820  Biso   1.000  C
  C98      1.0000 0.28070  0.41880  0.09820  Biso   1.000  C
  C99      1.0000 0.28070  0.91880  0.90180  Biso   1.000  C
  C100     1.0000 0.78070  0.58120  0.09820  Biso   1.000  C
  C101     1.0000 0.71930  0.41880  0.59820  Biso   1.000  C
  C102     1.0000 0.78070  0.41880  0.40180  Biso   1.000  C
  C103     1.0000 0.28070  0.08120  0.59820  Biso   1.000  C
  C104     1.0000 0.21930  0.91880  0.09820  Biso   1.000  C
  C105     1.0000 0.21930  0.08120  0.40180  Biso   1.000  C
  C106     1.0000 0.71930  0.58120  0.90180  Biso   1.000  C
  C107     1.0000 0.71930  0.08120  0.09820  Biso   1.000  C
  C108     1.0000 0.21930  0.41880  0.90180  Biso   1.000  C
  C109     1.0000 0.28070  0.58120  0.40180  Biso   1.000  C
  C110     1.0000 0.21930  0.58120  0.59820  Biso   1.000  C
  C111     1.0000 0.71930  0.91880  0.40180  Biso   1.000  C
  C112     1.0000 0.78070  0.08120  0.90180  Biso   1.000  C
  C113     1.0000 0.67670  0.91860  0.62930  Biso   1.000  C
  C114     1.0000 0.17670  0.41860  0.12930  Biso   1.000  C
  C115     1.0000 0.17670  0.91860  0.87070  Biso   1.000  C
  C116     1.0000 0.67670  0.58140  0.12930  Biso   1.000  C
  C117     1.0000 0.82330  0.41860  0.62930  Biso   1.000  C
  C118     1.0000 0.67670  0.41860  0.37070  Biso   1.000  C
  C119     1.0000 0.17670  0.08140  0.62930  Biso   1.000  C
  C120     1.0000 0.32330  0.91860  0.12930  Biso   1.000  C
  C121     1.0000 0.32330  0.08140  0.37070  Biso   1.000  C
  C122     1.0000 0.82330  0.58140  0.87070  Biso   1.000  C
  C123     1.0000 0.82330  0.08140  0.12930  Biso   1.000  C
  C124     1.0000 0.32330  0.41860  0.87070  Biso   1.000  C
  C125     1.0000 0.17670  0.58140  0.37070  Biso   1.000  C
  C126     1.0000 0.32330  0.58140  0.62930  Biso   1.000  C
  C127     1.0000 0.82330  0.91860  0.37070  Biso   1.000  C
  C128     1.0000 0.67670  0.08140  0.87070  Biso   1.000  C
  C129     1.0000 0.67000  0.86890  0.66470  Biso   1.000  C
  C130     1.0000 0.17000  0.36890  0.16470  Biso   1.000  C
  C131     1.0000 0.17000  0.86890  0.83530  Biso   1.000  C
  C132     1.0000 0.67000  0.63110  0.16470  Biso   1.000  C
  C133     1.0000 0.83000  0.36890  0.66470  Biso   1.000  C
  C134     1.0000 0.67000  0.36890  0.33530  Biso   1.000  C
  C135     1.0000 0.17000  0.13110  0.66470  Biso   1.000  C
  C136     1.0000 0.33000  0.86890  0.16470  Biso   1.000  C
  C137     1.0000 0.33000  0.13110  0.33530  Biso   1.000  C
  C138     1.0000 0.83000  0.63110  0.83530  Biso   1.000  C
  C139     1.0000 0.83000  0.13110  0.16470  Biso   1.000  C
  C140     1.0000 0.33000  0.36890  0.83530  Biso   1.000  C
  C141     1.0000 0.17000  0.63110  0.33530  Biso   1.000  C
  C142     1.0000 0.33000  0.63110  0.66470  Biso   1.000  C
  C143     1.0000 0.83000  0.86890  0.33530  Biso   1.000  C
  C144     1.0000 0.67000  0.13110  0.83530  Biso   1.000  C
  C145     1.0000 0.76500  0.82260  0.66710  Biso   1.000  C
  C146     1.0000 0.26500  0.32260  0.16710  Biso   1.000  C
  C147     1.0000 0.26500  0.82260  0.83290  Biso   1.000  C
  C148     1.0000 0.76500  0.67740  0.16710  Biso   1.000  C
  C149     1.0000 0.73500  0.32260  0.66710  Biso   1.000  C
  C150     1.0000 0.76500  0.32260  0.33290  Biso   1.000  C
  C151     1.0000 0.26500  0.17740  0.66710  Biso   1.000  C
  C152     1.0000 0.23500  0.82260  0.16710  Biso   1.000  C
  C153     1.0000 0.23500  0.17740  0.33290  Biso   1.000  C
  C154     1.0000 0.73500  0.67740  0.83290  Biso   1.000  C
  C155     1.0000 0.73500  0.17740  0.16710  Biso   1.000  C
  C156     1.0000 0.23500  0.32260  0.83290  Biso   1.000  C
  C157     1.0000 0.26500  0.67740  0.33290  Biso   1.000  C
  C158     1.0000 0.23500  0.67740  0.66710  Biso   1.000  C
  C159     1.0000 0.73500  0.82260  0.33290  Biso   1.000  C
  C160     1.0000 0.76500  0.17740  0.83290  Biso   1.000  C
