data_image0
_cell_length_a       10.5471
_cell_length_b       14.201
_cell_length_c       19.667
_cell_angle_alpha    90
_cell_angle_beta     90
_cell_angle_gamma    90

_symmetry_space_group_name_H-M    "P 1"
_symmetry_int_tables_number       1

loop_
  _symmetry_equiv_pos_as_xyz
  'x, y, z'

loop_
  _atom_site_label
  _atom_site_occupancy
  _atom_site_fract_x
  _atom_site_fract_y
  _atom_site_fract_z
  _atom_site_thermal_displace_type
  _atom_site_B_iso_or_equiv
  _atom_site_type_symbol
  Cu1      1.0000 0.77396  0.25000  0.25000  Biso   1.000  Cu
  Cu2      1.0000 0.27396  0.25000  0.75000  Biso   1.000  Cu
  Cu3      1.0000 0.22604  0.75000  0.75000  Biso   1.000  Cu
  Cu4      1.0000 0.72604  0.75000  0.25000  Biso   1.000  Cu
  S1       1.0000 0.79180  0.50020  0.18810  Biso   1.000  S
  S2       1.0000 0.29180  0.50020  0.81190  Biso   1.000  S
  S3       1.0000 0.29180  0.99980  0.68810  Biso   1.000  S
  S4       1.0000 0.20820  0.00020  0.68810  Biso   1.000  S
  S5       1.0000 0.20820  0.49980  0.81190  Biso   1.000  S
  S6       1.0000 0.70820  0.49980  0.18810  Biso   1.000  S
  S7       1.0000 0.70820  0.00020  0.31190  Biso   1.000  S
  S8       1.0000 0.79180  0.99980  0.31190  Biso   1.000  S
  S9       1.0000 0.21720  0.22130  0.01629  Biso   1.000  S
  S10      1.0000 0.71720  0.22130  0.98371  Biso   1.000  S
  S11      1.0000 0.71720  0.27870  0.51629  Biso   1.000  S
  S12      1.0000 0.78280  0.72130  0.51629  Biso   1.000  S
  S13      1.0000 0.78280  0.77870  0.98371  Biso   1.000  S
  S14      1.0000 0.28280  0.77870  0.01629  Biso   1.000  S
  S15      1.0000 0.28280  0.72130  0.48371  Biso   1.000  S
  S16      1.0000 0.21720  0.27870  0.48371  Biso   1.000  S
  S17      1.0000 0.33290  0.11030  0.03643  Biso   1.000  S
  S18      1.0000 0.83290  0.11030  0.96357  Biso   1.000  S
  S19      1.0000 0.83290  0.38970  0.53643  Biso   1.000  S
  S20      1.0000 0.66710  0.61030  0.53643  Biso   1.000  S
  S21      1.0000 0.66710  0.88970  0.96357  Biso   1.000  S
  S22      1.0000 0.16710  0.88970  0.03643  Biso   1.000  S
  S23      1.0000 0.16710  0.61030  0.46357  Biso   1.000  S
  S24      1.0000 0.33290  0.38970  0.46357  Biso   1.000  S
  O1       1.0000 0.77280  0.41750  0.21830  Biso   1.000  O
  O2       1.0000 0.27280  0.41750  0.78170  Biso   1.000  O
  O3       1.0000 0.27280  0.08250  0.71830  Biso   1.000  O
  O4       1.0000 0.22720  0.91750  0.71830  Biso   1.000  O
  O5       1.0000 0.22720  0.58250  0.78170  Biso   1.000  O
  O6       1.0000 0.72720  0.58250  0.21830  Biso   1.000  O
  O7       1.0000 0.72720  0.91750  0.28170  Biso   1.000  O
  O8       1.0000 0.77280  0.08250  0.28170  Biso   1.000  O
  O9       1.0000 0.75000  0.50000  0.11990  Biso   1.000  O
  O10      1.0000 0.25000  0.50000  0.88010  Biso   1.000  O
  O11      1.0000 0.25000  0.00000  0.61990  Biso   1.000  O
  O12      1.0000 0.75000  0.00000  0.38010  Biso   1.000  O
  O13      1.0000 0.93000  0.51260  0.20570  Biso   1.000  O
  O14      1.0000 0.43000  0.51260  0.79430  Biso   1.000  O
  O15      1.0000 0.43000  0.98740  0.70570  Biso   1.000  O
  O16      1.0000 0.07000  0.01260  0.70570  Biso   1.000  O
  O17      1.0000 0.07000  0.48740  0.79430  Biso   1.000  O
  O18      1.0000 0.57000  0.48740  0.20570  Biso   1.000  O
  O19      1.0000 0.57000  0.01260  0.29430  Biso   1.000  O
  O20      1.0000 0.93000  0.98740  0.29430  Biso   1.000  O
  O21      1.0000 0.75000  0.50000  0.90500  Biso   1.000  O
  O22      1.0000 0.25000  0.50000  0.09500  Biso   1.000  O
  O23      1.0000 0.25000  0.00000  0.40500  Biso   1.000  O
  O24      1.0000 0.75000  0.00000  0.59500  Biso   1.000  O
  O25      1.0000 0.68500  0.57000  0.73990  Biso   1.000  O
  O26      1.0000 0.18500  0.57000  0.26010  Biso   1.000  O
  O27      1.0000 0.18500  0.93000  0.23990  Biso   1.000  O
  O28      1.0000 0.31500  0.07000  0.23990  Biso   1.000  O
  O29      1.0000 0.31500  0.43000  0.26010  Biso   1.000  O
  O30      1.0000 0.81500  0.43000  0.73990  Biso   1.000  O
  O31      1.0000 0.81500  0.07000  0.76010  Biso   1.000  O
  O32      1.0000 0.68500  0.93000  0.76010  Biso   1.000  O
  O33      1.0000 0.89200  0.53600  0.00800  Biso   1.000  O
  O34      1.0000 0.39200  0.53600  0.99200  Biso   1.000  O
  O35      1.0000 0.39200  0.96400  0.50800  Biso   1.000  O
  O36      1.0000 0.10800  0.03600  0.50800  Biso   1.000  O
  O37      1.0000 0.10800  0.46400  0.99200  Biso   1.000  O
  O38      1.0000 0.60800  0.46400  0.00800  Biso   1.000  O
  O39      1.0000 0.60800  0.03600  0.49200  Biso   1.000  O
  O40      1.0000 0.89200  0.96400  0.49200  Biso   1.000  O
  N1       1.0000 0.90890  0.23010  0.17730  Biso   1.000  N
  N2       1.0000 0.40890  0.23010  0.82270  Biso   1.000  N
  N3       1.0000 0.40890  0.26990  0.67730  Biso   1.000  N
  N4       1.0000 0.09110  0.73010  0.67730  Biso   1.000  N
  N5       1.0000 0.09110  0.76990  0.82270  Biso   1.000  N
  N6       1.0000 0.59110  0.76990  0.17730  Biso   1.000  N
  N7       1.0000 0.59110  0.73010  0.32270  Biso   1.000  N
  N8       1.0000 0.90890  0.26990  0.32270  Biso   1.000  N
  N9       1.0000 0.63880  0.21130  0.18130  Biso   1.000  N
  N10      1.0000 0.13880  0.21130  0.81870  Biso   1.000  N
  N11      1.0000 0.13880  0.28870  0.68130  Biso   1.000  N
  N12      1.0000 0.36120  0.71130  0.68130  Biso   1.000  N
  N13      1.0000 0.36120  0.78870  0.81870  Biso   1.000  N
  N14      1.0000 0.86120  0.78870  0.18130  Biso   1.000  N
  N15      1.0000 0.86120  0.71130  0.31870  Biso   1.000  N
  N16      1.0000 0.63880  0.28870  0.31870  Biso   1.000  N
  C1       1.0000 0.00430  0.16840  0.18360  Biso   1.000  C
  C2       1.0000 0.50430  0.16840  0.81640  Biso   1.000  C
  C3       1.0000 0.50430  0.33160  0.68360  Biso   1.000  C
  C4       1.0000 0.99570  0.66840  0.68360  Biso   1.000  C
  C5       1.0000 0.99570  0.83160  0.81640  Biso   1.000  C
  C6       1.0000 0.49570  0.83160  0.18360  Biso   1.000  C
  C7       1.0000 0.49570  0.66840  0.31640  Biso   1.000  C
  C8       1.0000 0.00430  0.33160  0.31640  Biso   1.000  C
  H1       1.0000 0.00460  0.12910  0.22140  Biso   1.000  H
  H2       1.0000 0.50460  0.12910  0.77860  Biso   1.000  H
  H3       1.0000 0.50460  0.37090  0.72140  Biso   1.000  H
  H4       1.0000 0.99540  0.62910  0.72140  Biso   1.000  H
  H5       1.0000 0.99540  0.87090  0.77860  Biso   1.000  H
  H6       1.0000 0.49540  0.87090  0.22140  Biso   1.000  H
  H7       1.0000 0.49540  0.62910  0.27860  Biso   1.000  H
  H8       1.0000 0.00460  0.37090  0.27860  Biso   1.000  H
  H9       1.0000 0.16910  0.11480  0.14360  Biso   1.000  H
  H10      1.0000 0.66910  0.11480  0.85640  Biso   1.000  H
  H11      1.0000 0.66910  0.38520  0.64360  Biso   1.000  H
  H12      1.0000 0.83090  0.61480  0.64360  Biso   1.000  H
  H13      1.0000 0.83090  0.88520  0.85640  Biso   1.000  H
  H14      1.0000 0.33090  0.88520  0.14360  Biso   1.000  H
  H15      1.0000 0.33090  0.61480  0.35640  Biso   1.000  H
  H16      1.0000 0.16910  0.38520  0.35640  Biso   1.000  H
  H17      1.0000 0.38410  0.29080  0.10590  Biso   1.000  H
  H18      1.0000 0.88410  0.29080  0.89410  Biso   1.000  H
  H19      1.0000 0.88410  0.20920  0.60590  Biso   1.000  H
  H20      1.0000 0.61590  0.79080  0.60590  Biso   1.000  H
  H21      1.0000 0.61590  0.70920  0.89410  Biso   1.000  H
  H22      1.0000 0.11590  0.70920  0.10590  Biso   1.000  H
  H23      1.0000 0.11590  0.79080  0.39410  Biso   1.000  H
  H24      1.0000 0.38410  0.20920  0.39410  Biso   1.000  H
  H25      1.0000 0.54680  0.33490  0.17850  Biso   1.000  H
  H26      1.0000 0.04680  0.33490  0.82150  Biso   1.000  H
  H27      1.0000 0.04680  0.16510  0.67850  Biso   1.000  H
  H28      1.0000 0.45320  0.83490  0.67850  Biso   1.000  H
  H29      1.0000 0.45320  0.66510  0.82150  Biso   1.000  H
  H30      1.0000 0.95320  0.66510  0.17850  Biso   1.000  H
  H31      1.0000 0.95320  0.83490  0.32150  Biso   1.000  H
  H32      1.0000 0.54680  0.16510  0.32150  Biso   1.000  H
  H33      1.0000 0.70240  0.08050  0.16740  Biso   1.000  H
  H34      1.0000 0.20240  0.08050  0.83260  Biso   1.000  H
  H35      1.0000 0.20240  0.41950  0.66740  Biso   1.000  H
  H36      1.0000 0.29760  0.58050  0.66740  Biso   1.000  H
  H37      1.0000 0.29760  0.91950  0.83260  Biso   1.000  H
  H38      1.0000 0.79760  0.91950  0.16740  Biso   1.000  H
  H39      1.0000 0.79760  0.58050  0.33260  Biso   1.000  H
  H40      1.0000 0.70240  0.41950  0.33260  Biso   1.000  H
  H41      1.0000 0.54280  0.03020  0.09350  Biso   1.000  H
  H42      1.0000 0.04280  0.03020  0.90650  Biso   1.000  H
  H43      1.0000 0.04280  0.46980  0.59350  Biso   1.000  H
  H44      1.0000 0.45720  0.53020  0.59350  Biso   1.000  H
  H45      1.0000 0.45720  0.96980  0.90650  Biso   1.000  H
  H46      1.0000 0.95720  0.96980  0.09350  Biso   1.000  H
  H47      1.0000 0.95720  0.53020  0.40650  Biso   1.000  H
  H48      1.0000 0.54280  0.46980  0.40650  Biso   1.000  H
  H49      1.0000 0.99800  0.32320  0.03290  Biso   1.000  H
  H50      1.0000 0.49800  0.32320  0.96710  Biso   1.000  H
  H51      1.0000 0.49800  0.17680  0.53290  Biso   1.000  H
  H52      1.0000 0.00200  0.82320  0.53290  Biso   1.000  H
  H53      1.0000 0.00200  0.67680  0.96710  Biso   1.000  H
  H54      1.0000 0.50200  0.67680  0.03290  Biso   1.000  H
  H55      1.0000 0.50200  0.82320  0.46710  Biso   1.000  H
  H56      1.0000 0.99800  0.17680  0.46710  Biso   1.000  H
  H57      1.0000 0.84080  0.33430  0.11690  Biso   1.000  H
  H58      1.0000 0.34080  0.33430  0.88310  Biso   1.000  H
  H59      1.0000 0.34080  0.16570  0.61690  Biso   1.000  H
  H60      1.0000 0.15920  0.83430  0.61690  Biso   1.000  H
  H61      1.0000 0.15920  0.66570  0.88310  Biso   1.000  H
  H62      1.0000 0.65920  0.66570  0.11690  Biso   1.000  H
  H63      1.0000 0.65920  0.83430  0.38310  Biso   1.000  H
  H64      1.0000 0.84080  0.16570  0.38310  Biso   1.000  H
  C9       1.0000 0.10170  0.15960  0.13750  Biso   1.000  C
  C10      1.0000 0.60170  0.15960  0.86250  Biso   1.000  C
  C11      1.0000 0.60170  0.34040  0.63750  Biso   1.000  C
  C12      1.0000 0.89830  0.65960  0.63750  Biso   1.000  C
  C13      1.0000 0.89830  0.84040  0.86250  Biso   1.000  C
  C14      1.0000 0.39830  0.84040  0.13750  Biso   1.000  C
  C15      1.0000 0.39830  0.65960  0.36250  Biso   1.000  C
  C16      1.0000 0.10170  0.34040  0.36250  Biso   1.000  C
  C17      1.0000 0.09920  0.21790  0.08130  Biso   1.000  C
  C18      1.0000 0.59920  0.21790  0.91870  Biso   1.000  C
  C19      1.0000 0.59920  0.28210  0.58130  Biso   1.000  C
  C20      1.0000 0.90080  0.71790  0.58130  Biso   1.000  C
  C21      1.0000 0.90080  0.78210  0.91870  Biso   1.000  C
  C22      1.0000 0.40080  0.78210  0.08130  Biso   1.000  C
  C23      1.0000 0.40080  0.71790  0.41870  Biso   1.000  C
  C24      1.0000 0.09920  0.28210  0.41870  Biso   1.000  C
  C25      1.0000 0.44910  0.15510  0.09320  Biso   1.000  C
  C26      1.0000 0.94910  0.15510  0.90680  Biso   1.000  C
  C27      1.0000 0.94910  0.34490  0.59320  Biso   1.000  C
  C28      1.0000 0.55090  0.65510  0.59320  Biso   1.000  C
  C29      1.0000 0.55090  0.84490  0.90680  Biso   1.000  C
  C30      1.0000 0.05090  0.84490  0.09320  Biso   1.000  C
  C31      1.0000 0.05090  0.65510  0.40680  Biso   1.000  C
  C32      1.0000 0.44910  0.34490  0.40680  Biso   1.000  C
  C33      1.0000 0.45080  0.24430  0.11920  Biso   1.000  C
  C34      1.0000 0.95080  0.24430  0.88080  Biso   1.000  C
  C35      1.0000 0.95080  0.25570  0.61920  Biso   1.000  C
  C36      1.0000 0.54920  0.74430  0.61920  Biso   1.000  C
  C37      1.0000 0.54920  0.75570  0.88080  Biso   1.000  C
  C38      1.0000 0.04920  0.75570  0.11920  Biso   1.000  C
  C39      1.0000 0.04920  0.74430  0.38080  Biso   1.000  C
  C40      1.0000 0.45080  0.25570  0.38080  Biso   1.000  C
  C41      1.0000 0.54700  0.26910  0.16220  Biso   1.000  C
  C42      1.0000 0.04700  0.26910  0.83780  Biso   1.000  C
  C43      1.0000 0.04700  0.23090  0.66220  Biso   1.000  C
  C44      1.0000 0.45300  0.76910  0.66220  Biso   1.000  C
  C45      1.0000 0.45300  0.73090  0.83780  Biso   1.000  C
  C46      1.0000 0.95300  0.73090  0.16220  Biso   1.000  C
  C47      1.0000 0.95300  0.76910  0.33780  Biso   1.000  C
  C48      1.0000 0.54700  0.23090  0.33780  Biso   1.000  C
  C49      1.0000 0.63610  0.12420  0.15470  Biso   1.000  C
  C50      1.0000 0.13610  0.12420  0.84530  Biso   1.000  C
  C51      1.0000 0.13610  0.37580  0.65470  Biso   1.000  C
  C52      1.0000 0.36390  0.62420  0.65470  Biso   1.000  C
  C53      1.0000 0.36390  0.87580  0.84530  Biso   1.000  C
  C54      1.0000 0.86390  0.87580  0.15470  Biso   1.000  C
  C55      1.0000 0.86390  0.62420  0.34530  Biso   1.000  C
  C56      1.0000 0.63610  0.37580  0.34530  Biso   1.000  C
  C57      1.0000 0.54320  0.09360  0.11130  Biso   1.000  C
  C58      1.0000 0.04320  0.09360  0.88870  Biso   1.000  C
  C59      1.0000 0.04320  0.40640  0.61130  Biso   1.000  C
  C60      1.0000 0.45680  0.59360  0.61130  Biso   1.000  C
  C61      1.0000 0.45680  0.90640  0.88870  Biso   1.000  C
  C62      1.0000 0.95680  0.90640  0.11130  Biso   1.000  C
  C63      1.0000 0.95680  0.59360  0.38870  Biso   1.000  C
  C64      1.0000 0.54320  0.40640  0.38870  Biso   1.000  C
  C65      1.0000 0.00250  0.28200  0.07310  Biso   1.000  C
  C66      1.0000 0.50250  0.28200  0.92690  Biso   1.000  C
  C67      1.0000 0.50250  0.21800  0.57310  Biso   1.000  C
  C68      1.0000 0.99750  0.78200  0.57310  Biso   1.000  C
  C69      1.0000 0.99750  0.71800  0.92690  Biso   1.000  C
  C70      1.0000 0.49750  0.71800  0.07310  Biso   1.000  C
  C71      1.0000 0.49750  0.78200  0.42690  Biso   1.000  C
  C72      1.0000 0.00250  0.21800  0.42690  Biso   1.000  C
  C73      1.0000 0.90980  0.28520  0.12260  Biso   1.000  C
  C74      1.0000 0.40980  0.28520  0.87740  Biso   1.000  C
  C75      1.0000 0.40980  0.21480  0.62260  Biso   1.000  C
  C76      1.0000 0.09020  0.78520  0.62260  Biso   1.000  C
  C77      1.0000 0.09020  0.71480  0.87740  Biso   1.000  C
  C78      1.0000 0.59020  0.71480  0.12260  Biso   1.000  C
  C79      1.0000 0.59020  0.78520  0.37740  Biso   1.000  C
  C80      1.0000 0.90980  0.21480  0.37740  Biso   1.000  C
  C81      1.0000 0.99400  0.55100  0.05600  Biso   1.000  C
  C82      1.0000 0.49400  0.55100  0.94400  Biso   1.000  C
  C83      1.0000 0.49400  0.94900  0.55600  Biso   1.000  C
  C84      1.0000 0.00600  0.05100  0.55600  Biso   1.000  C
  C85      1.0000 0.00600  0.44900  0.94400  Biso   1.000  C
  C86      1.0000 0.50600  0.44900  0.05600  Biso   1.000  C
  C87      1.0000 0.50600  0.05100  0.44400  Biso   1.000  C
  C88      1.0000 0.99400  0.94900  0.44400  Biso   1.000  C
