data_image0
_cell_length_a       24.358
_cell_length_b       18.3295
_cell_length_c       16.8531
_cell_angle_alpha    90
_cell_angle_beta     129.83
_cell_angle_gamma    90

_symmetry_space_group_name_H-M    "P 1"
_symmetry_int_tables_number       1

loop_
  _symmetry_equiv_pos_as_xyz
  'x, y, z'

loop_
  _atom_site_label
  _atom_site_occupancy
  _atom_site_fract_x
  _atom_site_fract_y
  _atom_site_fract_z
  _atom_site_thermal_displace_type
  _atom_site_B_iso_or_equiv
  _atom_site_type_symbol
  Cu1      1.0000 0.27129  0.52142  0.89473  Biso   1.000  Cu
  Cu2      1.0000 0.72871  0.52142  0.60527  Biso   1.000  Cu
  Cu3      1.0000 0.77129  0.02142  0.89473  Biso   1.000  Cu
  Cu4      1.0000 0.22871  0.02142  0.60527  Biso   1.000  Cu
  Cu5      1.0000 0.72871  0.47858  0.10527  Biso   1.000  Cu
  Cu6      1.0000 0.27129  0.47858  0.39473  Biso   1.000  Cu
  Cu7      1.0000 0.22871  0.97858  0.10527  Biso   1.000  Cu
  Cu8      1.0000 0.77129  0.97858  0.39473  Biso   1.000  Cu
  O1       1.0000 0.90548  0.43300  0.91860  Biso   1.000  O
  O2       1.0000 0.09452  0.43300  0.58140  Biso   1.000  O
  O3       1.0000 0.40548  0.93300  0.91860  Biso   1.000  O
  O4       1.0000 0.59452  0.93300  0.58140  Biso   1.000  O
  O5       1.0000 0.09452  0.56700  0.08140  Biso   1.000  O
  O6       1.0000 0.90548  0.56700  0.41860  Biso   1.000  O
  O7       1.0000 0.59452  0.06700  0.08140  Biso   1.000  O
  O8       1.0000 0.40548  0.06700  0.41860  Biso   1.000  O
  H1       1.0000 0.88990  0.46020  0.86970  Biso   1.000  H
  H2       1.0000 0.11010  0.46020  0.63030  Biso   1.000  H
  H3       1.0000 0.38990  0.96020  0.86970  Biso   1.000  H
  H4       1.0000 0.61010  0.96020  0.63030  Biso   1.000  H
  H5       1.0000 0.11010  0.53980  0.13030  Biso   1.000  H
  H6       1.0000 0.88990  0.53980  0.36970  Biso   1.000  H
  H7       1.0000 0.61010  0.03980  0.13030  Biso   1.000  H
  H8       1.0000 0.38990  0.03980  0.36970  Biso   1.000  H
  O9       1.0000 0.50000  0.36940  0.25000  Biso   1.000  O
  O10      1.0000 0.00000  0.86940  0.25000  Biso   1.000  O
  O11      1.0000 0.50000  0.63060  0.75000  Biso   1.000  O
  O12      1.0000 0.00000  0.13060  0.75000  Biso   1.000  O
  H9       1.0000 0.54170  0.38790  0.28930  Biso   1.000  H
  H10      1.0000 0.45830  0.38790  0.21070  Biso   1.000  H
  H11      1.0000 0.04170  0.88790  0.28930  Biso   1.000  H
  H12      1.0000 0.95830  0.88790  0.21070  Biso   1.000  H
  H13      1.0000 0.45830  0.61210  0.71070  Biso   1.000  H
  H14      1.0000 0.54170  0.61210  0.78930  Biso   1.000  H
  H15      1.0000 0.95830  0.11210  0.71070  Biso   1.000  H
  H16      1.0000 0.04170  0.11210  0.78930  Biso   1.000  H
  O13      1.0000 0.73046  0.12596  0.20900  Biso   1.000  O
  O14      1.0000 0.26954  0.12596  0.29100  Biso   1.000  O
  O15      1.0000 0.23046  0.62596  0.20900  Biso   1.000  O
  O16      1.0000 0.76954  0.62596  0.29100  Biso   1.000  O
  O17      1.0000 0.26954  0.87404  0.79100  Biso   1.000  O
  O18      1.0000 0.73046  0.87404  0.70900  Biso   1.000  O
  O19      1.0000 0.76954  0.37404  0.79100  Biso   1.000  O
  O20      1.0000 0.23046  0.37404  0.70900  Biso   1.000  O
  H17      1.0000 0.68600  0.11900  0.17460  Biso   1.000  H
  H18      1.0000 0.31400  0.11900  0.32540  Biso   1.000  H
  H19      1.0000 0.18600  0.61900  0.17460  Biso   1.000  H
  H20      1.0000 0.81400  0.61900  0.32540  Biso   1.000  H
  H21      1.0000 0.31400  0.88100  0.82540  Biso   1.000  H
  H22      1.0000 0.68600  0.88100  0.67460  Biso   1.000  H
  H23      1.0000 0.81400  0.38100  0.82540  Biso   1.000  H
  H24      1.0000 0.18600  0.38100  0.67460  Biso   1.000  H
  H25      1.0000 0.75220  0.10990  0.26980  Biso   1.000  H
  H26      1.0000 0.24780  0.10990  0.23020  Biso   1.000  H
  H27      1.0000 0.25220  0.60990  0.26980  Biso   1.000  H
  H28      1.0000 0.74780  0.60990  0.23020  Biso   1.000  H
  H29      1.0000 0.24780  0.89010  0.73020  Biso   1.000  H
  H30      1.0000 0.75220  0.89010  0.76980  Biso   1.000  H
  H31      1.0000 0.74780  0.39010  0.73020  Biso   1.000  H
  H32      1.0000 0.25220  0.39010  0.76980  Biso   1.000  H
  O21      1.0000 0.33468  0.43051  0.06958  Biso   1.000  O
  O22      1.0000 0.66532  0.43051  0.43042  Biso   1.000  O
  O23      1.0000 0.83468  0.93051  0.06958  Biso   1.000  O
  O24      1.0000 0.16532  0.93051  0.43042  Biso   1.000  O
  O25      1.0000 0.66532  0.56949  0.93042  Biso   1.000  O
  O26      1.0000 0.33468  0.56949  0.56958  Biso   1.000  O
  O27      1.0000 0.16532  0.06949  0.93042  Biso   1.000  O
  O28      1.0000 0.83468  0.06949  0.56958  Biso   1.000  O
  O29      1.0000 0.19416  0.52769  0.90536  Biso   1.000  O
  O30      1.0000 0.80584  0.52769  0.59464  Biso   1.000  O
  O31      1.0000 0.69416  0.02769  0.90536  Biso   1.000  O
  O32      1.0000 0.30584  0.02769  0.59464  Biso   1.000  O
  O33      1.0000 0.80584  0.47231  0.09464  Biso   1.000  O
  O34      1.0000 0.19416  0.47231  0.40536  Biso   1.000  O
  O35      1.0000 0.30584  0.97231  0.09464  Biso   1.000  O
  O36      1.0000 0.69416  0.97231  0.40536  Biso   1.000  O
  O37      1.0000 0.14732  0.52385  0.74370  Biso   1.000  O
  O38      1.0000 0.85268  0.52385  0.75630  Biso   1.000  O
  O39      1.0000 0.64732  0.02385  0.74370  Biso   1.000  O
  O40      1.0000 0.35268  0.02385  0.75630  Biso   1.000  O
  O41      1.0000 0.85268  0.47615  0.25630  Biso   1.000  O
  O42      1.0000 0.14732  0.47615  0.24370  Biso   1.000  O
  O43      1.0000 0.35268  0.97615  0.25630  Biso   1.000  O
  O44      1.0000 0.64732  0.97615  0.24370  Biso   1.000  O
  O45      1.0000 0.26879  0.41596  0.90203  Biso   1.000  O
  O46      1.0000 0.73121  0.41596  0.59797  Biso   1.000  O
  O47      1.0000 0.76879  0.91596  0.90203  Biso   1.000  O
  O48      1.0000 0.23121  0.91596  0.59797  Biso   1.000  O
  O49      1.0000 0.73121  0.58404  0.09797  Biso   1.000  O
  O50      1.0000 0.26879  0.58404  0.40203  Biso   1.000  O
  O51      1.0000 0.23121  0.08404  0.09797  Biso   1.000  O
  O52      1.0000 0.76879  0.08404  0.40203  Biso   1.000  O
  N1       1.0000 0.28756  0.62647  0.91310  Biso   1.000  N
  N2       1.0000 0.71244  0.62647  0.58690  Biso   1.000  N
  N3       1.0000 0.78756  0.12647  0.91310  Biso   1.000  N
  N4       1.0000 0.21244  0.12647  0.58690  Biso   1.000  N
  N5       1.0000 0.71244  0.37353  0.08690  Biso   1.000  N
  N6       1.0000 0.28756  0.37353  0.41310  Biso   1.000  N
  N7       1.0000 0.21244  0.87353  0.08690  Biso   1.000  N
  N8       1.0000 0.78756  0.87353  0.41310  Biso   1.000  N
  N9       1.0000 0.28457  0.74274  0.87690  Biso   1.000  N
  N10      1.0000 0.71543  0.74274  0.62310  Biso   1.000  N
  N11      1.0000 0.78457  0.24274  0.87690  Biso   1.000  N
  N12      1.0000 0.21543  0.24274  0.62310  Biso   1.000  N
  N13      1.0000 0.71543  0.25726  0.12310  Biso   1.000  N
  N14      1.0000 0.28457  0.25726  0.37690  Biso   1.000  N
  N15      1.0000 0.21543  0.75726  0.12310  Biso   1.000  N
  N16      1.0000 0.78457  0.75726  0.37690  Biso   1.000  N
  H33      1.0000 0.27640  0.78150  0.84200  Biso   1.000  H
  H34      1.0000 0.72360  0.78150  0.65800  Biso   1.000  H
  H35      1.0000 0.77640  0.28150  0.84200  Biso   1.000  H
  H36      1.0000 0.22360  0.28150  0.65800  Biso   1.000  H
  H37      1.0000 0.72360  0.21850  0.15800  Biso   1.000  H
  H38      1.0000 0.27640  0.21850  0.34200  Biso   1.000  H
  H39      1.0000 0.22360  0.71850  0.15800  Biso   1.000  H
  H40      1.0000 0.77640  0.71850  0.34200  Biso   1.000  H
  N17      1.0000 0.32714  0.51529  0.84780  Biso   1.000  N
  N18      1.0000 0.67286  0.51529  0.65220  Biso   1.000  N
  N19      1.0000 0.82714  0.01529  0.84780  Biso   1.000  N
  N20      1.0000 0.17286  0.01529  0.65220  Biso   1.000  N
  N21      1.0000 0.67286  0.48471  0.15220  Biso   1.000  N
  N22      1.0000 0.32714  0.48471  0.34780  Biso   1.000  N
  N23      1.0000 0.17286  0.98471  0.15220  Biso   1.000  N
  N24      1.0000 0.82714  0.98471  0.34780  Biso   1.000  N
  N25      1.0000 0.35007  0.53200  0.74220  Biso   1.000  N
  N26      1.0000 0.64993  0.53200  0.75780  Biso   1.000  N
  N27      1.0000 0.85007  0.03200  0.74220  Biso   1.000  N
  N28      1.0000 0.14993  0.03200  0.75780  Biso   1.000  N
  N29      1.0000 0.64993  0.46800  0.25780  Biso   1.000  N
  N30      1.0000 0.35007  0.46800  0.24220  Biso   1.000  N
  N31      1.0000 0.14993  0.96800  0.25780  Biso   1.000  N
  N32      1.0000 0.85007  0.96800  0.24220  Biso   1.000  N
  H41      1.0000 0.34610  0.54820  0.69090  Biso   1.000  H
  H42      1.0000 0.65390  0.54820  0.80910  Biso   1.000  H
  H43      1.0000 0.84610  0.04820  0.69090  Biso   1.000  H
  H44      1.0000 0.15390  0.04820  0.80910  Biso   1.000  H
  H45      1.0000 0.65390  0.45180  0.30910  Biso   1.000  H
  H46      1.0000 0.34610  0.45180  0.19090  Biso   1.000  H
  H47      1.0000 0.15390  0.95180  0.30910  Biso   1.000  H
  H48      1.0000 0.84610  0.95180  0.19090  Biso   1.000  H
  C1       1.0000 0.38568  0.47284  0.88130  Biso   1.000  C
  C2       1.0000 0.61432  0.47284  0.61870  Biso   1.000  C
  C3       1.0000 0.88568  0.97284  0.88130  Biso   1.000  C
  C4       1.0000 0.11432  0.97284  0.61870  Biso   1.000  C
  C5       1.0000 0.61432  0.52716  0.11870  Biso   1.000  C
  C6       1.0000 0.38568  0.52716  0.38130  Biso   1.000  C
  C7       1.0000 0.11432  0.02716  0.11870  Biso   1.000  C
  C8       1.0000 0.88568  0.02716  0.38130  Biso   1.000  C
  C9       1.0000 0.42780  0.42660  0.96510  Biso   1.000  C
  C10      1.0000 0.57220  0.42660  0.53490  Biso   1.000  C
  C11      1.0000 0.92780  0.92660  0.96510  Biso   1.000  C
  C12      1.0000 0.07220  0.92660  0.53490  Biso   1.000  C
  C13      1.0000 0.57220  0.57340  0.03490  Biso   1.000  C
  C14      1.0000 0.42780  0.57340  0.46510  Biso   1.000  C
  C15      1.0000 0.07220  0.07340  0.03490  Biso   1.000  C
  C16      1.0000 0.92780  0.07340  0.46510  Biso   1.000  C
  H49      1.0000 0.41870  0.41900  0.01030  Biso   1.000  H
  H50      1.0000 0.58130  0.41900  0.48970  Biso   1.000  H
  H51      1.0000 0.91870  0.91900  0.01030  Biso   1.000  H
  H52      1.0000 0.08130  0.91900  0.48970  Biso   1.000  H
  H53      1.0000 0.58130  0.58100  0.98970  Biso   1.000  H
  H54      1.0000 0.41870  0.58100  0.51030  Biso   1.000  H
  H55      1.0000 0.08130  0.08100  0.98970  Biso   1.000  H
  H56      1.0000 0.91870  0.08100  0.51030  Biso   1.000  H
  C17      1.0000 0.48360  0.39230  0.97930  Biso   1.000  C
  C18      1.0000 0.51640  0.39230  0.52070  Biso   1.000  C
  C19      1.0000 0.98360  0.89230  0.97930  Biso   1.000  C
  C20      1.0000 0.01640  0.89230  0.52070  Biso   1.000  C
  C21      1.0000 0.51640  0.60770  0.02070  Biso   1.000  C
  C22      1.0000 0.48360  0.60770  0.47930  Biso   1.000  C
  C23      1.0000 0.01640  0.10770  0.02070  Biso   1.000  C
  C24      1.0000 0.98360  0.10770  0.47930  Biso   1.000  C
  H57      1.0000 0.51220  0.36030  0.03450  Biso   1.000  H
  H58      1.0000 0.48780  0.36030  0.46550  Biso   1.000  H
  H59      1.0000 0.01220  0.86030  0.03450  Biso   1.000  H
  H60      1.0000 0.98780  0.86030  0.46550  Biso   1.000  H
  H61      1.0000 0.48780  0.63970  0.96550  Biso   1.000  H
  H62      1.0000 0.51220  0.63970  0.53450  Biso   1.000  H
  H63      1.0000 0.98780  0.13970  0.96550  Biso   1.000  H
  H64      1.0000 0.01220  0.13970  0.53450  Biso   1.000  H
  C25      1.0000 0.49840  0.40430  0.91340  Biso   1.000  C
  C26      1.0000 0.50160  0.40430  0.58660  Biso   1.000  C
  C27      1.0000 0.99840  0.90430  0.91340  Biso   1.000  C
  C28      1.0000 0.00160  0.90430  0.58660  Biso   1.000  C
  C29      1.0000 0.50160  0.59570  0.08660  Biso   1.000  C
  C30      1.0000 0.49840  0.59570  0.41340  Biso   1.000  C
  C31      1.0000 0.00160  0.09570  0.08660  Biso   1.000  C
  C32      1.0000 0.99840  0.09570  0.41340  Biso   1.000  C
  H65      1.0000 0.53700  0.38050  0.92580  Biso   1.000  H
  H66      1.0000 0.46300  0.38050  0.57420  Biso   1.000  H
  H67      1.0000 0.03700  0.88050  0.92580  Biso   1.000  H
  H68      1.0000 0.96300  0.88050  0.57420  Biso   1.000  H
  H69      1.0000 0.46300  0.61950  0.07420  Biso   1.000  H
  H70      1.0000 0.53700  0.61950  0.42580  Biso   1.000  H
  H71      1.0000 0.96300  0.11950  0.07420  Biso   1.000  H
  H72      1.0000 0.03700  0.11950  0.42580  Biso   1.000  H
  C33      1.0000 0.45770  0.45000  0.83110  Biso   1.000  C
  C34      1.0000 0.54230  0.45000  0.66890  Biso   1.000  C
  C35      1.0000 0.95770  0.95000  0.83110  Biso   1.000  C
  C36      1.0000 0.04230  0.95000  0.66890  Biso   1.000  C
  C37      1.0000 0.54230  0.55000  0.16890  Biso   1.000  C
  C38      1.0000 0.45770  0.55000  0.33110  Biso   1.000  C
  C39      1.0000 0.04230  0.05000  0.16890  Biso   1.000  C
  C40      1.0000 0.95770  0.05000  0.33110  Biso   1.000  C
  H73      1.0000 0.46780  0.45820  0.78710  Biso   1.000  H
  H74      1.0000 0.53220  0.45820  0.71290  Biso   1.000  H
  H75      1.0000 0.96780  0.95820  0.78710  Biso   1.000  H
  H76      1.0000 0.03220  0.95820  0.71290  Biso   1.000  H
  H77      1.0000 0.53220  0.54180  0.21290  Biso   1.000  H
  H78      1.0000 0.46780  0.54180  0.28710  Biso   1.000  H
  H79      1.0000 0.03220  0.04180  0.21290  Biso   1.000  H
  H80      1.0000 0.96780  0.04180  0.28710  Biso   1.000  H
  C41      1.0000 0.40064  0.48387  0.81550  Biso   1.000  C
  C42      1.0000 0.59936  0.48387  0.68450  Biso   1.000  C
  C43      1.0000 0.90064  0.98387  0.81550  Biso   1.000  C
  C44      1.0000 0.09936  0.98387  0.68450  Biso   1.000  C
  C45      1.0000 0.59936  0.51613  0.18450  Biso   1.000  C
  C46      1.0000 0.40064  0.51613  0.31550  Biso   1.000  C
  C47      1.0000 0.09936  0.01613  0.18450  Biso   1.000  C
  C48      1.0000 0.90064  0.01613  0.31550  Biso   1.000  C
  C49      1.0000 0.30755  0.54963  0.76450  Biso   1.000  C
  C50      1.0000 0.69245  0.54963  0.73550  Biso   1.000  C
  C51      1.0000 0.80755  0.04963  0.76450  Biso   1.000  C
  C52      1.0000 0.19245  0.04963  0.73550  Biso   1.000  C
  C53      1.0000 0.69245  0.45037  0.23550  Biso   1.000  C
  C54      1.0000 0.30755  0.45037  0.26450  Biso   1.000  C
  C55      1.0000 0.19245  0.95037  0.23550  Biso   1.000  C
  C56      1.0000 0.80755  0.95037  0.26450  Biso   1.000  C
  C57      1.0000 0.24603  0.59806  0.69640  Biso   1.000  C
  C58      1.0000 0.75397  0.59806  0.80360  Biso   1.000  C
  C59      1.0000 0.74603  0.09806  0.69640  Biso   1.000  C
  C60      1.0000 0.25397  0.09806  0.80360  Biso   1.000  C
  C61      1.0000 0.75397  0.40194  0.30360  Biso   1.000  C
  C62      1.0000 0.24603  0.40194  0.19640  Biso   1.000  C
  C63      1.0000 0.25397  0.90194  0.30360  Biso   1.000  C
  C64      1.0000 0.74603  0.90194  0.19640  Biso   1.000  C
  C65      1.0000 0.20430  0.58640  0.59190  Biso   1.000  C
  C66      1.0000 0.79570  0.58640  0.90810  Biso   1.000  C
  C67      1.0000 0.70430  0.08640  0.59190  Biso   1.000  C
  C68      1.0000 0.29570  0.08640  0.90810  Biso   1.000  C
  C69      1.0000 0.79570  0.41360  0.40810  Biso   1.000  C
  C70      1.0000 0.20430  0.41360  0.09190  Biso   1.000  C
  C71      1.0000 0.29570  0.91360  0.40810  Biso   1.000  C
  C72      1.0000 0.70430  0.91360  0.09190  Biso   1.000  C
  H81      1.0000 0.21340  0.54650  0.56790  Biso   1.000  H
  H82      1.0000 0.78660  0.54650  0.93210  Biso   1.000  H
  H83      1.0000 0.71340  0.04650  0.56790  Biso   1.000  H
  H84      1.0000 0.28660  0.04650  0.93210  Biso   1.000  H
  H85      1.0000 0.78660  0.45350  0.43210  Biso   1.000  H
  H86      1.0000 0.21340  0.45350  0.06790  Biso   1.000  H
  H87      1.0000 0.28660  0.95350  0.43210  Biso   1.000  H
  H88      1.0000 0.71340  0.95350  0.06790  Biso   1.000  H
  C73      1.0000 0.14910  0.63300  0.52220  Biso   1.000  C
  C74      1.0000 0.85090  0.63300  0.97780  Biso   1.000  C
  C75      1.0000 0.64910  0.13300  0.52220  Biso   1.000  C
  C76      1.0000 0.35090  0.13300  0.97780  Biso   1.000  C
  C77      1.0000 0.85090  0.36700  0.47780  Biso   1.000  C
  C78      1.0000 0.14910  0.36700  0.02220  Biso   1.000  C
  C79      1.0000 0.35090  0.86700  0.47780  Biso   1.000  C
  C80      1.0000 0.64910  0.86700  0.02220  Biso   1.000  C
  H89      1.0000 0.12050  0.62360  0.45170  Biso   1.000  H
  H90      1.0000 0.87950  0.62360  0.04830  Biso   1.000  H
  H91      1.0000 0.62050  0.12360  0.45170  Biso   1.000  H
  H92      1.0000 0.37950  0.12360  0.04830  Biso   1.000  H
  H93      1.0000 0.87950  0.37640  0.54830  Biso   1.000  H
  H94      1.0000 0.12050  0.37640  0.95170  Biso   1.000  H
  H95      1.0000 0.37950  0.87640  0.54830  Biso   1.000  H
  H96      1.0000 0.62050  0.87640  0.95170  Biso   1.000  H
  C81      1.0000 0.13620  0.69270  0.55600  Biso   1.000  C
  C82      1.0000 0.86380  0.69270  0.94400  Biso   1.000  C
  C83      1.0000 0.63620  0.19270  0.55600  Biso   1.000  C
  C84      1.0000 0.36380  0.19270  0.94400  Biso   1.000  C
  C85      1.0000 0.86380  0.30730  0.44400  Biso   1.000  C
  C86      1.0000 0.13620  0.30730  0.05600  Biso   1.000  C
  C87      1.0000 0.36380  0.80730  0.44400  Biso   1.000  C
  C88      1.0000 0.63620  0.80730  0.05600  Biso   1.000  C
  H97      1.0000 0.10040  0.72540  0.50870  Biso   1.000  H
  H98      1.0000 0.89960  0.72540  0.99130  Biso   1.000  H
  H99      1.0000 0.60040  0.22540  0.50870  Biso   1.000  H
  H100     1.0000 0.39960  0.22540  0.99130  Biso   1.000  H
  H101     1.0000 0.89960  0.27460  0.49130  Biso   1.000  H
  H102     1.0000 0.10040  0.27460  0.00870  Biso   1.000  H
  H103     1.0000 0.39960  0.77460  0.49130  Biso   1.000  H
  H104     1.0000 0.60040  0.77460  0.00870  Biso   1.000  H
  C89      1.0000 0.17590  0.70460  0.65960  Biso   1.000  C
  C90      1.0000 0.82410  0.70460  0.84040  Biso   1.000  C
  C91      1.0000 0.67590  0.20460  0.65960  Biso   1.000  C
  C92      1.0000 0.32410  0.20460  0.84040  Biso   1.000  C
  C93      1.0000 0.82410  0.29540  0.34040  Biso   1.000  C
  C94      1.0000 0.17590  0.29540  0.15960  Biso   1.000  C
  C95      1.0000 0.32410  0.79540  0.34040  Biso   1.000  C
  C96      1.0000 0.67590  0.79540  0.15960  Biso   1.000  C
  H105     1.0000 0.16590  0.74480  0.68210  Biso   1.000  H
  H106     1.0000 0.83410  0.74480  0.81790  Biso   1.000  H
  H107     1.0000 0.66590  0.24480  0.68210  Biso   1.000  H
  H108     1.0000 0.33410  0.24480  0.81790  Biso   1.000  H
  H109     1.0000 0.83410  0.25520  0.31790  Biso   1.000  H
  H110     1.0000 0.16590  0.25520  0.18210  Biso   1.000  H
  H111     1.0000 0.33410  0.75520  0.31790  Biso   1.000  H
  H112     1.0000 0.66590  0.75520  0.18210  Biso   1.000  H
  C97      1.0000 0.23057  0.65777  0.73140  Biso   1.000  C
  C98      1.0000 0.76943  0.65777  0.76860  Biso   1.000  C
  C99      1.0000 0.73057  0.15777  0.73140  Biso   1.000  C
  C100     1.0000 0.26943  0.15777  0.76860  Biso   1.000  C
  C101     1.0000 0.76943  0.34223  0.26860  Biso   1.000  C
  C102     1.0000 0.23057  0.34223  0.23140  Biso   1.000  C
  C103     1.0000 0.26943  0.84223  0.26860  Biso   1.000  C
  C104     1.0000 0.73057  0.84223  0.23140  Biso   1.000  C
  C105     1.0000 0.26934  0.67400  0.84090  Biso   1.000  C
  C106     1.0000 0.73066  0.67400  0.65910  Biso   1.000  C
  C107     1.0000 0.76934  0.17400  0.84090  Biso   1.000  C
  C108     1.0000 0.23066  0.17400  0.65910  Biso   1.000  C
  C109     1.0000 0.73066  0.32600  0.15910  Biso   1.000  C
  C110     1.0000 0.26934  0.32600  0.34090  Biso   1.000  C
  C111     1.0000 0.23066  0.82600  0.15910  Biso   1.000  C
  C112     1.0000 0.76934  0.82600  0.34090  Biso   1.000  C
  C113     1.0000 0.31686  0.66721  0.00090  Biso   1.000  C
  C114     1.0000 0.68314  0.66721  0.49910  Biso   1.000  C
  C115     1.0000 0.81686  0.16721  0.00090  Biso   1.000  C
  C116     1.0000 0.18314  0.16721  0.49910  Biso   1.000  C
  C117     1.0000 0.68314  0.33279  0.99910  Biso   1.000  C
  C118     1.0000 0.31686  0.33279  0.50090  Biso   1.000  C
  C119     1.0000 0.18314  0.83279  0.99910  Biso   1.000  C
  C120     1.0000 0.81686  0.83279  0.50090  Biso   1.000  C
  C121     1.0000 0.34420  0.64530  0.09870  Biso   1.000  C
  C122     1.0000 0.65580  0.64530  0.40130  Biso   1.000  C
  C123     1.0000 0.84420  0.14530  0.09870  Biso   1.000  C
  C124     1.0000 0.15580  0.14530  0.40130  Biso   1.000  C
  C125     1.0000 0.65580  0.35470  0.90130  Biso   1.000  C
  C126     1.0000 0.34420  0.35470  0.59870  Biso   1.000  C
  C127     1.0000 0.15580  0.85470  0.90130  Biso   1.000  C
  C128     1.0000 0.84420  0.85470  0.59870  Biso   1.000  C
  H113     1.0000 0.34500  0.59640  0.11420  Biso   1.000  H
  H114     1.0000 0.65500  0.59640  0.38580  Biso   1.000  H
  H115     1.0000 0.84500  0.09640  0.11420  Biso   1.000  H
  H116     1.0000 0.15500  0.09640  0.38580  Biso   1.000  H
  H117     1.0000 0.65500  0.40360  0.88580  Biso   1.000  H
  H118     1.0000 0.34500  0.40360  0.61420  Biso   1.000  H
  H119     1.0000 0.15500  0.90360  0.88580  Biso   1.000  H
  H120     1.0000 0.84500  0.90360  0.61420  Biso   1.000  H
  C129     1.0000 0.36990  0.69830  0.17120  Biso   1.000  C
  C130     1.0000 0.63010  0.69830  0.32880  Biso   1.000  C
  C131     1.0000 0.86990  0.19830  0.17120  Biso   1.000  C
  C132     1.0000 0.13010  0.19830  0.32880  Biso   1.000  C
  C133     1.0000 0.63010  0.30170  0.82880  Biso   1.000  C
  C134     1.0000 0.36990  0.30170  0.67120  Biso   1.000  C
  C135     1.0000 0.13010  0.80170  0.82880  Biso   1.000  C
  C136     1.0000 0.86990  0.80170  0.67120  Biso   1.000  C
  H121     1.0000 0.38880  0.68530  0.23770  Biso   1.000  H
  H122     1.0000 0.61120  0.68530  0.26230  Biso   1.000  H
  H123     1.0000 0.88880  0.18530  0.23770  Biso   1.000  H
  H124     1.0000 0.11120  0.18530  0.26230  Biso   1.000  H
  H125     1.0000 0.61120  0.31470  0.76230  Biso   1.000  H
  H126     1.0000 0.38880  0.31470  0.73770  Biso   1.000  H
  H127     1.0000 0.11120  0.81470  0.76230  Biso   1.000  H
  H128     1.0000 0.88880  0.81470  0.73770  Biso   1.000  H
  C137     1.0000 0.36850  0.77180  0.14820  Biso   1.000  C
  C138     1.0000 0.63150  0.77180  0.35180  Biso   1.000  C
  C139     1.0000 0.86850  0.27180  0.14820  Biso   1.000  C
  C140     1.0000 0.13150  0.27180  0.35180  Biso   1.000  C
  C141     1.0000 0.63150  0.22820  0.85180  Biso   1.000  C
  C142     1.0000 0.36850  0.22820  0.64820  Biso   1.000  C
  C143     1.0000 0.13150  0.72820  0.85180  Biso   1.000  C
  C144     1.0000 0.86850  0.72820  0.64820  Biso   1.000  C
  H129     1.0000 0.38680  0.80650  0.20000  Biso   1.000  H
  H130     1.0000 0.61320  0.80650  0.30000  Biso   1.000  H
  H131     1.0000 0.88680  0.30650  0.20000  Biso   1.000  H
  H132     1.0000 0.11320  0.30650  0.30000  Biso   1.000  H
  H133     1.0000 0.61320  0.19350  0.80000  Biso   1.000  H
  H134     1.0000 0.38680  0.19350  0.70000  Biso   1.000  H
  H135     1.0000 0.11320  0.69350  0.80000  Biso   1.000  H
  H136     1.0000 0.88680  0.69350  0.70000  Biso   1.000  H
  C145     1.0000 0.34110  0.79400  0.05230  Biso   1.000  C
  C146     1.0000 0.65890  0.79400  0.44770  Biso   1.000  C
  C147     1.0000 0.84110  0.29400  0.05230  Biso   1.000  C
  C148     1.0000 0.15890  0.29400  0.44770  Biso   1.000  C
  C149     1.0000 0.65890  0.20600  0.94770  Biso   1.000  C
  C150     1.0000 0.34110  0.20600  0.55230  Biso   1.000  C
  C151     1.0000 0.15890  0.70600  0.94770  Biso   1.000  C
  C152     1.0000 0.84110  0.70600  0.55230  Biso   1.000  C
  H137     1.0000 0.33980  0.84300  0.03680  Biso   1.000  H
  H138     1.0000 0.66020  0.84300  0.46320  Biso   1.000  H
  H139     1.0000 0.83980  0.34300  0.03680  Biso   1.000  H
  H140     1.0000 0.16020  0.34300  0.46320  Biso   1.000  H
  H141     1.0000 0.66020  0.15700  0.96320  Biso   1.000  H
  H142     1.0000 0.33980  0.15700  0.53680  Biso   1.000  H
  H143     1.0000 0.16020  0.65700  0.96320  Biso   1.000  H
  H144     1.0000 0.83980  0.65700  0.53680  Biso   1.000  H
  C153     1.0000 0.31537  0.74005  0.97880  Biso   1.000  C
  C154     1.0000 0.68463  0.74005  0.52120  Biso   1.000  C
  C155     1.0000 0.81537  0.24005  0.97880  Biso   1.000  C
  C156     1.0000 0.18463  0.24005  0.52120  Biso   1.000  C
  C157     1.0000 0.68463  0.25995  0.02120  Biso   1.000  C
  C158     1.0000 0.31537  0.25995  0.47880  Biso   1.000  C
  C159     1.0000 0.18463  0.75995  0.02120  Biso   1.000  C
  C160     1.0000 0.81537  0.75995  0.47880  Biso   1.000  C
  C161     1.0000 0.21884  0.28212  0.90650  Biso   1.000  C
  C162     1.0000 0.78116  0.28212  0.59350  Biso   1.000  C
  C163     1.0000 0.71884  0.78212  0.90650  Biso   1.000  C
  C164     1.0000 0.28116  0.78212  0.59350  Biso   1.000  C
  C165     1.0000 0.78116  0.71788  0.09350  Biso   1.000  C
  C166     1.0000 0.21884  0.71788  0.40650  Biso   1.000  C
  C167     1.0000 0.28116  0.21788  0.09350  Biso   1.000  C
  C168     1.0000 0.71884  0.21788  0.40650  Biso   1.000  C
  H145     1.0000 0.19740  0.30370  0.84270  Biso   1.000  H
  H146     1.0000 0.80260  0.30370  0.65730  Biso   1.000  H
  H147     1.0000 0.69740  0.80370  0.84270  Biso   1.000  H
  H148     1.0000 0.30260  0.80370  0.65730  Biso   1.000  H
  H149     1.0000 0.80260  0.69630  0.15730  Biso   1.000  H
  H150     1.0000 0.19740  0.69630  0.34270  Biso   1.000  H
  H151     1.0000 0.30260  0.19630  0.15730  Biso   1.000  H
  H152     1.0000 0.69740  0.19630  0.34270  Biso   1.000  H
  C169     1.0000 0.27225  0.31826  0.99530  Biso   1.000  C
  C170     1.0000 0.72775  0.31826  0.50470  Biso   1.000  C
  C171     1.0000 0.77225  0.81826  0.99530  Biso   1.000  C
  C172     1.0000 0.22775  0.81826  0.50470  Biso   1.000  C
  C173     1.0000 0.72775  0.68174  0.00470  Biso   1.000  C
  C174     1.0000 0.27225  0.68174  0.49530  Biso   1.000  C
  C175     1.0000 0.22775  0.18174  0.00470  Biso   1.000  C
  C176     1.0000 0.77225  0.18174  0.49530  Biso   1.000  C
  C177     1.0000 0.30348  0.28585  0.08940  Biso   1.000  C
  C178     1.0000 0.69652  0.28585  0.41060  Biso   1.000  C
  C179     1.0000 0.80348  0.78585  0.08940  Biso   1.000  C
  C180     1.0000 0.19652  0.78585  0.41060  Biso   1.000  C
  C181     1.0000 0.69652  0.71415  0.91060  Biso   1.000  C
  C182     1.0000 0.30348  0.71415  0.58940  Biso   1.000  C
  C183     1.0000 0.19652  0.21415  0.91060  Biso   1.000  C
  C184     1.0000 0.80348  0.21415  0.58940  Biso   1.000  C
  H153     1.0000 0.33970  0.30990  0.15020  Biso   1.000  H
  H154     1.0000 0.66030  0.30990  0.34980  Biso   1.000  H
  H155     1.0000 0.83970  0.80990  0.15020  Biso   1.000  H
  H156     1.0000 0.16030  0.80990  0.34980  Biso   1.000  H
  H157     1.0000 0.66030  0.69010  0.84980  Biso   1.000  H
  H158     1.0000 0.33970  0.69010  0.65020  Biso   1.000  H
  H159     1.0000 0.16030  0.19010  0.84980  Biso   1.000  H
  H160     1.0000 0.83970  0.19010  0.65020  Biso   1.000  H
  C185     1.0000 0.29440  0.39363  0.99050  Biso   1.000  C
  C186     1.0000 0.70560  0.39363  0.50950  Biso   1.000  C
  C187     1.0000 0.79440  0.89363  0.99050  Biso   1.000  C
  C188     1.0000 0.20560  0.89363  0.50950  Biso   1.000  C
  C189     1.0000 0.70560  0.60637  0.00950  Biso   1.000  C
  C190     1.0000 0.29440  0.60637  0.49050  Biso   1.000  C
  C191     1.0000 0.20560  0.10637  0.00950  Biso   1.000  C
  C192     1.0000 0.79440  0.10637  0.49050  Biso   1.000  C
  C193     1.0000 0.00837  0.52770  0.67720  Biso   1.000  C
  C194     1.0000 0.99163  0.52770  0.82280  Biso   1.000  C
  C195     1.0000 0.50837  0.02770  0.67720  Biso   1.000  C
  C196     1.0000 0.49163  0.02770  0.82280  Biso   1.000  C
  C197     1.0000 0.99163  0.47230  0.32280  Biso   1.000  C
  C198     1.0000 0.00837  0.47230  0.17720  Biso   1.000  C
  C199     1.0000 0.49163  0.97230  0.32280  Biso   1.000  C
  C200     1.0000 0.50837  0.97230  0.17720  Biso   1.000  C
  H161     1.0000 0.01380  0.52790  0.62730  Biso   1.000  H
  H162     1.0000 0.98620  0.52790  0.87270  Biso   1.000  H
  H163     1.0000 0.51380  0.02790  0.62730  Biso   1.000  H
  H164     1.0000 0.48620  0.02790  0.87270  Biso   1.000  H
  H165     1.0000 0.98620  0.47210  0.37270  Biso   1.000  H
  H166     1.0000 0.01380  0.47210  0.12730  Biso   1.000  H
  H167     1.0000 0.48620  0.97210  0.37270  Biso   1.000  H
  H168     1.0000 0.51380  0.97210  0.12730  Biso   1.000  H
  C201     1.0000 0.05941  0.52809  0.85340  Biso   1.000  C
  C202     1.0000 0.94059  0.52809  0.64660  Biso   1.000  C
  C203     1.0000 0.55941  0.02809  0.85340  Biso   1.000  C
  C204     1.0000 0.44059  0.02809  0.64660  Biso   1.000  C
  C205     1.0000 0.94059  0.47191  0.14660  Biso   1.000  C
  C206     1.0000 0.05941  0.47191  0.35340  Biso   1.000  C
  C207     1.0000 0.44059  0.97191  0.14660  Biso   1.000  C
  C208     1.0000 0.55941  0.97191  0.35340  Biso   1.000  C
  H169     1.0000 0.09930  0.52900  0.92320  Biso   1.000  H
  H170     1.0000 0.90070  0.52900  0.57680  Biso   1.000  H
  H171     1.0000 0.59930  0.02900  0.92320  Biso   1.000  H
  H172     1.0000 0.40070  0.02900  0.57680  Biso   1.000  H
  H173     1.0000 0.90070  0.47100  0.07680  Biso   1.000  H
  H174     1.0000 0.09930  0.47100  0.42320  Biso   1.000  H
  H175     1.0000 0.40070  0.97100  0.07680  Biso   1.000  H
  H176     1.0000 0.59930  0.97100  0.42320  Biso   1.000  H
  C209     1.0000 0.06781  0.52710  0.77940  Biso   1.000  C
  C210     1.0000 0.93219  0.52710  0.72060  Biso   1.000  C
  C211     1.0000 0.56781  0.02710  0.77940  Biso   1.000  C
  C212     1.0000 0.43219  0.02710  0.72060  Biso   1.000  C
  C213     1.0000 0.93219  0.47290  0.22060  Biso   1.000  C
  C214     1.0000 0.06781  0.47290  0.27940  Biso   1.000  C
  C215     1.0000 0.43219  0.97290  0.22060  Biso   1.000  C
  C216     1.0000 0.56781  0.97290  0.27940  Biso   1.000  C
  C217     1.0000 0.14110  0.52614  0.81170  Biso   1.000  C
  C218     1.0000 0.85890  0.52614  0.68830  Biso   1.000  C
  C219     1.0000 0.64110  0.02614  0.81170  Biso   1.000  C
  C220     1.0000 0.35890  0.02614  0.68830  Biso   1.000  C
  C221     1.0000 0.85890  0.47386  0.18830  Biso   1.000  C
  C222     1.0000 0.14110  0.47386  0.31170  Biso   1.000  C
  C223     1.0000 0.35890  0.97386  0.18830  Biso   1.000  C
  C224     1.0000 0.64110  0.97386  0.31170  Biso   1.000  C
  C225     1.0000 0.95970  0.31930  0.98140  Biso   1.000  C
  C226     1.0000 0.04030  0.31930  0.51860  Biso   1.000  C
  C227     1.0000 0.45970  0.81930  0.98140  Biso   1.000  C
  C228     1.0000 0.54030  0.81930  0.51860  Biso   1.000  C
  C229     1.0000 0.04030  0.68070  0.01860  Biso   1.000  C
  C230     1.0000 0.95970  0.68070  0.48140  Biso   1.000  C
  C231     1.0000 0.54030  0.18070  0.01860  Biso   1.000  C
  C232     1.0000 0.45970  0.18070  0.48140  Biso   1.000  C
  H177     1.0000 0.99270  0.28560  0.98820  Biso   1.000  H
  H178     1.0000 0.00730  0.28560  0.51180  Biso   1.000  H
  H179     1.0000 0.49270  0.78560  0.98820  Biso   1.000  H
  H180     1.0000 0.50730  0.78560  0.51180  Biso   1.000  H
  H181     1.0000 0.00730  0.71440  0.01180  Biso   1.000  H
  H182     1.0000 0.99270  0.71440  0.48820  Biso   1.000  H
  H183     1.0000 0.50730  0.21440  0.01180  Biso   1.000  H
  H184     1.0000 0.49270  0.21440  0.48820  Biso   1.000  H
  H185     1.0000 0.91390  0.29630  0.94450  Biso   1.000  H
  H186     1.0000 0.08610  0.29630  0.55550  Biso   1.000  H
  H187     1.0000 0.41390  0.79630  0.94450  Biso   1.000  H
  H188     1.0000 0.58610  0.79630  0.55550  Biso   1.000  H
  H189     1.0000 0.08610  0.70370  0.05550  Biso   1.000  H
  H190     1.0000 0.91390  0.70370  0.44450  Biso   1.000  H
  H191     1.0000 0.58610  0.20370  0.05550  Biso   1.000  H
  H192     1.0000 0.41390  0.20370  0.44450  Biso   1.000  H
  H193     1.0000 0.97700  0.33350  0.04880  Biso   1.000  H
  H194     1.0000 0.02300  0.33350  0.45120  Biso   1.000  H
  H195     1.0000 0.47700  0.83350  0.04880  Biso   1.000  H
  H196     1.0000 0.52300  0.83350  0.45120  Biso   1.000  H
  H197     1.0000 0.02300  0.66650  0.95120  Biso   1.000  H
  H198     1.0000 0.97700  0.66650  0.54880  Biso   1.000  H
  H199     1.0000 0.52300  0.16650  0.95120  Biso   1.000  H
  H200     1.0000 0.47700  0.16650  0.54880  Biso   1.000  H
  C233     1.0000 0.95430  0.38300  0.92960  Biso   1.000  C
  C234     1.0000 0.04570  0.38300  0.57040  Biso   1.000  C
  C235     1.0000 0.45430  0.88300  0.92960  Biso   1.000  C
  C236     1.0000 0.54570  0.88300  0.57040  Biso   1.000  C
  C237     1.0000 0.04570  0.61700  0.07040  Biso   1.000  C
  C238     1.0000 0.95430  0.61700  0.42960  Biso   1.000  C
  C239     1.0000 0.54570  0.11700  0.07040  Biso   1.000  C
  C240     1.0000 0.45430  0.11700  0.42960  Biso   1.000  C
  H201     1.0000 0.00090  0.40580  0.96840  Biso   1.000  H
  H202     1.0000 0.99910  0.40580  0.53160  Biso   1.000  H
  H203     1.0000 0.50090  0.90580  0.96840  Biso   1.000  H
  H204     1.0000 0.49910  0.90580  0.53160  Biso   1.000  H
  H205     1.0000 0.99910  0.59420  0.03160  Biso   1.000  H
  H206     1.0000 0.00090  0.59420  0.46840  Biso   1.000  H
  H207     1.0000 0.49910  0.09420  0.03160  Biso   1.000  H
  H208     1.0000 0.50090  0.09420  0.46840  Biso   1.000  H
  H209     1.0000 0.93830  0.37010  0.86190  Biso   1.000  H
  H210     1.0000 0.06170  0.37010  0.63810  Biso   1.000  H
  H211     1.0000 0.43830  0.87010  0.86190  Biso   1.000  H
  H212     1.0000 0.56170  0.87010  0.63810  Biso   1.000  H
  H213     1.0000 0.06170  0.62990  0.13810  Biso   1.000  H
  H214     1.0000 0.93830  0.62990  0.36190  Biso   1.000  H
  H215     1.0000 0.56170  0.12990  0.13810  Biso   1.000  H
  H216     1.0000 0.43830  0.12990  0.36190  Biso   1.000  H
  C241     1.0000 0.50000  0.25830  0.25000  Biso   1.000  C
  C242     1.0000 0.00000  0.75830  0.25000  Biso   1.000  C
  C243     1.0000 0.50000  0.74170  0.75000  Biso   1.000  C
  C244     1.0000 0.00000  0.24170  0.75000  Biso   1.000  C
  H217     1.0000 0.50200  0.21750  0.21630  Biso   1.000  H
  H218     1.0000 0.49800  0.21750  0.28370  Biso   1.000  H
  H219     1.0000 0.00200  0.71750  0.21630  Biso   1.000  H
  H220     1.0000 0.99800  0.71750  0.28370  Biso   1.000  H
  H221     1.0000 0.49800  0.78250  0.78370  Biso   1.000  H
  H222     1.0000 0.50200  0.78250  0.71630  Biso   1.000  H
  H223     1.0000 0.99800  0.28250  0.78370  Biso   1.000  H
  H224     1.0000 0.00200  0.28250  0.71630  Biso   1.000  H
  H225     1.0000 0.53990  0.25650  0.32270  Biso   1.000  H
  H226     1.0000 0.46010  0.25650  0.17730  Biso   1.000  H
  H227     1.0000 0.03990  0.75650  0.32270  Biso   1.000  H
  H228     1.0000 0.96010  0.75650  0.17730  Biso   1.000  H
  H229     1.0000 0.46010  0.74350  0.67730  Biso   1.000  H
  H230     1.0000 0.53990  0.74350  0.82270  Biso   1.000  H
  H231     1.0000 0.96010  0.24350  0.67730  Biso   1.000  H
  H232     1.0000 0.03990  0.24350  0.82270  Biso   1.000  H
  H233     1.0000 0.45630  0.25650  0.23940  Biso   1.000  H
  H234     1.0000 0.54370  0.25650  0.26060  Biso   1.000  H
  H235     1.0000 0.95630  0.75650  0.23940  Biso   1.000  H
  H236     1.0000 0.04370  0.75650  0.26060  Biso   1.000  H
  H237     1.0000 0.54370  0.74350  0.76060  Biso   1.000  H
  H238     1.0000 0.45630  0.74350  0.73940  Biso   1.000  H
  H239     1.0000 0.04370  0.24350  0.76060  Biso   1.000  H
  H240     1.0000 0.95630  0.24350  0.73940  Biso   1.000  H
  C245     1.0000 0.49500  0.31400  0.19100  Biso   1.000  C
  C246     1.0000 0.50500  0.31400  0.30900  Biso   1.000  C
  C247     1.0000 0.99500  0.81400  0.19100  Biso   1.000  C
  C248     1.0000 0.00500  0.81400  0.30900  Biso   1.000  C
  C249     1.0000 0.50500  0.68600  0.80900  Biso   1.000  C
  C250     1.0000 0.49500  0.68600  0.69100  Biso   1.000  C
  C251     1.0000 0.00500  0.18600  0.80900  Biso   1.000  C
  C252     1.0000 0.99500  0.18600  0.69100  Biso   1.000  C
  H241     1.0000 0.53870  0.31470  0.20000  Biso   1.000  H
  H242     1.0000 0.46130  0.31470  0.30000  Biso   1.000  H
  H243     1.0000 0.03870  0.81470  0.20000  Biso   1.000  H
  H244     1.0000 0.96130  0.81470  0.30000  Biso   1.000  H
  H245     1.0000 0.46130  0.68530  0.80000  Biso   1.000  H
  H246     1.0000 0.53870  0.68530  0.70000  Biso   1.000  H
  H247     1.0000 0.96130  0.18530  0.80000  Biso   1.000  H
  H248     1.0000 0.03870  0.18530  0.70000  Biso   1.000  H
  H249     1.0000 0.45600  0.31470  0.11770  Biso   1.000  H
  H250     1.0000 0.54400  0.31470  0.38230  Biso   1.000  H
  H251     1.0000 0.95600  0.81470  0.11770  Biso   1.000  H
  H252     1.0000 0.04400  0.81470  0.38230  Biso   1.000  H
  H253     1.0000 0.54400  0.68530  0.88230  Biso   1.000  H
  H254     1.0000 0.45600  0.68530  0.61770  Biso   1.000  H
  H255     1.0000 0.04400  0.18530  0.88230  Biso   1.000  H
  H256     1.0000 0.95600  0.18530  0.61770  Biso   1.000  H
