data_image0
_cell_length_a       16.122
_cell_length_b       7.982
_cell_length_c       22.601
_cell_angle_alpha    90
_cell_angle_beta     107.22
_cell_angle_gamma    90

_symmetry_space_group_name_H-M    "P 1"
_symmetry_int_tables_number       1

loop_
  _symmetry_equiv_pos_as_xyz
  'x, y, z'

loop_
  _atom_site_label
  _atom_site_occupancy
  _atom_site_fract_x
  _atom_site_fract_y
  _atom_site_fract_z
  _atom_site_thermal_displace_type
  _atom_site_B_iso_or_equiv
  _atom_site_type_symbol
  Cu1      1.0000 0.59102  0.56917  0.09630  Biso   1.000  Cu
  Cu2      1.0000 0.90898  0.06917  0.40370  Biso   1.000  Cu
  Cu3      1.0000 0.40898  0.43083  0.90370  Biso   1.000  Cu
  Cu4      1.0000 0.09102  0.93083  0.59630  Biso   1.000  Cu
  O1       1.0000 0.86689  0.94470  0.30563  Biso   1.000  O
  O2       1.0000 0.63311  0.44470  0.19437  Biso   1.000  O
  O3       1.0000 0.13311  0.05530  0.69437  Biso   1.000  O
  O4       1.0000 0.36689  0.55530  0.80563  Biso   1.000  O
  O5       1.0000 0.51461  0.38510  0.05768  Biso   1.000  O
  O6       1.0000 0.98539  0.88510  0.44232  Biso   1.000  O
  O7       1.0000 0.48539  0.61490  0.94232  Biso   1.000  O
  O8       1.0000 0.01461  0.11490  0.55768  Biso   1.000  O
  H1       1.0000 0.46070  0.40080  0.04710  Biso   1.000  H
  H2       1.0000 0.03930  0.90080  0.45290  Biso   1.000  H
  H3       1.0000 0.53930  0.59920  0.95290  Biso   1.000  H
  H4       1.0000 0.96070  0.09920  0.54710  Biso   1.000  H
  H5       1.0000 0.52650  0.32490  0.03080  Biso   1.000  H
  H6       1.0000 0.97350  0.82490  0.46920  Biso   1.000  H
  H7       1.0000 0.47350  0.67510  0.96920  Biso   1.000  H
  H8       1.0000 0.02650  0.17510  0.53080  Biso   1.000  H
  O9       1.0000 0.68845  0.45550  0.07860  Biso   1.000  O
  O10      1.0000 0.81155  0.95550  0.42140  Biso   1.000  O
  O11      1.0000 0.31155  0.54450  0.92140  Biso   1.000  O
  O12      1.0000 0.18845  0.04450  0.57860  Biso   1.000  O
  O13      1.0000 0.49376  0.68360  0.11258  Biso   1.000  O
  O14      1.0000 0.00624  0.18360  0.38742  Biso   1.000  O
  O15      1.0000 0.50624  0.31640  0.88742  Biso   1.000  O
  O16      1.0000 0.99376  0.81640  0.61258  Biso   1.000  O
  O17      1.0000 0.65759  0.56690  0.98395  Biso   1.000  O
  O18      1.0000 0.84241  0.06690  0.51605  Biso   1.000  O
  O19      1.0000 0.34241  0.43310  0.01605  Biso   1.000  O
  O20      1.0000 0.15759  0.93310  0.48395  Biso   1.000  O
  O21      1.0000 0.44046  0.81180  0.02109  Biso   1.000  O
  O22      1.0000 0.05954  0.31180  0.47891  Biso   1.000  O
  O23      1.0000 0.55954  0.18820  0.97891  Biso   1.000  O
  O24      1.0000 0.94046  0.68820  0.52109  Biso   1.000  O
  O25      1.0000 0.93593  0.08120  0.14951  Biso   1.000  O
  O26      1.0000 0.56407  0.58120  0.35049  Biso   1.000  O
  O27      1.0000 0.06407  0.91880  0.85049  Biso   1.000  O
  O28      1.0000 0.43593  0.41880  0.64951  Biso   1.000  O
  O29      1.0000 0.35580  0.75680  0.27223  Biso   1.000  O
  O30      1.0000 0.14420  0.25680  0.22777  Biso   1.000  O
  O31      1.0000 0.64420  0.24320  0.72777  Biso   1.000  O
  O32      1.0000 0.85580  0.74320  0.77223  Biso   1.000  O
  O33      1.0000 0.01122  0.01260  0.08891  Biso   1.000  O
  O34      1.0000 0.48878  0.51260  0.41109  Biso   1.000  O
  O35      1.0000 0.98878  0.98740  0.91109  Biso   1.000  O
  O36      1.0000 0.51122  0.48740  0.58891  Biso   1.000  O
  O37      1.0000 0.23180  0.87910  0.25238  Biso   1.000  O
  O38      1.0000 0.26820  0.37910  0.24762  Biso   1.000  O
  O39      1.0000 0.76820  0.12090  0.74762  Biso   1.000  O
  O40      1.0000 0.73180  0.62090  0.75238  Biso   1.000  O
  O41      1.0000 0.98628  0.39930  0.91269  Biso   1.000  O
  O42      1.0000 0.51372  0.89930  0.58731  Biso   1.000  O
  O43      1.0000 0.01372  0.60070  0.08731  Biso   1.000  O
  O44      1.0000 0.48628  0.10070  0.41269  Biso   1.000  O
  O45      1.0000 0.14315  0.23820  0.06835  Biso   1.000  O
  O46      1.0000 0.35685  0.73820  0.43165  Biso   1.000  O
  O47      1.0000 0.85685  0.76180  0.93165  Biso   1.000  O
  O48      1.0000 0.64315  0.26180  0.56835  Biso   1.000  O
  O49      1.0000 0.85239  0.40730  0.85567  Biso   1.000  O
  O50      1.0000 0.64761  0.90730  0.64433  Biso   1.000  O
  O51      1.0000 0.14761  0.59270  0.14433  Biso   1.000  O
  O52      1.0000 0.35239  0.09270  0.35567  Biso   1.000  O
  O53      1.0000 0.18024  0.15460  0.98875  Biso   1.000  O
  O54      1.0000 0.31976  0.65460  0.51125  Biso   1.000  O
  O55      1.0000 0.81976  0.84540  0.01125  Biso   1.000  O
  O56      1.0000 0.68024  0.34540  0.48875  Biso   1.000  O
  N1       1.0000 0.66522  0.76970  0.12742  Biso   1.000  N
  N2       1.0000 0.83478  0.26970  0.37258  Biso   1.000  N
  N3       1.0000 0.33478  0.23030  0.87258  Biso   1.000  N
  N4       1.0000 0.16522  0.73030  0.62742  Biso   1.000  N
  N5       1.0000 0.92800  0.75070  0.25838  Biso   1.000  N
  N6       1.0000 0.57200  0.25070  0.24162  Biso   1.000  N
  N7       1.0000 0.07200  0.24930  0.74162  Biso   1.000  N
  N8       1.0000 0.42800  0.74930  0.75838  Biso   1.000  N
  N9       1.0000 0.95410  0.09310  0.10134  Biso   1.000  N
  N10      1.0000 0.54590  0.59310  0.39866  Biso   1.000  N
  N11      1.0000 0.04590  0.90690  0.89866  Biso   1.000  N
  N12      1.0000 0.45410  0.40690  0.60134  Biso   1.000  N
  N13      1.0000 0.90830  0.38800  0.90466  Biso   1.000  N
  N14      1.0000 0.59170  0.88800  0.59534  Biso   1.000  N
  N15      1.0000 0.09170  0.61200  0.09534  Biso   1.000  N
  N16      1.0000 0.40830  0.11200  0.40466  Biso   1.000  N
  N17      1.0000 0.29600  0.83530  0.23910  Biso   1.000  N
  N18      1.0000 0.20400  0.33530  0.26090  Biso   1.000  N
  N19      1.0000 0.70400  0.16470  0.76090  Biso   1.000  N
  N20      1.0000 0.79600  0.66470  0.73910  Biso   1.000  N
  N21      1.0000 0.18600  0.15030  0.04360  Biso   1.000  N
  N22      1.0000 0.31400  0.65030  0.45640  Biso   1.000  N
  N23      1.0000 0.81400  0.84970  0.95640  Biso   1.000  N
  N24      1.0000 0.68600  0.34970  0.54360  Biso   1.000  N
  C1       1.0000 0.70209  0.47990  0.02690  Biso   1.000  C
  C2       1.0000 0.79791  0.97990  0.47310  Biso   1.000  C
  C3       1.0000 0.29791  0.52010  0.97310  Biso   1.000  C
  C4       1.0000 0.20209  0.02010  0.52690  Biso   1.000  C
  C5       1.0000 0.44006  0.77810  0.07437  Biso   1.000  C
  C6       1.0000 0.05994  0.27810  0.42563  Biso   1.000  C
  C7       1.0000 0.55994  0.22190  0.92563  Biso   1.000  C
  C8       1.0000 0.94006  0.72190  0.57437  Biso   1.000  C
  C9       1.0000 0.73848  0.74940  0.17442  Biso   1.000  C
  C10      1.0000 0.76152  0.24940  0.32558  Biso   1.000  C
  C11      1.0000 0.26152  0.25060  0.82558  Biso   1.000  C
  C12      1.0000 0.23848  0.75060  0.67442  Biso   1.000  C
  H9       1.0000 0.75610  0.63900  0.18840  Biso   1.000  H
  H10      1.0000 0.74390  0.13900  0.31160  Biso   1.000  H
  H11      1.0000 0.24390  0.36100  0.81160  Biso   1.000  H
  H12      1.0000 0.25610  0.86100  0.68840  Biso   1.000  H
  C13      1.0000 0.78131  0.39330  0.01800  Biso   1.000  C
  C14      1.0000 0.71869  0.89330  0.48200  Biso   1.000  C
  C15      1.0000 0.21869  0.60670  0.98200  Biso   1.000  C
  C16      1.0000 0.28131  0.10670  0.51800  Biso   1.000  C
  C17      1.0000 0.37115  0.85540  0.09839  Biso   1.000  C
  C18      1.0000 0.12885  0.35540  0.40161  Biso   1.000  C
  C19      1.0000 0.62885  0.14460  0.90161  Biso   1.000  C
  C20      1.0000 0.87115  0.64460  0.59839  Biso   1.000  C
  C21      1.0000 0.78913  0.88240  0.20312  Biso   1.000  C
  C22      1.0000 0.71087  0.38240  0.29688  Biso   1.000  C
  C23      1.0000 0.21087  0.11760  0.79688  Biso   1.000  C
  C24      1.0000 0.28913  0.61760  0.70312  Biso   1.000  C
  C25      1.0000 0.83053  0.28640  0.06276  Biso   1.000  C
  C26      1.0000 0.66947  0.78640  0.43724  Biso   1.000  C
  C27      1.0000 0.16947  0.71360  0.93724  Biso   1.000  C
  C28      1.0000 0.33053  0.21360  0.56276  Biso   1.000  C
  H13      1.0000 0.81420  0.26400  0.09910  Biso   1.000  H
  H14      1.0000 0.68580  0.76400  0.40090  Biso   1.000  H
  H15      1.0000 0.18580  0.73600  0.90090  Biso   1.000  H
  H16      1.0000 0.31420  0.23600  0.59910  Biso   1.000  H
  C29      1.0000 0.76254  0.04290  0.18284  Biso   1.000  C
  C30      1.0000 0.73746  0.54290  0.31716  Biso   1.000  C
  C31      1.0000 0.23746  0.95710  0.81716  Biso   1.000  C
  C32      1.0000 0.26254  0.45710  0.68284  Biso   1.000  C
  H17      1.0000 0.79460  0.13740  0.20280  Biso   1.000  H
  H18      1.0000 0.70540  0.63740  0.29720  Biso   1.000  H
  H19      1.0000 0.20540  0.86260  0.79720  Biso   1.000  H
  H20      1.0000 0.29460  0.36260  0.70280  Biso   1.000  H
  C33      1.0000 0.90384  0.21190  0.05443  Biso   1.000  C
  C34      1.0000 0.59616  0.71190  0.44557  Biso   1.000  C
  C35      1.0000 0.09616  0.78810  0.94557  Biso   1.000  C
  C36      1.0000 0.40384  0.28810  0.55443  Biso   1.000  C
  C37      1.0000 0.36547  0.81470  0.15639  Biso   1.000  C
  C38      1.0000 0.13453  0.31470  0.34361  Biso   1.000  C
  C39      1.0000 0.63453  0.18530  0.84361  Biso   1.000  C
  C40      1.0000 0.86547  0.68530  0.65639  Biso   1.000  C
  H21      1.0000 0.40560  0.73840  0.18210  Biso   1.000  H
  H22      1.0000 0.09440  0.23840  0.31790  Biso   1.000  H
  H23      1.0000 0.59440  0.26160  0.81790  Biso   1.000  H
  H24      1.0000 0.90560  0.76160  0.68210  Biso   1.000  H
  C41      1.0000 0.30060  0.88630  0.17672  Biso   1.000  C
  C42      1.0000 0.19940  0.38630  0.32328  Biso   1.000  C
  C43      1.0000 0.69940  0.11370  0.82328  Biso   1.000  C
  C44      1.0000 0.80060  0.61370  0.67672  Biso   1.000  C
  C45      1.0000 0.68890  0.06400  0.13329  Biso   1.000  C
  C46      1.0000 0.81110  0.56400  0.36671  Biso   1.000  C
  C47      1.0000 0.31110  0.93600  0.86671  Biso   1.000  C
  C48      1.0000 0.18890  0.43600  0.63329  Biso   1.000  C
  H25      1.0000 0.67080  0.17280  0.11780  Biso   1.000  H
  H26      1.0000 0.82920  0.67280  0.38220  Biso   1.000  H
  H27      1.0000 0.32920  0.82720  0.88220  Biso   1.000  H
  H28      1.0000 0.17080  0.32720  0.61780  Biso   1.000  H
  C49      1.0000 0.93121  0.24480  0.00340  Biso   1.000  C
  C50      1.0000 0.56879  0.74480  0.49660  Biso   1.000  C
  C51      1.0000 0.06879  0.75520  0.99660  Biso   1.000  C
  C52      1.0000 0.43121  0.25520  0.50340  Biso   1.000  C
  H29      1.0000 0.98300  0.19730  0.99870  Biso   1.000  H
  H30      1.0000 0.51700  0.69730  0.50130  Biso   1.000  H
  H31      1.0000 0.01700  0.80270  0.00130  Biso   1.000  H
  H32      1.0000 0.48300  0.30270  0.49870  Biso   1.000  H
  C53      1.0000 0.24122  0.99690  0.14140  Biso   1.000  C
  C54      1.0000 0.25878  0.49690  0.35860  Biso   1.000  C
  C55      1.0000 0.75878  0.00310  0.85860  Biso   1.000  C
  C56      1.0000 0.74122  0.50310  0.64140  Biso   1.000  C
  H33      1.0000 0.19710  0.04530  0.15600  Biso   1.000  H
  H34      1.0000 0.30290  0.54530  0.34400  Biso   1.000  H
  H35      1.0000 0.80290  0.95470  0.84400  Biso   1.000  H
  H36      1.0000 0.69710  0.45470  0.65600  Biso   1.000  H
  C57      1.0000 0.64231  0.92560  0.10675  Biso   1.000  C
  C58      1.0000 0.85769  0.42560  0.39325  Biso   1.000  C
  C59      1.0000 0.35769  0.07440  0.89325  Biso   1.000  C
  C60      1.0000 0.14231  0.57440  0.60675  Biso   1.000  C
  H37      1.0000 0.59190  0.94060  0.07240  Biso   1.000  H
  H38      1.0000 0.90810  0.44060  0.42760  Biso   1.000  H
  H39      1.0000 0.40810  0.05940  0.92760  Biso   1.000  H
  H40      1.0000 0.09190  0.55940  0.57240  Biso   1.000  H
  C61      1.0000 0.87980  0.34980  0.95962  Biso   1.000  C
  C62      1.0000 0.62020  0.84980  0.54038  Biso   1.000  C
  C63      1.0000 0.12020  0.65020  0.04038  Biso   1.000  C
  C64      1.0000 0.37980  0.15020  0.45962  Biso   1.000  C
  C65      1.0000 0.24868  0.03420  0.08377  Biso   1.000  C
  C66      1.0000 0.25132  0.53420  0.41623  Biso   1.000  C
  C67      1.0000 0.75132  0.96580  0.91623  Biso   1.000  C
  C68      1.0000 0.74868  0.46580  0.58377  Biso   1.000  C
  C69      1.0000 0.80444  0.42130  0.96449  Biso   1.000  C
  C70      1.0000 0.69556  0.92130  0.53551  Biso   1.000  C
  C71      1.0000 0.19556  0.57870  0.03551  Biso   1.000  C
  C72      1.0000 0.30444  0.07870  0.46449  Biso   1.000  C
  H41      1.0000 0.76910  0.48830  0.93190  Biso   1.000  H
  H42      1.0000 0.73090  0.98830  0.56810  Biso   1.000  H
  H43      1.0000 0.23090  0.51170  0.06810  Biso   1.000  H
  H44      1.0000 0.26910  0.01170  0.43190  Biso   1.000  H
  C73      1.0000 0.31174  0.96550  0.06081  Biso   1.000  C
  C74      1.0000 0.18826  0.46550  0.43919  Biso   1.000  C
  C75      1.0000 0.68826  0.03450  0.93919  Biso   1.000  C
  C76      1.0000 0.81174  0.53450  0.56081  Biso   1.000  C
  H45      1.0000 0.31430  0.99290  0.02050  Biso   1.000  H
  H46      1.0000 0.18570  0.49290  0.47950  Biso   1.000  H
  H47      1.0000 0.68570  0.00710  0.97950  Biso   1.000  H
  H48      1.0000 0.81430  0.50710  0.52050  Biso   1.000  H
  C77      1.0000 0.86611  0.86030  0.25968  Biso   1.000  C
  C78      1.0000 0.63389  0.36030  0.24032  Biso   1.000  C
  C79      1.0000 0.13389  0.13970  0.74032  Biso   1.000  C
  C80      1.0000 0.36611  0.63970  0.75968  Biso   1.000  C
  C81      1.0000 0.93670  0.66500  0.20341  Biso   1.000  C
  C82      1.0000 0.56330  0.16500  0.29659  Biso   1.000  C
  C83      1.0000 0.06330  0.33500  0.79659  Biso   1.000  C
  C84      1.0000 0.43670  0.83500  0.70341  Biso   1.000  C
  H49      1.0000 0.99510  0.68760  0.19930  Biso   1.000  H
  H50      1.0000 0.50490  0.18760  0.30070  Biso   1.000  H
  H51      1.0000 0.00490  0.31240  0.80070  Biso   1.000  H
  H52      1.0000 0.49510  0.81240  0.69930  Biso   1.000  H
  H53      1.0000 0.89330  0.71050  0.16620  Biso   1.000  H
  H54      1.0000 0.60670  0.21050  0.33380  Biso   1.000  H
  H55      1.0000 0.10670  0.28950  0.83380  Biso   1.000  H
  H56      1.0000 0.39330  0.78950  0.66620  Biso   1.000  H
  C85      1.0000 0.00218  0.72980  0.31439  Biso   1.000  C
  C86      1.0000 0.49782  0.22980  0.18561  Biso   1.000  C
  C87      1.0000 0.99782  0.27020  0.68561  Biso   1.000  C
  C88      1.0000 0.50218  0.77020  0.81439  Biso   1.000  C
  H57      1.0000 0.02330  0.61280  0.31630  Biso   1.000  H
  H58      1.0000 0.47670  0.11280  0.18370  Biso   1.000  H
  H59      1.0000 0.97670  0.38720  0.68370  Biso   1.000  H
  H60      1.0000 0.52330  0.88720  0.81630  Biso   1.000  H
  H61      1.0000 0.98240  0.74930  0.35130  Biso   1.000  H
  H62      1.0000 0.51760  0.24930  0.14870  Biso   1.000  H
  H63      1.0000 0.01760  0.25070  0.64870  Biso   1.000  H
  H64      1.0000 0.48240  0.75070  0.85130  Biso   1.000  H
  C89      1.0000 0.92410  0.47840  0.20623  Biso   1.000  C
  C90      1.0000 0.57590  0.97840  0.29377  Biso   1.000  C
  C91      1.0000 0.07590  0.52160  0.79377  Biso   1.000  C
  C92      1.0000 0.42410  0.02160  0.70623  Biso   1.000  C
  H65      1.0000 0.96170  0.43500  0.24560  Biso   1.000  H
  H66      1.0000 0.53830  0.93500  0.25440  Biso   1.000  H
  H67      1.0000 0.03830  0.56500  0.75440  Biso   1.000  H
  H68      1.0000 0.46170  0.06500  0.74560  Biso   1.000  H
  H69      1.0000 0.93910  0.42440  0.17180  Biso   1.000  H
  H70      1.0000 0.56090  0.92440  0.32820  Biso   1.000  H
  H71      1.0000 0.06090  0.57560  0.82820  Biso   1.000  H
  H72      1.0000 0.43910  0.07560  0.67180  Biso   1.000  H
  H73      1.0000 0.86330  0.45460  0.20310  Biso   1.000  H
  H74      1.0000 0.63670  0.95460  0.29690  Biso   1.000  H
  H75      1.0000 0.13670  0.54540  0.79690  Biso   1.000  H
  H76      1.0000 0.36330  0.04540  0.70310  Biso   1.000  H
  C93      1.0000 0.07520  0.84520  0.31650  Biso   1.000  C
  C94      1.0000 0.42480  0.34520  0.18350  Biso   1.000  C
  C95      1.0000 0.92480  0.15480  0.68350  Biso   1.000  C
  C96      1.0000 0.57520  0.65480  0.81650  Biso   1.000  C
  H77      1.0000 0.09720  0.82240  0.28130  Biso   1.000  H
  H78      1.0000 0.40280  0.32240  0.21870  Biso   1.000  H
  H79      1.0000 0.90280  0.17760  0.71870  Biso   1.000  H
  H80      1.0000 0.59720  0.67760  0.78130  Biso   1.000  H
  H81      1.0000 0.12180  0.82810  0.35520  Biso   1.000  H
  H82      1.0000 0.37820  0.32810  0.14480  Biso   1.000  H
  H83      1.0000 0.87820  0.17190  0.64480  Biso   1.000  H
  H84      1.0000 0.62180  0.67190  0.85520  Biso   1.000  H
  H85      1.0000 0.05470  0.96130  0.31440  Biso   1.000  H
  H86      1.0000 0.44530  0.46130  0.18560  Biso   1.000  H
  H87      1.0000 0.94530  0.03870  0.68560  Biso   1.000  H
  H88      1.0000 0.55470  0.53870  0.81440  Biso   1.000  H
