data_image0
_cell_length_a       13.915
_cell_length_b       7.84
_cell_length_c       24.16
_cell_angle_alpha    90
_cell_angle_beta     106.31
_cell_angle_gamma    90

_symmetry_space_group_name_H-M    "P 1"
_symmetry_int_tables_number       1

loop_
  _symmetry_equiv_pos_as_xyz
  'x, y, z'

loop_
  _atom_site_label
  _atom_site_occupancy
  _atom_site_fract_x
  _atom_site_fract_y
  _atom_site_fract_z
  _atom_site_thermal_displace_type
  _atom_site_B_iso_or_equiv
  _atom_site_type_symbol
  Cu1      1.0000 0.60149  0.55783  0.09560  Biso   1.000  Cu
  Cu2      1.0000 0.89851  0.05783  0.40440  Biso   1.000  Cu
  Cu3      1.0000 0.39851  0.44217  0.90440  Biso   1.000  Cu
  Cu4      1.0000 0.10149  0.94217  0.59560  Biso   1.000  Cu
  O1       1.0000 0.73396  0.41120  0.16541  Biso   1.000  O
  O2       1.0000 0.76604  0.91120  0.33459  Biso   1.000  O
  O3       1.0000 0.26604  0.58880  0.83459  Biso   1.000  O
  O4       1.0000 0.23396  0.08880  0.66541  Biso   1.000  O
  O5       1.0000 0.58595  0.37631  0.03897  Biso   1.000  O
  O6       1.0000 0.91405  0.87631  0.46103  Biso   1.000  O
  O7       1.0000 0.41405  0.62369  0.96103  Biso   1.000  O
  O8       1.0000 0.08595  0.12369  0.53897  Biso   1.000  O
  H1       1.0000 0.60040  0.39730  0.00820  Biso   1.000  H
  H2       1.0000 0.89960  0.89730  0.49180  Biso   1.000  H
  H3       1.0000 0.39960  0.60270  0.99180  Biso   1.000  H
  H4       1.0000 0.10040  0.10270  0.50820  Biso   1.000  H
  H5       1.0000 0.53220  0.32080  0.03030  Biso   1.000  H
  H6       1.0000 0.96780  0.82080  0.46970  Biso   1.000  H
  H7       1.0000 0.46780  0.67920  0.96970  Biso   1.000  H
  H8       1.0000 0.03220  0.17920  0.53030  Biso   1.000  H
  O9       1.0000 0.50304  0.44761  0.12767  Biso   1.000  O
  O10      1.0000 0.99696  0.94761  0.37233  Biso   1.000  O
  O11      1.0000 0.49696  0.55239  0.87233  Biso   1.000  O
  O12      1.0000 0.00304  0.05239  0.62767  Biso   1.000  O
  O13      1.0000 0.38184  0.58690  0.06396  Biso   1.000  O
  O14      1.0000 0.11816  0.08690  0.43604  Biso   1.000  O
  O15      1.0000 0.61816  0.41310  0.93604  Biso   1.000  O
  O16      1.0000 0.88184  0.91310  0.56396  Biso   1.000  O
  O17      1.0000 0.69687  0.66960  0.06223  Biso   1.000  O
  O18      1.0000 0.80313  0.16960  0.43777  Biso   1.000  O
  O19      1.0000 0.30313  0.33040  0.93777  Biso   1.000  O
  O20      1.0000 0.19687  0.83040  0.56223  Biso   1.000  O
  O21      1.0000 0.57718  0.80760  0.99655  Biso   1.000  O
  O22      1.0000 0.92282  0.30760  0.50345  Biso   1.000  O
  O23      1.0000 0.42282  0.19240  0.00345  Biso   1.000  O
  O24      1.0000 0.07718  0.69240  0.49655  Biso   1.000  O
  O25      1.0000 0.66710  0.11400  0.84318  Biso   1.000  O
  O26      1.0000 0.83290  0.61400  0.65682  Biso   1.000  O
  O27      1.0000 0.33290  0.88600  0.15682  Biso   1.000  O
  O28      1.0000 0.16710  0.38600  0.34318  Biso   1.000  O
  O29      1.0000 0.04495  0.57880  0.08817  Biso   1.000  O
  O30      1.0000 0.45505  0.07880  0.41183  Biso   1.000  O
  O31      1.0000 0.95505  0.42120  0.91183  Biso   1.000  O
  O32      1.0000 0.54495  0.92120  0.58817  Biso   1.000  O
  O33      1.0000 0.82050  0.12650  0.84195  Biso   1.000  O
  O34      1.0000 0.67950  0.62650  0.65805  Biso   1.000  O
  O35      1.0000 0.17950  0.87350  0.15805  Biso   1.000  O
  O36      1.0000 0.32050  0.37350  0.34195  Biso   1.000  O
  O37      1.0000 0.02445  0.49950  0.16900  Biso   1.000  O
  O38      1.0000 0.47555  0.99950  0.33100  Biso   1.000  O
  O39      1.0000 0.97555  0.50050  0.83100  Biso   1.000  O
  O40      1.0000 0.52445  0.00050  0.66900  Biso   1.000  O
  N1       1.0000 0.89247  0.25190  0.34963  Biso   1.000  N
  N2       1.0000 0.60753  0.75190  0.15037  Biso   1.000  N
  N3       1.0000 0.10753  0.74810  0.65037  Biso   1.000  N
  N4       1.0000 0.39247  0.24810  0.84963  Biso   1.000  N
  N5       1.0000 0.83927  0.19580  0.16128  Biso   1.000  N
  N6       1.0000 0.66073  0.69580  0.33872  Biso   1.000  N
  N7       1.0000 0.16073  0.80420  0.83872  Biso   1.000  N
  N8       1.0000 0.33927  0.30420  0.66128  Biso   1.000  N
  N9       1.0000 0.75530  0.07980  0.86310  Biso   1.000  N
  N10      1.0000 0.74470  0.57980  0.63690  Biso   1.000  N
  N11      1.0000 0.24470  0.92020  0.13690  Biso   1.000  N
  N12      1.0000 0.25530  0.42020  0.36310  Biso   1.000  N
  N13      1.0000 0.07480  0.51370  0.13504  Biso   1.000  N
  N14      1.0000 0.42520  0.01370  0.36496  Biso   1.000  N
  N15      1.0000 0.92520  0.48630  0.86496  Biso   1.000  N
  N16      1.0000 0.57480  0.98630  0.63504  Biso   1.000  N
  C1       1.0000 0.66530  0.76300  0.01802  Biso   1.000  C
  C2       1.0000 0.83470  0.26300  0.48198  Biso   1.000  C
  C3       1.0000 0.33470  0.23700  0.98198  Biso   1.000  C
  C4       1.0000 0.16530  0.73700  0.51802  Biso   1.000  C
  C5       1.0000 0.41260  0.49570  0.10632  Biso   1.000  C
  C6       1.0000 0.08740  0.99570  0.39368  Biso   1.000  C
  C7       1.0000 0.58740  0.50430  0.89368  Biso   1.000  C
  C8       1.0000 0.91260  0.00430  0.60632  Biso   1.000  C
  C9       1.0000 0.86142  0.22210  0.29281  Biso   1.000  C
  C10      1.0000 0.63858  0.72210  0.20719  Biso   1.000  C
  C11      1.0000 0.13858  0.77790  0.70719  Biso   1.000  C
  C12      1.0000 0.36142  0.27790  0.79281  Biso   1.000  C
  H9       1.0000 0.84390  0.10890  0.27990  Biso   1.000  H
  H10      1.0000 0.65610  0.60890  0.22010  Biso   1.000  H
  H11      1.0000 0.15610  0.89110  0.72010  Biso   1.000  H
  H12      1.0000 0.34390  0.39110  0.77990  Biso   1.000  H
  C13      1.0000 0.74310  0.82320  0.99006  Biso   1.000  C
  C14      1.0000 0.75690  0.32320  0.50994  Biso   1.000  C
  C15      1.0000 0.25690  0.17680  0.00994  Biso   1.000  C
  C16      1.0000 0.24310  0.67680  0.49006  Biso   1.000  C
  C17      1.0000 0.33930  0.43620  0.13819  Biso   1.000  C
  C18      1.0000 0.16070  0.93620  0.36181  Biso   1.000  C
  C19      1.0000 0.66070  0.56380  0.86181  Biso   1.000  C
  C20      1.0000 0.83930  0.06380  0.63819  Biso   1.000  C
  C21      1.0000 0.24180  0.49380  0.12074  Biso   1.000  C
  C22      1.0000 0.25820  0.99380  0.37926  Biso   1.000  C
  C23      1.0000 0.75820  0.50620  0.87926  Biso   1.000  C
  C24      1.0000 0.74180  0.00620  0.62074  Biso   1.000  C
  H13      1.0000 0.21950  0.56520  0.08790  Biso   1.000  H
  H14      1.0000 0.28050  0.06520  0.41210  Biso   1.000  H
  H15      1.0000 0.78050  0.43480  0.91210  Biso   1.000  H
  H16      1.0000 0.71950  0.93480  0.58790  Biso   1.000  H
  C25      1.0000 0.85386  0.34890  0.25223  Biso   1.000  C
  C26      1.0000 0.64614  0.84890  0.24777  Biso   1.000  C
  C27      1.0000 0.14614  0.65110  0.74777  Biso   1.000  C
  C28      1.0000 0.35386  0.15110  0.75223  Biso   1.000  C
  C29      1.0000 0.71480  0.92630  0.94194  Biso   1.000  C
  C30      1.0000 0.78520  0.42630  0.55806  Biso   1.000  C
  C31      1.0000 0.28520  0.07370  0.05806  Biso   1.000  C
  C32      1.0000 0.21480  0.57370  0.44194  Biso   1.000  C
  H17      1.0000 0.64740  0.96340  0.92730  Biso   1.000  H
  H18      1.0000 0.85260  0.46340  0.57270  Biso   1.000  H
  H19      1.0000 0.35260  0.03660  0.07270  Biso   1.000  H
  H20      1.0000 0.14740  0.53660  0.42730  Biso   1.000  H
  C33      1.0000 0.88070  0.51220  0.27232  Biso   1.000  C
  C34      1.0000 0.61930  0.01220  0.22768  Biso   1.000  C
  C35      1.0000 0.11930  0.48780  0.72768  Biso   1.000  C
  C36      1.0000 0.38070  0.98780  0.77232  Biso   1.000  C
  H21      1.0000 0.87580  0.60340  0.24580  Biso   1.000  H
  H22      1.0000 0.62420  0.10340  0.25420  Biso   1.000  H
  H23      1.0000 0.12420  0.39660  0.75420  Biso   1.000  H
  H24      1.0000 0.37580  0.89660  0.74580  Biso   1.000  H
  C37      1.0000 0.78650  0.97450  0.91552  Biso   1.000  C
  C38      1.0000 0.71350  0.47450  0.58448  Biso   1.000  C
  C39      1.0000 0.21350  0.02550  0.08448  Biso   1.000  C
  C40      1.0000 0.28650  0.52550  0.41552  Biso   1.000  C
  C41      1.0000 0.17750  0.44560  0.15204  Biso   1.000  C
  C42      1.0000 0.32250  0.94560  0.34796  Biso   1.000  C
  C43      1.0000 0.82250  0.55440  0.84796  Biso   1.000  C
  C44      1.0000 0.67750  0.05440  0.65204  Biso   1.000  C
  C45      1.0000 0.91430  0.54260  0.33021  Biso   1.000  C
  C46      1.0000 0.58570  0.04260  0.16979  Biso   1.000  C
  C47      1.0000 0.08570  0.45740  0.66979  Biso   1.000  C
  C48      1.0000 0.41430  0.95740  0.83021  Biso   1.000  C
  H25      1.0000 0.93400  0.65420  0.34420  Biso   1.000  H
  H26      1.0000 0.56600  0.15420  0.15580  Biso   1.000  H
  H27      1.0000 0.06600  0.34580  0.65580  Biso   1.000  H
  H28      1.0000 0.43400  0.84580  0.84420  Biso   1.000  H
  C49      1.0000 0.88410  0.92550  0.93563  Biso   1.000  C
  C50      1.0000 0.61590  0.42550  0.56437  Biso   1.000  C
  C51      1.0000 0.11590  0.07450  0.06437  Biso   1.000  C
  C52      1.0000 0.38410  0.57450  0.43563  Biso   1.000  C
  H29      1.0000 0.93210  0.96180  0.91680  Biso   1.000  H
  H30      1.0000 0.56790  0.46180  0.58320  Biso   1.000  H
  H31      1.0000 0.06790  0.03820  0.08320  Biso   1.000  H
  H32      1.0000 0.43210  0.53820  0.41680  Biso   1.000  H
  C53      1.0000 0.20600  0.34150  0.19953  Biso   1.000  C
  C54      1.0000 0.29400  0.84150  0.30047  Biso   1.000  C
  C55      1.0000 0.79400  0.65850  0.80047  Biso   1.000  C
  C56      1.0000 0.70600  0.15850  0.69953  Biso   1.000  C
  H33      1.0000 0.16060  0.31330  0.22100  Biso   1.000  H
  H34      1.0000 0.33940  0.81330  0.27900  Biso   1.000  H
  H35      1.0000 0.83940  0.68670  0.77900  Biso   1.000  H
  H36      1.0000 0.66060  0.18670  0.72100  Biso   1.000  H
  C57      1.0000 0.91923  0.41010  0.36797  Biso   1.000  C
  C58      1.0000 0.58077  0.91010  0.13203  Biso   1.000  C
  C59      1.0000 0.08077  0.58990  0.63203  Biso   1.000  C
  C60      1.0000 0.41923  0.08990  0.86797  Biso   1.000  C
  H37      1.0000 0.94230  0.43150  0.40820  Biso   1.000  H
  H38      1.0000 0.55770  0.93150  0.09180  Biso   1.000  H
  H39      1.0000 0.05770  0.56850  0.59180  Biso   1.000  H
  H40      1.0000 0.44230  0.06850  0.90820  Biso   1.000  H
  C61      1.0000 0.91200  0.82290  0.98348  Biso   1.000  C
  C62      1.0000 0.58800  0.32290  0.51652  Biso   1.000  C
  C63      1.0000 0.08800  0.17710  0.01652  Biso   1.000  C
  C64      1.0000 0.41200  0.67710  0.48348  Biso   1.000  C
  H41      1.0000 0.97970  0.78740  0.99800  Biso   1.000  H
  H42      1.0000 0.52030  0.28740  0.50200  Biso   1.000  H
  H43      1.0000 0.02030  0.21260  0.00200  Biso   1.000  H
  H44      1.0000 0.47970  0.71260  0.49800  Biso   1.000  H
  C65      1.0000 0.30200  0.27920  0.21498  Biso   1.000  C
  C66      1.0000 0.19800  0.77920  0.28502  Biso   1.000  C
  C67      1.0000 0.69800  0.72080  0.78502  Biso   1.000  C
  C68      1.0000 0.80200  0.22080  0.71498  Biso   1.000  C
  H45      1.0000 0.32280  0.20250  0.24650  Biso   1.000  H
  H46      1.0000 0.17720  0.70250  0.25350  Biso   1.000  H
  H47      1.0000 0.67720  0.79750  0.75350  Biso   1.000  H
  H48      1.0000 0.82280  0.29750  0.74650  Biso   1.000  H
  C69      1.0000 0.84160  0.77080  0.01082  Biso   1.000  C
  C70      1.0000 0.65840  0.27080  0.48918  Biso   1.000  C
  C71      1.0000 0.15840  0.22920  0.98918  Biso   1.000  C
  C72      1.0000 0.34160  0.72920  0.51082  Biso   1.000  C
  H49      1.0000 0.86110  0.69920  0.04380  Biso   1.000  H
  H50      1.0000 0.63890  0.19920  0.45620  Biso   1.000  H
  H51      1.0000 0.13890  0.30080  0.95620  Biso   1.000  H
  H52      1.0000 0.36110  0.80080  0.54380  Biso   1.000  H
  C73      1.0000 0.36850  0.32730  0.18490  Biso   1.000  C
  C74      1.0000 0.13150  0.82730  0.31510  Biso   1.000  C
  C75      1.0000 0.63150  0.67270  0.81510  Biso   1.000  C
  C76      1.0000 0.86850  0.17270  0.68490  Biso   1.000  C
  H53      1.0000 0.43520  0.28500  0.19640  Biso   1.000  H
  H54      1.0000 0.06480  0.78500  0.30360  Biso   1.000  H
  H55      1.0000 0.56480  0.71500  0.80360  Biso   1.000  H
  H56      1.0000 0.93520  0.21500  0.69640  Biso   1.000  H
  C77      1.0000 0.80595  0.31980  0.18903  Biso   1.000  C
  C78      1.0000 0.69405  0.81980  0.31097  Biso   1.000  C
  C79      1.0000 0.19405  0.68020  0.81097  Biso   1.000  C
  C80      1.0000 0.30595  0.18020  0.68903  Biso   1.000  C
  C81      1.0000 0.93130  0.09890  0.18460  Biso   1.000  C
  C82      1.0000 0.56870  0.59890  0.31540  Biso   1.000  C
  C83      1.0000 0.06870  0.90110  0.81540  Biso   1.000  C
  C84      1.0000 0.43130  0.40110  0.68460  Biso   1.000  C
  H57      1.0000 0.96820  0.14750  0.22240  Biso   1.000  H
  H58      1.0000 0.53180  0.64750  0.27760  Biso   1.000  H
  H59      1.0000 0.03180  0.85250  0.77760  Biso   1.000  H
  H60      1.0000 0.46820  0.35250  0.72240  Biso   1.000  H
  H61      1.0000 0.97420  0.11030  0.15830  Biso   1.000  H
  H62      1.0000 0.52580  0.61030  0.34170  Biso   1.000  H
  H63      1.0000 0.02580  0.88970  0.84170  Biso   1.000  H
  H64      1.0000 0.47420  0.38970  0.65830  Biso   1.000  H
  C85      1.0000 0.78820  0.16820  0.09996  Biso   1.000  C
  C86      1.0000 0.71180  0.66820  0.40004  Biso   1.000  C
  C87      1.0000 0.21180  0.83180  0.90004  Biso   1.000  C
  C88      1.0000 0.28820  0.33180  0.59996  Biso   1.000  C
  H65      1.0000 0.71630  0.19570  0.09270  Biso   1.000  H
  H66      1.0000 0.78370  0.69570  0.40730  Biso   1.000  H
  H67      1.0000 0.28370  0.80430  0.90730  Biso   1.000  H
  H68      1.0000 0.21630  0.30430  0.59270  Biso   1.000  H
  H69      1.0000 0.79340  0.04610  0.09070  Biso   1.000  H
  H70      1.0000 0.70660  0.54610  0.40930  Biso   1.000  H
  H71      1.0000 0.20660  0.95390  0.90930  Biso   1.000  H
  H72      1.0000 0.29340  0.45390  0.59070  Biso   1.000  H
  C89      1.0000 0.91160  0.91080  0.19217  Biso   1.000  C
  C90      1.0000 0.58840  0.41080  0.30783  Biso   1.000  C
  C91      1.0000 0.08840  0.08920  0.80783  Biso   1.000  C
  C92      1.0000 0.41160  0.58920  0.69217  Biso   1.000  C
  H73      1.0000 0.87940  0.89730  0.22310  Biso   1.000  H
  H74      1.0000 0.62060  0.39730  0.27690  Biso   1.000  H
  H75      1.0000 0.12060  0.10270  0.77690  Biso   1.000  H
  H76      1.0000 0.37940  0.60270  0.72310  Biso   1.000  H
  H77      1.0000 0.97520  0.84840  0.20210  Biso   1.000  H
  H78      1.0000 0.52480  0.34840  0.29790  Biso   1.000  H
  H79      1.0000 0.02480  0.15160  0.79790  Biso   1.000  H
  H80      1.0000 0.47520  0.65160  0.70210  Biso   1.000  H
  H81      1.0000 0.86760  0.86550  0.15610  Biso   1.000  H
  H82      1.0000 0.63240  0.36550  0.34390  Biso   1.000  H
  H83      1.0000 0.13240  0.13450  0.84390  Biso   1.000  H
  H84      1.0000 0.36760  0.63450  0.65610  Biso   1.000  H
  C93      1.0000 0.83060  0.27410  0.06050  Biso   1.000  C
  C94      1.0000 0.66940  0.77410  0.43950  Biso   1.000  C
  C95      1.0000 0.16940  0.72590  0.93950  Biso   1.000  C
  C96      1.0000 0.33060  0.22590  0.56050  Biso   1.000  C
  H85      1.0000 0.82470  0.39530  0.06890  Biso   1.000  H
  H86      1.0000 0.67530  0.89530  0.43110  Biso   1.000  H
  H87      1.0000 0.17530  0.60470  0.93110  Biso   1.000  H
  H88      1.0000 0.32470  0.10470  0.56890  Biso   1.000  H
  H89      1.0000 0.79330  0.25090  0.02030  Biso   1.000  H
  H90      1.0000 0.70670  0.75090  0.47970  Biso   1.000  H
  H91      1.0000 0.20670  0.74910  0.97970  Biso   1.000  H
  H92      1.0000 0.29330  0.24910  0.52030  Biso   1.000  H
  H93      1.0000 0.90130  0.24510  0.06650  Biso   1.000  H
  H94      1.0000 0.59870  0.74510  0.43350  Biso   1.000  H
  H95      1.0000 0.09870  0.75490  0.93350  Biso   1.000  H
  H96      1.0000 0.40130  0.25490  0.56650  Biso   1.000  H
