data_image0
_cell_length_a       14.2502
_cell_length_b       8.015
_cell_length_c       23.4065
_cell_angle_alpha    90
_cell_angle_beta     102.668
_cell_angle_gamma    90

_symmetry_space_group_name_H-M    "P 1"
_symmetry_int_tables_number       1

loop_
  _symmetry_equiv_pos_as_xyz
  'x, y, z'

loop_
  _atom_site_label
  _atom_site_occupancy
  _atom_site_fract_x
  _atom_site_fract_y
  _atom_site_fract_z
  _atom_site_thermal_displace_type
  _atom_site_B_iso_or_equiv
  _atom_site_type_symbol
  Cu1      1.0000 0.59520  0.56737  0.09681  Biso   1.000  Cu
  Cu2      1.0000 0.90480  0.06737  0.40319  Biso   1.000  Cu
  Cu3      1.0000 0.40480  0.43263  0.90319  Biso   1.000  Cu
  Cu4      1.0000 0.09520  0.93263  0.59681  Biso   1.000  Cu
  N1       1.0000 0.67603  0.76218  0.13177  Biso   1.000  N
  N2       1.0000 0.82397  0.26218  0.36823  Biso   1.000  N
  N3       1.0000 0.32397  0.23782  0.86823  Biso   1.000  N
  N4       1.0000 0.17603  0.73782  0.63177  Biso   1.000  N
  N5       1.0000 0.93645  0.70461  0.27085  Biso   1.000  N
  N6       1.0000 0.56355  0.20461  0.22915  Biso   1.000  N
  N7       1.0000 0.06355  0.29539  0.72915  Biso   1.000  N
  N8       1.0000 0.43645  0.79539  0.77085  Biso   1.000  N
  N9       1.0000 0.13870  0.09100  0.17600  Biso   1.000  N
  N10      1.0000 0.36130  0.59100  0.32400  Biso   1.000  N
  N11      1.0000 0.86130  0.90900  0.82400  Biso   1.000  N
  N12      1.0000 0.63870  0.40900  0.67600  Biso   1.000  N
  N13      1.0000 0.02310  0.20810  0.93880  Biso   1.000  N
  N14      1.0000 0.47690  0.70810  0.56120  Biso   1.000  N
  N15      1.0000 0.97690  0.79190  0.06120  Biso   1.000  N
  N16      1.0000 0.52310  0.29190  0.43880  Biso   1.000  N
  O1       1.0000 0.86945  0.92705  0.30527  Biso   1.000  O
  O2       1.0000 0.63055  0.42705  0.19473  Biso   1.000  O
  O3       1.0000 0.13055  0.07295  0.69473  Biso   1.000  O
  O4       1.0000 0.36945  0.57295  0.80527  Biso   1.000  O
  O5       1.0000 0.51943  0.38165  0.05646  Biso   1.000  O
  O6       1.0000 0.98057  0.88165  0.44354  Biso   1.000  O
  O7       1.0000 0.48057  0.61835  0.94354  Biso   1.000  O
  O8       1.0000 0.01943  0.11835  0.55646  Biso   1.000  O
  H1       1.0000 0.46150  0.38800  0.04620  Biso   1.000  H
  H2       1.0000 0.03850  0.88800  0.45380  Biso   1.000  H
  H3       1.0000 0.53850  0.61200  0.95380  Biso   1.000  H
  H4       1.0000 0.96150  0.11200  0.54620  Biso   1.000  H
  H5       1.0000 0.54500  0.33560  0.03300  Biso   1.000  H
  H6       1.0000 0.95500  0.83560  0.46700  Biso   1.000  H
  H7       1.0000 0.45500  0.66440  0.96700  Biso   1.000  H
  H8       1.0000 0.04500  0.16440  0.53300  Biso   1.000  H
  O9       1.0000 0.70986  0.46448  0.07884  Biso   1.000  O
  O10      1.0000 0.79014  0.96448  0.42116  Biso   1.000  O
  O11      1.0000 0.29014  0.53552  0.92116  Biso   1.000  O
  O12      1.0000 0.20986  0.03552  0.57884  Biso   1.000  O
  O13      1.0000 0.48197  0.66918  0.11424  Biso   1.000  O
  O14      1.0000 0.01803  0.16918  0.38576  Biso   1.000  O
  O15      1.0000 0.51803  0.33082  0.88576  Biso   1.000  O
  O16      1.0000 0.98197  0.83082  0.61424  Biso   1.000  O
  O17      1.0000 0.66797  0.61738  0.99832  Biso   1.000  O
  O18      1.0000 0.83203  0.11738  0.50168  Biso   1.000  O
  O19      1.0000 0.33203  0.38262  0.00168  Biso   1.000  O
  O20      1.0000 0.16797  0.88262  0.49832  Biso   1.000  O
  O21      1.0000 0.42333  0.78661  0.02742  Biso   1.000  O
  O22      1.0000 0.07667  0.28661  0.47258  Biso   1.000  O
  O23      1.0000 0.57667  0.21339  0.97258  Biso   1.000  O
  O24      1.0000 0.92333  0.71339  0.52742  Biso   1.000  O
  O25      1.0000 0.00660  0.19440  0.88550  Biso   1.000  O
  O26      1.0000 0.49340  0.69440  0.61450  Biso   1.000  O
  O27      1.0000 0.99340  0.80560  0.11450  Biso   1.000  O
  O28      1.0000 0.50660  0.30560  0.38550  Biso   1.000  O
  O29      1.0000 0.13390  0.05600  0.22460  Biso   1.000  O
  O30      1.0000 0.36610  0.55600  0.27540  Biso   1.000  O
  O31      1.0000 0.86610  0.94400  0.77540  Biso   1.000  O
  O32      1.0000 0.63390  0.44400  0.72460  Biso   1.000  O
  O33      1.0000 0.08764  0.14300  0.97324  Biso   1.000  O
  O34      1.0000 0.41236  0.64300  0.52676  Biso   1.000  O
  O35      1.0000 0.91236  0.85700  0.02676  Biso   1.000  O
  O36      1.0000 0.58764  0.35700  0.47324  Biso   1.000  O
  O37      1.0000 0.09850  0.20700  0.14950  Biso   1.000  O
  O38      1.0000 0.40150  0.70700  0.35050  Biso   1.000  O
  O39      1.0000 0.90150  0.79300  0.85050  Biso   1.000  O
  O40      1.0000 0.59850  0.29300  0.64950  Biso   1.000  O
  C1       1.0000 0.72105  0.51520  0.02908  Biso   1.000  C
  C2       1.0000 0.77895  0.01520  0.47092  Biso   1.000  C
  C3       1.0000 0.27895  0.48480  0.97092  Biso   1.000  C
  C4       1.0000 0.22105  0.98480  0.52908  Biso   1.000  C
  C5       1.0000 0.42206  0.75860  0.07907  Biso   1.000  C
  C6       1.0000 0.07794  0.25860  0.42093  Biso   1.000  C
  C7       1.0000 0.57794  0.24140  0.92093  Biso   1.000  C
  C8       1.0000 0.92206  0.74140  0.57907  Biso   1.000  C
  C9       1.0000 0.74453  0.73730  0.17994  Biso   1.000  C
  C10      1.0000 0.75547  0.23730  0.32006  Biso   1.000  C
  C11      1.0000 0.25547  0.26270  0.82006  Biso   1.000  C
  C12      1.0000 0.24453  0.76270  0.67994  Biso   1.000  C
  H9       1.0000 0.75110  0.63110  0.19630  Biso   1.000  H
  H10      1.0000 0.74890  0.13110  0.30370  Biso   1.000  H
  H11      1.0000 0.24890  0.36890  0.80370  Biso   1.000  H
  H12      1.0000 0.25110  0.86890  0.69630  Biso   1.000  H
  C13      1.0000 0.80433  0.44270  0.00762  Biso   1.000  C
  C14      1.0000 0.69567  0.94270  0.49238  Biso   1.000  C
  C15      1.0000 0.19567  0.55730  0.99238  Biso   1.000  C
  C16      1.0000 0.30433  0.05730  0.50762  Biso   1.000  C
  C17      1.0000 0.34412  0.83610  0.10422  Biso   1.000  C
  C18      1.0000 0.15588  0.33610  0.39578  Biso   1.000  C
  C19      1.0000 0.65588  0.16390  0.89578  Biso   1.000  C
  C20      1.0000 0.84412  0.66390  0.60422  Biso   1.000  C
  C21      1.0000 0.80612  0.86080  0.20676  Biso   1.000  C
  C22      1.0000 0.69388  0.36080  0.29324  Biso   1.000  C
  C23      1.0000 0.19388  0.13920  0.79324  Biso   1.000  C
  C24      1.0000 0.30612  0.63920  0.70676  Biso   1.000  C
  C25      1.0000 0.86924  0.33610  0.04208  Biso   1.000  C
  C26      1.0000 0.63076  0.83610  0.45792  Biso   1.000  C
  C27      1.0000 0.13076  0.66390  0.95792  Biso   1.000  C
  C28      1.0000 0.36924  0.16390  0.54208  Biso   1.000  C
  H13      1.0000 0.86340  0.31280  0.08010  Biso   1.000  H
  H14      1.0000 0.63660  0.81280  0.41990  Biso   1.000  H
  H15      1.0000 0.13660  0.68720  0.91990  Biso   1.000  H
  H16      1.0000 0.36340  0.18720  0.58010  Biso   1.000  H
  C29      1.0000 0.33523  0.79700  0.16039  Biso   1.000  C
  C30      1.0000 0.16477  0.29700  0.33961  Biso   1.000  C
  C31      1.0000 0.66477  0.20300  0.83961  Biso   1.000  C
  C32      1.0000 0.83523  0.70300  0.66039  Biso   1.000  C
  H17      1.0000 0.37670  0.71980  0.18250  Biso   1.000  H
  H18      1.0000 0.12330  0.21980  0.31750  Biso   1.000  H
  H19      1.0000 0.62330  0.28020  0.81750  Biso   1.000  H
  H20      1.0000 0.87670  0.78020  0.68250  Biso   1.000  H
  C33      1.0000 0.79556  0.01730  0.18160  Biso   1.000  C
  C34      1.0000 0.70444  0.51730  0.31840  Biso   1.000  C
  C35      1.0000 0.20444  0.98270  0.81840  Biso   1.000  C
  C36      1.0000 0.29556  0.48270  0.68160  Biso   1.000  C
  H21      1.0000 0.83480  0.10460  0.19870  Biso   1.000  H
  H22      1.0000 0.66520  0.60460  0.30130  Biso   1.000  H
  H23      1.0000 0.16520  0.89540  0.80130  Biso   1.000  H
  H24      1.0000 0.33480  0.39540  0.69870  Biso   1.000  H
  C37      1.0000 0.94231  0.26430  0.02094  Biso   1.000  C
  C38      1.0000 0.55769  0.76430  0.47906  Biso   1.000  C
  C39      1.0000 0.05769  0.73570  0.97906  Biso   1.000  C
  C40      1.0000 0.44231  0.23570  0.52094  Biso   1.000  C
  H25      1.0000 0.98590  0.19260  0.04420  Biso   1.000  H
  H26      1.0000 0.51410  0.69260  0.45580  Biso   1.000  H
  H27      1.0000 0.01410  0.80740  0.95580  Biso   1.000  H
  H28      1.0000 0.48590  0.30740  0.54420  Biso   1.000  H
  C41      1.0000 0.26513  0.87230  0.18364  Biso   1.000  C
  C42      1.0000 0.23487  0.37230  0.31636  Biso   1.000  C
  C43      1.0000 0.73487  0.12770  0.81636  Biso   1.000  C
  C44      1.0000 0.76513  0.62770  0.68364  Biso   1.000  C
  H29      1.0000 0.25850  0.84580  0.22120  Biso   1.000  H
  H30      1.0000 0.24150  0.34580  0.27880  Biso   1.000  H
  H31      1.0000 0.74150  0.15420  0.77880  Biso   1.000  H
  H32      1.0000 0.75850  0.65420  0.72120  Biso   1.000  H
  C45      1.0000 0.72661  0.04360  0.13110  Biso   1.000  C
  C46      1.0000 0.77339  0.54360  0.36890  Biso   1.000  C
  C47      1.0000 0.27339  0.95640  0.86890  Biso   1.000  C
  C48      1.0000 0.22661  0.45640  0.63110  Biso   1.000  C
  H33      1.0000 0.71970  0.14800  0.11340  Biso   1.000  H
  H34      1.0000 0.78030  0.64800  0.38660  Biso   1.000  H
  H35      1.0000 0.28030  0.85200  0.88660  Biso   1.000  H
  H36      1.0000 0.21970  0.35200  0.61340  Biso   1.000  H
  C49      1.0000 0.94959  0.30010  0.96518  Biso   1.000  C
  C50      1.0000 0.55041  0.80010  0.53482  Biso   1.000  C
  C51      1.0000 0.05041  0.69990  0.03482  Biso   1.000  C
  C52      1.0000 0.44959  0.19990  0.46518  Biso   1.000  C
  C53      1.0000 0.20524  0.98670  0.15055  Biso   1.000  C
  C54      1.0000 0.29476  0.48670  0.34945  Biso   1.000  C
  C55      1.0000 0.79476  0.01330  0.84945  Biso   1.000  C
  C56      1.0000 0.70524  0.51330  0.65055  Biso   1.000  C
  C57      1.0000 0.66841  0.91420  0.10737  Biso   1.000  C
  C58      1.0000 0.83159  0.41420  0.39263  Biso   1.000  C
  C59      1.0000 0.33159  0.08580  0.89263  Biso   1.000  C
  C60      1.0000 0.16841  0.58580  0.60737  Biso   1.000  C
  H37      1.0000 0.62210  0.93230  0.07320  Biso   1.000  H
  H38      1.0000 0.87790  0.43230  0.42680  Biso   1.000  H
  H39      1.0000 0.37790  0.06770  0.92680  Biso   1.000  H
  H40      1.0000 0.12210  0.56770  0.57320  Biso   1.000  H
  C61      1.0000 0.88716  0.40670  0.92986  Biso   1.000  C
  C62      1.0000 0.61284  0.90670  0.57014  Biso   1.000  C
  C63      1.0000 0.11284  0.59330  0.07014  Biso   1.000  C
  C64      1.0000 0.38716  0.09330  0.42986  Biso   1.000  C
  H41      1.0000 0.89370  0.42970  0.89200  Biso   1.000  H
  H42      1.0000 0.60630  0.92970  0.60800  Biso   1.000  H
  H43      1.0000 0.10630  0.57030  0.10800  Biso   1.000  H
  H44      1.0000 0.39370  0.07030  0.39200  Biso   1.000  H
  C65      1.0000 0.21132  0.02620  0.09488  Biso   1.000  C
  C66      1.0000 0.28868  0.52620  0.40512  Biso   1.000  C
  C67      1.0000 0.78868  0.97380  0.90512  Biso   1.000  C
  C68      1.0000 0.71132  0.47380  0.59488  Biso   1.000  C
  H45      1.0000 0.16920  0.10290  0.07300  Biso   1.000  H
  H46      1.0000 0.33080  0.60290  0.42700  Biso   1.000  H
  H47      1.0000 0.83080  0.89710  0.92700  Biso   1.000  H
  H48      1.0000 0.66920  0.39710  0.57300  Biso   1.000  H
  C69      1.0000 0.81478  0.47850  0.95161  Biso   1.000  C
  C70      1.0000 0.68522  0.97850  0.54839  Biso   1.000  C
  C71      1.0000 0.18522  0.52150  0.04839  Biso   1.000  C
  C72      1.0000 0.31478  0.02150  0.45161  Biso   1.000  C
  H49      1.0000 0.77230  0.55210  0.92840  Biso   1.000  H
  H50      1.0000 0.72770  0.05210  0.57160  Biso   1.000  H
  H51      1.0000 0.22770  0.44790  0.07160  Biso   1.000  H
  H52      1.0000 0.27230  0.94790  0.42840  Biso   1.000  H
  C73      1.0000 0.28140  0.94990  0.07181  Biso   1.000  C
  C74      1.0000 0.21860  0.44990  0.42819  Biso   1.000  C
  C75      1.0000 0.71860  0.05010  0.92819  Biso   1.000  C
  C76      1.0000 0.78140  0.55010  0.57181  Biso   1.000  C
  H53      1.0000 0.28650  0.97540  0.03390  Biso   1.000  H
  H54      1.0000 0.21350  0.47540  0.46610  Biso   1.000  H
  H55      1.0000 0.71350  0.02460  0.96610  Biso   1.000  H
  H56      1.0000 0.78650  0.52460  0.53390  Biso   1.000  H
  C77      1.0000 0.87453  0.83300  0.26451  Biso   1.000  C
  C78      1.0000 0.62547  0.33300  0.23549  Biso   1.000  C
  C79      1.0000 0.12547  0.16700  0.73549  Biso   1.000  C
  C80      1.0000 0.37453  0.66700  0.76451  Biso   1.000  C
  C81      1.0000 0.95631  0.60250  0.22280  Biso   1.000  C
  C82      1.0000 0.54369  0.10250  0.27720  Biso   1.000  C
  C83      1.0000 0.04369  0.39750  0.77720  Biso   1.000  C
  C84      1.0000 0.45631  0.89750  0.72280  Biso   1.000  C
  H57      1.0000 0.02480  0.60490  0.22420  Biso   1.000  H
  H58      1.0000 0.47520  0.10490  0.27580  Biso   1.000  H
  H59      1.0000 0.97520  0.39510  0.77580  Biso   1.000  H
  H60      1.0000 0.52480  0.89510  0.72420  Biso   1.000  H
  H61      1.0000 0.92360  0.65080  0.18580  Biso   1.000  H
  H62      1.0000 0.57640  0.15080  0.31420  Biso   1.000  H
  H63      1.0000 0.07640  0.34920  0.81420  Biso   1.000  H
  H64      1.0000 0.42360  0.84920  0.68580  Biso   1.000  H
  C85      1.0000 0.00177  0.68180  0.32787  Biso   1.000  C
  C86      1.0000 0.49823  0.18180  0.17213  Biso   1.000  C
  C87      1.0000 0.99823  0.31820  0.67213  Biso   1.000  C
  C88      1.0000 0.50177  0.81820  0.82787  Biso   1.000  C
  H65      1.0000 0.02090  0.56550  0.33230  Biso   1.000  H
  H66      1.0000 0.47910  0.06550  0.16770  Biso   1.000  H
  H67      1.0000 0.97910  0.43450  0.66770  Biso   1.000  H
  H68      1.0000 0.52090  0.93450  0.83230  Biso   1.000  H
  H69      1.0000 0.96780  0.70820  0.35840  Biso   1.000  H
  H70      1.0000 0.53220  0.20820  0.14160  Biso   1.000  H
  H71      1.0000 0.03220  0.29180  0.64160  Biso   1.000  H
  H72      1.0000 0.46780  0.79180  0.85840  Biso   1.000  H
  C89      1.0000 0.92460  0.42300  0.22530  Biso   1.000  C
  C90      1.0000 0.57540  0.92300  0.27470  Biso   1.000  C
  C91      1.0000 0.07540  0.57700  0.77470  Biso   1.000  C
  C92      1.0000 0.42460  0.07700  0.72530  Biso   1.000  C
  H73      1.0000 0.95190  0.37740  0.26320  Biso   1.000  H
  H74      1.0000 0.54810  0.87740  0.23680  Biso   1.000  H
  H75      1.0000 0.04810  0.62260  0.73680  Biso   1.000  H
  H76      1.0000 0.45190  0.12260  0.76320  Biso   1.000  H
  H77      1.0000 0.94600  0.35920  0.19580  Biso   1.000  H
  H78      1.0000 0.55400  0.85920  0.30420  Biso   1.000  H
  H79      1.0000 0.05400  0.64080  0.80420  Biso   1.000  H
  H80      1.0000 0.44600  0.14080  0.69580  Biso   1.000  H
  H81      1.0000 0.85570  0.41840  0.21840  Biso   1.000  H
  H82      1.0000 0.64430  0.91840  0.28160  Biso   1.000  H
  H83      1.0000 0.14430  0.58160  0.78160  Biso   1.000  H
  H84      1.0000 0.35570  0.08160  0.71840  Biso   1.000  H
  C93      1.0000 0.09017  0.78810  0.33587  Biso   1.000  C
  C94      1.0000 0.40983  0.28810  0.16413  Biso   1.000  C
  C95      1.0000 0.90983  0.21190  0.66413  Biso   1.000  C
  C96      1.0000 0.59017  0.71190  0.83587  Biso   1.000  C
  H85      1.0000 0.12420  0.76270  0.30580  Biso   1.000  H
  H86      1.0000 0.37580  0.26270  0.19420  Biso   1.000  H
  H87      1.0000 0.87580  0.23730  0.69420  Biso   1.000  H
  H88      1.0000 0.62420  0.73730  0.80580  Biso   1.000  H
  H89      1.0000 0.13090  0.76620  0.37350  Biso   1.000  H
  H90      1.0000 0.36910  0.26620  0.12650  Biso   1.000  H
  H91      1.0000 0.86910  0.23380  0.62650  Biso   1.000  H
  H92      1.0000 0.63090  0.73380  0.87350  Biso   1.000  H
  H93      1.0000 0.07200  0.90370  0.33340  Biso   1.000  H
  H94      1.0000 0.42800  0.40370  0.16660  Biso   1.000  H
  H95      1.0000 0.92800  0.09630  0.66660  Biso   1.000  H
  H96      1.0000 0.57200  0.59630  0.83340  Biso   1.000  H
  N17      1.0000 0.02930  0.23600  0.94650  Biso   1.000  N
  N18      1.0000 0.47070  0.73600  0.55350  Biso   1.000  N
  N19      1.0000 0.97070  0.76400  0.05350  Biso   1.000  N
  N20      1.0000 0.52930  0.26400  0.44650  Biso   1.000  N
  N21      1.0000 0.11840  0.03900  0.17520  Biso   1.000  N
  N22      1.0000 0.38160  0.53900  0.32480  Biso   1.000  N
  N23      1.0000 0.88160  0.96100  0.82480  Biso   1.000  N
  N24      1.0000 0.61840  0.46100  0.67520  Biso   1.000  N
  O41      1.0000 0.05150  0.29000  0.90270  Biso   1.000  O
  O42      1.0000 0.44850  0.79000  0.59730  Biso   1.000  O
  O43      1.0000 0.94850  0.71000  0.09730  Biso   1.000  O
  O44      1.0000 0.55150  0.21000  0.40270  Biso   1.000  O
  O45      1.0000 0.10580  0.99100  0.22070  Biso   1.000  O
  O46      1.0000 0.39420  0.49100  0.27930  Biso   1.000  O
  O47      1.0000 0.89420  0.00900  0.77930  Biso   1.000  O
  O48      1.0000 0.60580  0.50900  0.72070  Biso   1.000  O
  O49      1.0000 0.06300  0.13400  0.14590  Biso   1.000  O
  O50      1.0000 0.43700  0.63400  0.35410  Biso   1.000  O
  O51      1.0000 0.93700  0.86600  0.85410  Biso   1.000  O
  O52      1.0000 0.56300  0.36600  0.64590  Biso   1.000  O
