data_image0
_cell_length_a       9.3053
_cell_length_b       10.1542
_cell_length_c       12.885
_cell_angle_alpha    69.735
_cell_angle_beta     75.696
_cell_angle_gamma    67.129

_symmetry_space_group_name_H-M    "P 1"
_symmetry_int_tables_number       1

loop_
  _symmetry_equiv_pos_as_xyz
  'x, y, z'

loop_
  _atom_site_label
  _atom_site_occupancy
  _atom_site_fract_x
  _atom_site_fract_y
  _atom_site_fract_z
  _atom_site_thermal_displace_type
  _atom_site_B_iso_or_equiv
  _atom_site_type_symbol
  Cu1      1.0000 0.53959  0.56425  0.59548  Biso   1.000  Cu
  Cu2      1.0000 0.46041  0.43575  0.40452  Biso   1.000  Cu
  N1       1.0000 0.65080  0.69290  0.47258  Biso   1.000  N
  N2       1.0000 0.34920  0.30710  0.52742  Biso   1.000  N
  C1       1.0000 0.79660  0.62880  0.42572  Biso   1.000  C
  C2       1.0000 0.20340  0.37120  0.57428  Biso   1.000  C
  H1       1.0000 0.84170  0.52450  0.44910  Biso   1.000  H
  H2       1.0000 0.15830  0.47550  0.55090  Biso   1.000  H
  C3       1.0000 0.88260  0.70860  0.34551  Biso   1.000  C
  C4       1.0000 0.11740  0.29140  0.65449  Biso   1.000  C
  H3       1.0000 0.98340  0.65930  0.31390  Biso   1.000  H
  H4       1.0000 0.01660  0.34070  0.68610  Biso   1.000  H
  C5       1.0000 0.81940  0.86270  0.31144  Biso   1.000  C
  C6       1.0000 0.18060  0.13730  0.68856  Biso   1.000  C
  C7       1.0000 0.66910  0.93040  0.35914  Biso   1.000  C
  C8       1.0000 0.33090  0.06960  0.64086  Biso   1.000  C
  H5       1.0000 0.62260  0.03460  0.33800  Biso   1.000  H
  H6       1.0000 0.37740  0.96540  0.66200  Biso   1.000  H
  C9       1.0000 0.58870  0.84230  0.43801  Biso   1.000  C
  C10      1.0000 0.41130  0.15770  0.56199  Biso   1.000  C
  H7       1.0000 0.48620  0.88880  0.46890  Biso   1.000  H
  H8       1.0000 0.51380  0.11120  0.53110  Biso   1.000  H
  O1       1.0000 0.01910  0.88670  0.15933  Biso   1.000  O
  O2       1.0000 0.98090  0.11330  0.84067  Biso   1.000  O
  C11      1.0000 0.91770  0.94800  0.22480  Biso   1.000  C
  C12      1.0000 0.08230  0.05200  0.77520  Biso   1.000  C
  N3       1.0000 0.88860  0.08540  0.22547  Biso   1.000  N
  N4       1.0000 0.11140  0.91460  0.77453  Biso   1.000  N
  H9       1.0000 0.93900  0.14200  0.18000  Biso   1.000  H
  H10      1.0000 0.06100  0.85800  0.82000  Biso   1.000  H
  H11      1.0000 0.82800  0.11700  0.28000  Biso   1.000  H
  H12      1.0000 0.17200  0.88300  0.72000  Biso   1.000  H
  N5       1.0000 0.42780  0.44430  0.72652  Biso   1.000  N
  N6       1.0000 0.57220  0.55570  0.27348  Biso   1.000  N
  C13      1.0000 0.29550  0.50990  0.78559  Biso   1.000  C
  C14      1.0000 0.70450  0.49010  0.21441  Biso   1.000  C
  H13      1.0000 0.25490  0.61450  0.76570  Biso   1.000  H
  H14      1.0000 0.74510  0.38550  0.23430  Biso   1.000  H
  C15      1.0000 0.21600  0.43140  0.87415  Biso   1.000  C
  C16      1.0000 0.78400  0.56860  0.12585  Biso   1.000  C
  H15      1.0000 0.12380  0.48190  0.91390  Biso   1.000  H
  H16      1.0000 0.87620  0.51810  0.08610  Biso   1.000  H
  C17      1.0000 0.27370  0.27640  0.90416  Biso   1.000  C
  C18      1.0000 0.72630  0.72360  0.09584  Biso   1.000  C
  C19      1.0000 0.41190  0.20780  0.84446  Biso   1.000  C
  C20      1.0000 0.58810  0.79220  0.15554  Biso   1.000  C
  H17      1.0000 0.45500  0.10340  0.86280  Biso   1.000  H
  H18      1.0000 0.54500  0.89660  0.13720  Biso   1.000  H
  C21      1.0000 0.48560  0.29460  0.75766  Biso   1.000  C
  C22      1.0000 0.51440  0.70540  0.24234  Biso   1.000  C
  H19      1.0000 0.58040  0.24700  0.71860  Biso   1.000  H
  H20      1.0000 0.41960  0.75300  0.28140  Biso   1.000  H
  O3       1.0000 0.06910  0.26070  0.05578  Biso   1.000  O
  O4       1.0000 0.93090  0.73930  0.94422  Biso   1.000  O
  C23      1.0000 0.18150  0.19240  0.99837  Biso   1.000  C
  C24      1.0000 0.81850  0.80760  0.00163  Biso   1.000  C
  N7       1.0000 0.22660  0.04720  0.01500  Biso   1.000  N
  N8       1.0000 0.77340  0.95280  0.98500  Biso   1.000  N
  H21      1.0000 0.17400  0.00100  0.05700  Biso   1.000  H
  H22      1.0000 0.82600  0.99900  0.94300  Biso   1.000  H
  H23      1.0000 0.28500  0.00600  0.96800  Biso   1.000  H
  H24      1.0000 0.71500  0.99400  0.03200  Biso   1.000  H
  O5       1.0000 0.36829  0.62515  0.50434  Biso   1.000  O
  O6       1.0000 0.63171  0.37485  0.49566  Biso   1.000  O
  C25      1.0000 0.25760  0.74430  0.51719  Biso   1.000  C
  C26      1.0000 0.74240  0.25570  0.48281  Biso   1.000  C
  O7       1.0000 0.26040  0.81160  0.57972  Biso   1.000  O
  O8       1.0000 0.73960  0.18840  0.42028  Biso   1.000  O
  C27      1.0000 0.12260  0.80160  0.45200  Biso   1.000  C
  C28      1.0000 0.87740  0.19840  0.54800  Biso   1.000  C
  H25      1.0000 0.04710  0.89170  0.46890  Biso   1.000  H
  H26      1.0000 0.95290  0.10830  0.53110  Biso   1.000  H
  H27      1.0000 0.07240  0.72700  0.47190  Biso   1.000  H
  H28      1.0000 0.92760  0.27300  0.52810  Biso   1.000  H
  H29      1.0000 0.16090  0.82350  0.37280  Biso   1.000  H
  H30      1.0000 0.83910  0.17650  0.62720  Biso   1.000  H
  O9       1.0000 0.71430  0.49748  0.68134  Biso   1.000  O
  O10      1.0000 0.28570  0.50252  0.31866  Biso   1.000  O
  C29      1.0000 0.68380  0.58540  0.74050  Biso   1.000  C
  C30      1.0000 0.31620  0.41460  0.25950  Biso   1.000  C
  O11      1.0000 0.56130  0.69460  0.73859  Biso   1.000  O
  O12      1.0000 0.43870  0.30540  0.26141  Biso   1.000  O
  C31      1.0000 0.80540  0.55030  0.81370  Biso   1.000  C
  C32      1.0000 0.19460  0.44970  0.18630  Biso   1.000  C
  H31      1.0000 0.77040  0.62390  0.85460  Biso   1.000  H
  H32      1.0000 0.22960  0.37610  0.14540  Biso   1.000  H
  H33      1.0000 0.90460  0.55240  0.76760  Biso   1.000  H
  H34      1.0000 0.09540  0.44760  0.23240  Biso   1.000  H
  H35      1.0000 0.81920  0.45220  0.86590  Biso   1.000  H
  H36      1.0000 0.18080  0.54780  0.13410  Biso   1.000  H
  O13      1.0000 0.44590  0.82050  0.91321  Biso   1.000  O
  O14      1.0000 0.55410  0.17950  0.08679  Biso   1.000  O
  H37      1.0000 0.49350  0.79360  0.85650  Biso   1.000  H
  H38      1.0000 0.50650  0.20640  0.14350  Biso   1.000  H
  C33      1.0000 0.38040  0.71180  0.98800  Biso   1.000  C
  C34      1.0000 0.61960  0.28820  0.01200  Biso   1.000  C
  H39      1.0000 0.33530  0.67730  0.94640  Biso   1.000  H
  H40      1.0000 0.66470  0.32270  0.05360  Biso   1.000  H
  H41      1.0000 0.29900  0.75530  0.04170  Biso   1.000  H
  H42      1.0000 0.70100  0.24470  0.95830  Biso   1.000  H
  H43      1.0000 0.46230  0.62850  0.02680  Biso   1.000  H
  H44      1.0000 0.53770  0.37150  0.97320  Biso   1.000  H
  C35      1.0000 0.79700  0.87700  0.64250  Biso   1.000  C
  C36      1.0000 0.20300  0.12300  0.35750  Biso   1.000  C
  H45      1.0000 0.82350  0.76980  0.67210  Biso   1.000  H
  H46      1.0000 0.17650  0.23020  0.32790  Biso   1.000  H
  H47      1.0000 0.89260  0.90130  0.61000  Biso   1.000  H
  H48      1.0000 0.10740  0.09870  0.39000  Biso   1.000  H
  H49      1.0000 0.72840  0.91360  0.58570  Biso   1.000  H
  H50      1.0000 0.27160  0.08640  0.41430  Biso   1.000  H
  O15      1.0000 0.72820  0.93690  0.72000  Biso   1.000  O
  O16      1.0000 0.27180  0.06310  0.28000  Biso   1.000  O
  H51      1.0000 0.64020  0.99640  0.70460  Biso   1.000  H
  H52      1.0000 0.35980  0.00360  0.29540  Biso   1.000  H
