data_image0
_cell_length_a       16.475
_cell_length_b       10.371
_cell_length_c       17.438
_cell_angle_alpha    90
_cell_angle_beta     94.81
_cell_angle_gamma    90

_symmetry_space_group_name_H-M    "P 1"
_symmetry_int_tables_number       1

loop_
  _symmetry_equiv_pos_as_xyz
  'x, y, z'

loop_
  _atom_site_label
  _atom_site_occupancy
  _atom_site_fract_x
  _atom_site_fract_y
  _atom_site_fract_z
  _atom_site_thermal_displace_type
  _atom_site_B_iso_or_equiv
  _atom_site_type_symbol
  Mo1      1.0000 0.90106  0.61285  0.13603  Biso   1.000  Mo
  Mo2      1.0000 0.40106  0.11285  0.13603  Biso   1.000  Mo
  Mo3      1.0000 0.90106  0.38715  0.63603  Biso   1.000  Mo
  Mo4      1.0000 0.40106  0.88715  0.63603  Biso   1.000  Mo
  Mo5      1.0000 0.09894  0.38715  0.86397  Biso   1.000  Mo
  Mo6      1.0000 0.59894  0.88715  0.86397  Biso   1.000  Mo
  Mo7      1.0000 0.09894  0.61285  0.36397  Biso   1.000  Mo
  Mo8      1.0000 0.59894  0.11285  0.36397  Biso   1.000  Mo
  Mo9      1.0000 0.55461  0.93191  0.07175  Biso   1.000  Mo
  Mo10     1.0000 0.05461  0.43191  0.07175  Biso   1.000  Mo
  Mo11     1.0000 0.55461  0.06809  0.57175  Biso   1.000  Mo
  Mo12     1.0000 0.05461  0.56809  0.57175  Biso   1.000  Mo
  Mo13     1.0000 0.44539  0.06809  0.92825  Biso   1.000  Mo
  Mo14     1.0000 0.94539  0.56809  0.92825  Biso   1.000  Mo
  Mo15     1.0000 0.44539  0.93191  0.42825  Biso   1.000  Mo
  Mo16     1.0000 0.94539  0.43191  0.42825  Biso   1.000  Mo
  Cu1      1.0000 0.75000  0.75000  0.00000  Biso   1.000  Cu
  Cu2      1.0000 0.25000  0.25000  0.00000  Biso   1.000  Cu
  Cu3      1.0000 0.75000  0.25000  0.50000  Biso   1.000  Cu
  Cu4      1.0000 0.25000  0.75000  0.50000  Biso   1.000  Cu
  Cu5      1.0000 0.50000  0.32436  0.25000  Biso   1.000  Cu
  Cu6      1.0000 0.00000  0.82436  0.25000  Biso   1.000  Cu
  Cu7      1.0000 0.50000  0.67564  0.75000  Biso   1.000  Cu
  Cu8      1.0000 0.00000  0.17564  0.75000  Biso   1.000  Cu
  O1       1.0000 0.83230  0.71540  0.08380  Biso   1.000  O
  O2       1.0000 0.33230  0.21540  0.08380  Biso   1.000  O
  O3       1.0000 0.83230  0.28460  0.58380  Biso   1.000  O
  O4       1.0000 0.33230  0.78460  0.58380  Biso   1.000  O
  O5       1.0000 0.16770  0.28460  0.91620  Biso   1.000  O
  O6       1.0000 0.66770  0.78460  0.91620  Biso   1.000  O
  O7       1.0000 0.16770  0.71540  0.41620  Biso   1.000  O
  O8       1.0000 0.66770  0.21540  0.41620  Biso   1.000  O
  O9       1.0000 0.84470  0.48350  0.15620  Biso   1.000  O
  O10      1.0000 0.34470  0.98350  0.15620  Biso   1.000  O
  O11      1.0000 0.84470  0.51650  0.65620  Biso   1.000  O
  O12      1.0000 0.34470  0.01650  0.65620  Biso   1.000  O
  O13      1.0000 0.15530  0.51650  0.84380  Biso   1.000  O
  O14      1.0000 0.65530  0.01650  0.84380  Biso   1.000  O
  O15      1.0000 0.15530  0.48350  0.34380  Biso   1.000  O
  O16      1.0000 0.65530  0.98350  0.34380  Biso   1.000  O
  O17      1.0000 0.65280  0.88560  0.09580  Biso   1.000  O
  O18      1.0000 0.15280  0.38560  0.09580  Biso   1.000  O
  O19      1.0000 0.65280  0.11440  0.59580  Biso   1.000  O
  O20      1.0000 0.15280  0.61440  0.59580  Biso   1.000  O
  O21      1.0000 0.34720  0.11440  0.90420  Biso   1.000  O
  O22      1.0000 0.84720  0.61440  0.90420  Biso   1.000  O
  O23      1.0000 0.34720  0.88560  0.40420  Biso   1.000  O
  O24      1.0000 0.84720  0.38560  0.40420  Biso   1.000  O
  O25      1.0000 0.60480  0.13760  0.07180  Biso   1.000  O
  O26      1.0000 0.10480  0.63760  0.07180  Biso   1.000  O
  O27      1.0000 0.60480  0.86240  0.57180  Biso   1.000  O
  O28      1.0000 0.10480  0.36240  0.57180  Biso   1.000  O
  O29      1.0000 0.39520  0.86240  0.92820  Biso   1.000  O
  O30      1.0000 0.89520  0.36240  0.92820  Biso   1.000  O
  O31      1.0000 0.39520  0.13760  0.42820  Biso   1.000  O
  O32      1.0000 0.89520  0.63760  0.42820  Biso   1.000  O
  O33      1.0000 0.50280  0.25910  0.11080  Biso   1.000  O
  O34      1.0000 0.00280  0.75910  0.11080  Biso   1.000  O
  O35      1.0000 0.50280  0.74090  0.61080  Biso   1.000  O
  O36      1.0000 0.00280  0.24090  0.61080  Biso   1.000  O
  O37      1.0000 0.49720  0.74090  0.88920  Biso   1.000  O
  O38      1.0000 0.99720  0.24090  0.88920  Biso   1.000  O
  O39      1.0000 0.49720  0.25910  0.38920  Biso   1.000  O
  O40      1.0000 0.99720  0.75910  0.38920  Biso   1.000  O
  O41      1.0000 0.50230  0.79220  0.07580  Biso   1.000  O
  O42      1.0000 0.00230  0.29220  0.07580  Biso   1.000  O
  O43      1.0000 0.50230  0.20780  0.57580  Biso   1.000  O
  O44      1.0000 0.00230  0.70780  0.57580  Biso   1.000  O
  O45      1.0000 0.49770  0.20780  0.92420  Biso   1.000  O
  O46      1.0000 0.99770  0.70780  0.92420  Biso   1.000  O
  O47      1.0000 0.49770  0.79220  0.42420  Biso   1.000  O
  O48      1.0000 0.99770  0.29220  0.42420  Biso   1.000  O
  O49      1.0000 0.91820  0.69060  0.22880  Biso   1.000  O
  O50      1.0000 0.41820  0.19060  0.22880  Biso   1.000  O
  O51      1.0000 0.91820  0.30940  0.72880  Biso   1.000  O
  O52      1.0000 0.41820  0.80940  0.72880  Biso   1.000  O
  O53      1.0000 0.08180  0.30940  0.77120  Biso   1.000  O
  O54      1.0000 0.58180  0.80940  0.77120  Biso   1.000  O
  O55      1.0000 0.08180  0.69060  0.27120  Biso   1.000  O
  O56      1.0000 0.58180  0.19060  0.27120  Biso   1.000  O
  O57      1.0000 0.01550  0.50280  0.16960  Biso   1.000  O
  O58      1.0000 0.51550  0.00280  0.16960  Biso   1.000  O
  O59      1.0000 0.01550  0.49720  0.66960  Biso   1.000  O
  O60      1.0000 0.51550  0.99720  0.66960  Biso   1.000  O
  O61      1.0000 0.98450  0.49720  0.83040  Biso   1.000  O
  O62      1.0000 0.48450  0.99720  0.83040  Biso   1.000  O
  O63      1.0000 0.98450  0.50280  0.33040  Biso   1.000  O
  O64      1.0000 0.48450  0.00280  0.33040  Biso   1.000  O
  O65      1.0000 0.94400  0.54410  0.03680  Biso   1.000  O
  O66      1.0000 0.44400  0.04410  0.03680  Biso   1.000  O
  O67      1.0000 0.94400  0.45590  0.53680  Biso   1.000  O
  O68      1.0000 0.44400  0.95590  0.53680  Biso   1.000  O
  O69      1.0000 0.05600  0.45590  0.96320  Biso   1.000  O
  O70      1.0000 0.55600  0.95590  0.96320  Biso   1.000  O
  O71      1.0000 0.05600  0.54410  0.46320  Biso   1.000  O
  O72      1.0000 0.55600  0.04410  0.46320  Biso   1.000  O
  N1       1.0000 0.69500  0.58420  0.02000  Biso   1.000  N
  N2       1.0000 0.19500  0.08420  0.02000  Biso   1.000  N
  N3       1.0000 0.69500  0.41580  0.52000  Biso   1.000  N
  N4       1.0000 0.19500  0.91580  0.52000  Biso   1.000  N
  N5       1.0000 0.30500  0.41580  0.98000  Biso   1.000  N
  N6       1.0000 0.80500  0.91580  0.98000  Biso   1.000  N
  N7       1.0000 0.30500  0.58420  0.48000  Biso   1.000  N
  N8       1.0000 0.80500  0.08420  0.48000  Biso   1.000  N
  N9       1.0000 0.42150  0.47100  0.23060  Biso   1.000  N
  N10      1.0000 0.92150  0.97100  0.23060  Biso   1.000  N
  N11      1.0000 0.42150  0.52900  0.73060  Biso   1.000  N
  N12      1.0000 0.92150  0.02900  0.73060  Biso   1.000  N
  N13      1.0000 0.57850  0.52900  0.76940  Biso   1.000  N
  N14      1.0000 0.07850  0.02900  0.76940  Biso   1.000  N
  N15      1.0000 0.57850  0.47100  0.26940  Biso   1.000  N
  N16      1.0000 0.07850  0.97100  0.26940  Biso   1.000  N
  C1       1.0000 0.62620  0.58550  0.05100  Biso   1.000  C
  C2       1.0000 0.12620  0.08550  0.05100  Biso   1.000  C
  C3       1.0000 0.62620  0.41450  0.55100  Biso   1.000  C
  C4       1.0000 0.12620  0.91450  0.55100  Biso   1.000  C
  C5       1.0000 0.37380  0.41450  0.94900  Biso   1.000  C
  C6       1.0000 0.87380  0.91450  0.94900  Biso   1.000  C
  C7       1.0000 0.37380  0.58550  0.44900  Biso   1.000  C
  C8       1.0000 0.87380  0.08550  0.44900  Biso   1.000  C
  H1       1.0000 0.60270  0.66540  0.05890  Biso   1.000  H
  H2       1.0000 0.10270  0.16540  0.05890  Biso   1.000  H
  H3       1.0000 0.60270  0.33460  0.55890  Biso   1.000  H
  H4       1.0000 0.10270  0.83460  0.55890  Biso   1.000  H
  H5       1.0000 0.39730  0.33460  0.94110  Biso   1.000  H
  H6       1.0000 0.89730  0.83460  0.94110  Biso   1.000  H
  H7       1.0000 0.39730  0.66540  0.44110  Biso   1.000  H
  H8       1.0000 0.89730  0.16540  0.44110  Biso   1.000  H
  C9       1.0000 0.58510  0.47820  0.07300  Biso   1.000  C
  C10      1.0000 0.08510  0.97820  0.07300  Biso   1.000  C
  C11      1.0000 0.58510  0.52180  0.57300  Biso   1.000  C
  C12      1.0000 0.08510  0.02180  0.57300  Biso   1.000  C
  C13      1.0000 0.41490  0.52180  0.92700  Biso   1.000  C
  C14      1.0000 0.91490  0.02180  0.92700  Biso   1.000  C
  C15      1.0000 0.41490  0.47820  0.42700  Biso   1.000  C
  C16      1.0000 0.91490  0.97820  0.42700  Biso   1.000  C
  H9       1.0000 0.53770  0.48760  0.09800  Biso   1.000  H
  H10      1.0000 0.03770  0.98760  0.09800  Biso   1.000  H
  H11      1.0000 0.53770  0.51240  0.59800  Biso   1.000  H
  H12      1.0000 0.03770  0.01240  0.59800  Biso   1.000  H
  H13      1.0000 0.46230  0.51240  0.90200  Biso   1.000  H
  H14      1.0000 0.96230  0.01240  0.90200  Biso   1.000  H
  H15      1.0000 0.46230  0.48760  0.40200  Biso   1.000  H
  H16      1.0000 0.96230  0.98760  0.40200  Biso   1.000  H
  C17      1.0000 0.61220  0.36370  0.05890  Biso   1.000  C
  C18      1.0000 0.11220  0.86370  0.05890  Biso   1.000  C
  C19      1.0000 0.61220  0.63630  0.55890  Biso   1.000  C
  C20      1.0000 0.11220  0.13630  0.55890  Biso   1.000  C
  C21      1.0000 0.38780  0.63630  0.94110  Biso   1.000  C
  C22      1.0000 0.88780  0.13630  0.94110  Biso   1.000  C
  C23      1.0000 0.38780  0.36370  0.44110  Biso   1.000  C
  C24      1.0000 0.88780  0.86370  0.44110  Biso   1.000  C
  C25      1.0000 0.68100  0.36030  0.02470  Biso   1.000  C
  C26      1.0000 0.18100  0.86030  0.02470  Biso   1.000  C
  C27      1.0000 0.68100  0.63970  0.52470  Biso   1.000  C
  C28      1.0000 0.18100  0.13970  0.52470  Biso   1.000  C
  C29      1.0000 0.31900  0.63970  0.97530  Biso   1.000  C
  C30      1.0000 0.81900  0.13970  0.97530  Biso   1.000  C
  C31      1.0000 0.31900  0.36030  0.47530  Biso   1.000  C
  C32      1.0000 0.81900  0.86030  0.47530  Biso   1.000  C
  H17      1.0000 0.70090  0.28040  0.01080  Biso   1.000  H
  H18      1.0000 0.20090  0.78040  0.01080  Biso   1.000  H
  H19      1.0000 0.70090  0.71960  0.51080  Biso   1.000  H
  H20      1.0000 0.20090  0.21960  0.51080  Biso   1.000  H
  H21      1.0000 0.29910  0.71960  0.98920  Biso   1.000  H
  H22      1.0000 0.79910  0.21960  0.98920  Biso   1.000  H
  H23      1.0000 0.29910  0.28040  0.48920  Biso   1.000  H
  H24      1.0000 0.79910  0.78040  0.48920  Biso   1.000  H
  C33      1.0000 0.72490  0.46900  0.00880  Biso   1.000  C
  C34      1.0000 0.22490  0.96900  0.00880  Biso   1.000  C
  C35      1.0000 0.72490  0.53100  0.50880  Biso   1.000  C
  C36      1.0000 0.22490  0.03100  0.50880  Biso   1.000  C
  C37      1.0000 0.27510  0.53100  0.99120  Biso   1.000  C
  C38      1.0000 0.77510  0.03100  0.99120  Biso   1.000  C
  C39      1.0000 0.27510  0.46900  0.49120  Biso   1.000  C
  C40      1.0000 0.77510  0.96900  0.49120  Biso   1.000  C
  H25      1.0000 0.77580  0.46070  0.99000  Biso   1.000  H
  H26      1.0000 0.27580  0.96070  0.99000  Biso   1.000  H
  H27      1.0000 0.77580  0.53930  0.49000  Biso   1.000  H
  H28      1.0000 0.27580  0.03930  0.49000  Biso   1.000  H
  H29      1.0000 0.22420  0.53930  0.01000  Biso   1.000  H
  H30      1.0000 0.72420  0.03930  0.01000  Biso   1.000  H
  H31      1.0000 0.22420  0.46070  0.51000  Biso   1.000  H
  H32      1.0000 0.72420  0.96070  0.51000  Biso   1.000  H
  C41      1.0000 0.57040  0.24440  0.08220  Biso   1.000  C
  C42      1.0000 0.07040  0.74440  0.08220  Biso   1.000  C
  C43      1.0000 0.57040  0.75560  0.58220  Biso   1.000  C
  C44      1.0000 0.07040  0.25560  0.58220  Biso   1.000  C
  C45      1.0000 0.42960  0.75560  0.91780  Biso   1.000  C
  C46      1.0000 0.92960  0.25560  0.91780  Biso   1.000  C
  C47      1.0000 0.42960  0.24440  0.41780  Biso   1.000  C
  C48      1.0000 0.92960  0.74440  0.41780  Biso   1.000  C
  C49      1.0000 0.34120  0.45800  0.21370  Biso   1.000  C
  C50      1.0000 0.84120  0.95800  0.21370  Biso   1.000  C
  C51      1.0000 0.34120  0.54200  0.71370  Biso   1.000  C
  C52      1.0000 0.84120  0.04200  0.71370  Biso   1.000  C
  C53      1.0000 0.65880  0.54200  0.78630  Biso   1.000  C
  C54      1.0000 0.15880  0.04200  0.78630  Biso   1.000  C
  C55      1.0000 0.65880  0.45800  0.28630  Biso   1.000  C
  C56      1.0000 0.15880  0.95800  0.28630  Biso   1.000  C
  H33      1.0000 0.31820  0.37630  0.20890  Biso   1.000  H
  H34      1.0000 0.81820  0.87630  0.20890  Biso   1.000  H
  H35      1.0000 0.31820  0.62370  0.70890  Biso   1.000  H
  H36      1.0000 0.81820  0.12370  0.70890  Biso   1.000  H
  H37      1.0000 0.68180  0.62370  0.79110  Biso   1.000  H
  H38      1.0000 0.18180  0.12370  0.79110  Biso   1.000  H
  H39      1.0000 0.68180  0.37630  0.29110  Biso   1.000  H
  H40      1.0000 0.18180  0.87630  0.29110  Biso   1.000  H
  C57      1.0000 0.29250  0.56600  0.20330  Biso   1.000  C
  C58      1.0000 0.79250  0.06600  0.20330  Biso   1.000  C
  C59      1.0000 0.29250  0.43400  0.70330  Biso   1.000  C
  C60      1.0000 0.79250  0.93400  0.70330  Biso   1.000  C
  C61      1.0000 0.70750  0.43400  0.79670  Biso   1.000  C
  C62      1.0000 0.20750  0.93400  0.79670  Biso   1.000  C
  C63      1.0000 0.70750  0.56600  0.29670  Biso   1.000  C
  C64      1.0000 0.20750  0.06600  0.29670  Biso   1.000  C
  H41      1.0000 0.23700  0.55730  0.18990  Biso   1.000  H
  H42      1.0000 0.73700  0.05730  0.18990  Biso   1.000  H
  H43      1.0000 0.23700  0.44270  0.68990  Biso   1.000  H
  H44      1.0000 0.73700  0.94270  0.68990  Biso   1.000  H
  H45      1.0000 0.76300  0.44270  0.81010  Biso   1.000  H
  H46      1.0000 0.26300  0.94270  0.81010  Biso   1.000  H
  H47      1.0000 0.76300  0.55730  0.31010  Biso   1.000  H
  H48      1.0000 0.26300  0.05730  0.31010  Biso   1.000  H
  C65      1.0000 0.32660  0.68560  0.21290  Biso   1.000  C
  C66      1.0000 0.82660  0.18560  0.21290  Biso   1.000  C
  C67      1.0000 0.32660  0.31440  0.71290  Biso   1.000  C
  C68      1.0000 0.82660  0.81440  0.71290  Biso   1.000  C
  C69      1.0000 0.67340  0.31440  0.78710  Biso   1.000  C
  C70      1.0000 0.17340  0.81440  0.78710  Biso   1.000  C
  C71      1.0000 0.67340  0.68560  0.28710  Biso   1.000  C
  C72      1.0000 0.17340  0.18560  0.28710  Biso   1.000  C
  H49      1.0000 0.29350  0.75830  0.20770  Biso   1.000  H
  H50      1.0000 0.79350  0.25830  0.20770  Biso   1.000  H
  H51      1.0000 0.29350  0.24170  0.70770  Biso   1.000  H
  H52      1.0000 0.79350  0.74170  0.70770  Biso   1.000  H
  H53      1.0000 0.70650  0.24170  0.79230  Biso   1.000  H
  H54      1.0000 0.20650  0.74170  0.79230  Biso   1.000  H
  H55      1.0000 0.70650  0.75830  0.29230  Biso   1.000  H
  H56      1.0000 0.20650  0.25830  0.29230  Biso   1.000  H
  C73      1.0000 0.40830  0.70000  0.22990  Biso   1.000  C
  C74      1.0000 0.90830  0.20000  0.22990  Biso   1.000  C
  C75      1.0000 0.40830  0.30000  0.72990  Biso   1.000  C
  C76      1.0000 0.90830  0.80000  0.72990  Biso   1.000  C
  C77      1.0000 0.59170  0.30000  0.77010  Biso   1.000  C
  C78      1.0000 0.09170  0.80000  0.77010  Biso   1.000  C
  C79      1.0000 0.59170  0.70000  0.27010  Biso   1.000  C
  C80      1.0000 0.09170  0.20000  0.27010  Biso   1.000  C
  H57      1.0000 0.43180  0.78140  0.23440  Biso   1.000  H
  H58      1.0000 0.93180  0.28140  0.23440  Biso   1.000  H
  H59      1.0000 0.43180  0.21860  0.73440  Biso   1.000  H
  H60      1.0000 0.93180  0.71860  0.73440  Biso   1.000  H
  H61      1.0000 0.56820  0.21860  0.76560  Biso   1.000  H
  H62      1.0000 0.06820  0.71860  0.76560  Biso   1.000  H
  H63      1.0000 0.56820  0.78140  0.26560  Biso   1.000  H
  H64      1.0000 0.06820  0.28140  0.26560  Biso   1.000  H
  C81      1.0000 0.45600  0.58820  0.24060  Biso   1.000  C
  C82      1.0000 0.95600  0.08820  0.24060  Biso   1.000  C
  C83      1.0000 0.45600  0.41180  0.74060  Biso   1.000  C
  C84      1.0000 0.95600  0.91180  0.74060  Biso   1.000  C
  C85      1.0000 0.54400  0.41180  0.75940  Biso   1.000  C
  C86      1.0000 0.04400  0.91180  0.75940  Biso   1.000  C
  C87      1.0000 0.54400  0.58820  0.25940  Biso   1.000  C
  C88      1.0000 0.04400  0.08820  0.25940  Biso   1.000  C
