data_image0
_cell_length_a       10.383
_cell_length_b       10.659
_cell_length_c       11.754
_cell_angle_alpha    83.147
_cell_angle_beta     86.191
_cell_angle_gamma    71.134

_symmetry_space_group_name_H-M    "P 1"
_symmetry_int_tables_number       1

loop_
  _symmetry_equiv_pos_as_xyz
  'x, y, z'

loop_
  _atom_site_label
  _atom_site_occupancy
  _atom_site_fract_x
  _atom_site_fract_y
  _atom_site_fract_z
  _atom_site_thermal_displace_type
  _atom_site_B_iso_or_equiv
  _atom_site_type_symbol
  Cu1      1.0000 0.50000  0.00000  0.50000  Biso   1.000  Cu
  Cu2      1.0000 0.76902  0.77722  0.69783  Biso   1.000  Cu
  Cu3      1.0000 0.23098  0.22278  0.30217  Biso   1.000  Cu
  C1       1.0000 0.57791  0.04808  0.70129  Biso   1.000  C
  C2       1.0000 0.42209  0.95192  0.29871  Biso   1.000  C
  C3       1.0000 0.57869  0.09529  0.81581  Biso   1.000  C
  C4       1.0000 0.42131  0.90471  0.18419  Biso   1.000  C
  C5       1.0000 0.70180  0.08430  0.86308  Biso   1.000  C
  C6       1.0000 0.29820  0.91570  0.13692  Biso   1.000  C
  H1       1.0000 0.78310  0.05140  0.82190  Biso   1.000  H
  H2       1.0000 0.21690  0.94860  0.17810  Biso   1.000  H
  C7       1.0000 0.70300  0.12220  0.97070  Biso   1.000  C
  C8       1.0000 0.29700  0.87780  0.02930  Biso   1.000  C
  H3       1.0000 0.78520  0.11710  0.00120  Biso   1.000  H
  H4       1.0000 0.21480  0.88290  0.99880  Biso   1.000  H
  C9       1.0000 0.58300  0.16800  0.03389  Biso   1.000  C
  C10      1.0000 0.41700  0.83200  0.96611  Biso   1.000  C
  H5       1.0000 0.58500  0.19200  0.10710  Biso   1.000  H
  H6       1.0000 0.41500  0.80800  0.89290  Biso   1.000  H
  C11      1.0000 0.46010  0.17821  0.98864  Biso   1.000  C
  C12      1.0000 0.53990  0.82179  0.01136  Biso   1.000  C
  C13      1.0000 0.45796  0.14417  0.87873  Biso   1.000  C
  C14      1.0000 0.54204  0.85583  0.12127  Biso   1.000  C
  H7       1.0000 0.37520  0.15410  0.84680  Biso   1.000  H
  H8       1.0000 0.62480  0.84590  0.15320  Biso   1.000  H
  C15      1.0000 0.33000  0.22144  0.06009  Biso   1.000  C
  C16      1.0000 0.67000  0.77856  0.93991  Biso   1.000  C
  C17      1.0000 0.47836  0.77703  0.61761  Biso   1.000  C
  C18      1.0000 0.52164  0.22297  0.38239  Biso   1.000  C
  C19      1.0000 0.41202  0.69323  0.69616  Biso   1.000  C
  C20      1.0000 0.58798  0.30677  0.30384  Biso   1.000  C
  C21      1.0000 0.48900  0.56940  0.74662  Biso   1.000  C
  C22      1.0000 0.51100  0.43060  0.25338  Biso   1.000  C
  H9       1.0000 0.58110  0.53550  0.72710  Biso   1.000  H
  H10      1.0000 0.41890  0.46450  0.27290  Biso   1.000  H
  C23      1.0000 0.43010  0.49620  0.82550  Biso   1.000  C
  C24      1.0000 0.56990  0.50380  0.17450  Biso   1.000  C
  H11      1.0000 0.48240  0.41290  0.85820  Biso   1.000  H
  H12      1.0000 0.51760  0.58710  0.14180  Biso   1.000  H
  C25      1.0000 0.29360  0.54620  0.85610  Biso   1.000  C
  C26      1.0000 0.70640  0.45380  0.14390  Biso   1.000  C
  H13      1.0000 0.25410  0.49700  0.90960  Biso   1.000  H
  H14      1.0000 0.74590  0.50300  0.09040  Biso   1.000  H
  C27      1.0000 0.21559  0.67039  0.80667  Biso   1.000  C
  C28      1.0000 0.78441  0.32961  0.19333  Biso   1.000  C
  C29      1.0000 0.27491  0.74222  0.72611  Biso   1.000  C
  C30      1.0000 0.72509  0.25778  0.27389  Biso   1.000  C
  H15      1.0000 0.22210  0.82430  0.69170  Biso   1.000  H
  H16      1.0000 0.77790  0.17570  0.30830  Biso   1.000  H
  C31      1.0000 0.06850  0.73020  0.83842  Biso   1.000  C
  C32      1.0000 0.93150  0.26980  0.16158  Biso   1.000  C
  C33      1.0000 0.90580  0.87930  0.48733  Biso   1.000  C
  C34      1.0000 0.09420  0.12070  0.51267  Biso   1.000  C
  H17      1.0000 0.83080  0.95620  0.48130  Biso   1.000  H
  H18      1.0000 0.16920  0.04380  0.51870  Biso   1.000  H
  C35      1.0000 0.01920  0.87180  0.41320  Biso   1.000  C
  C36      1.0000 0.98080  0.12820  0.58680  Biso   1.000  C
  H19      1.0000 0.01880  0.94300  0.35900  Biso   1.000  H
  H20      1.0000 0.98120  0.05700  0.64100  Biso   1.000  H
  C37      1.0000 0.12960  0.76000  0.42130  Biso   1.000  C
  C38      1.0000 0.87040  0.24000  0.57870  Biso   1.000  C
  H21      1.0000 0.20600  0.75560  0.37390  Biso   1.000  H
  H22      1.0000 0.79400  0.24440  0.62610  Biso   1.000  H
  C39      1.0000 0.12870  0.65110  0.50080  Biso   1.000  C
  C40      1.0000 0.87130  0.34890  0.49920  Biso   1.000  C
  C41      1.0000 0.23630  0.52600  0.51500  Biso   1.000  C
  C42      1.0000 0.76370  0.47400  0.48500  Biso   1.000  C
  H23      1.0000 0.31600  0.51470  0.47050  Biso   1.000  H
  H24      1.0000 0.68400  0.48530  0.52950  Biso   1.000  H
  C43      1.0000 0.22530  0.42520  0.59030  Biso   1.000  C
  C44      1.0000 0.77470  0.57480  0.40970  Biso   1.000  C
  H25      1.0000 0.29640  0.34500  0.59570  Biso   1.000  H
  H26      1.0000 0.70360  0.65500  0.40430  Biso   1.000  H
  C45      1.0000 0.10660  0.43840  0.66270  Biso   1.000  C
  C46      1.0000 0.89340  0.56160  0.33730  Biso   1.000  C
  C47      1.0000 0.08610  0.33820  0.74450  Biso   1.000  C
  C48      1.0000 0.91390  0.66180  0.25550  Biso   1.000  C
  H27      1.0000 0.15200  0.25460  0.75280  Biso   1.000  H
  H28      1.0000 0.84800  0.74540  0.24720  Biso   1.000  H
  C49      1.0000 0.97130  0.36290  0.81100  Biso   1.000  C
  C50      1.0000 0.02870  0.63710  0.18900  Biso   1.000  C
  H29      1.0000 0.95740  0.29630  0.86430  Biso   1.000  H
  H30      1.0000 0.04260  0.70370  0.13570  Biso   1.000  H
  C51      1.0000 0.87300  0.48960  0.79940  Biso   1.000  C
  C52      1.0000 0.12700  0.51040  0.20060  Biso   1.000  C
  H31      1.0000 0.79560  0.50630  0.84710  Biso   1.000  H
  H32      1.0000 0.20440  0.49370  0.15290  Biso   1.000  H
  C53      1.0000 0.00094  0.56070  0.65414  Biso   1.000  C
  C54      1.0000 0.99906  0.43930  0.34586  Biso   1.000  C
  C55      1.0000 0.01068  0.66630  0.57116  Biso   1.000  C
  C56      1.0000 0.98932  0.33370  0.42884  Biso   1.000  C
  N1       1.0000 0.90243  0.77961  0.56575  Biso   1.000  N
  N2       1.0000 0.09757  0.22039  0.43425  Biso   1.000  N
  N3       1.0000 0.88699  0.58602  0.72270  Biso   1.000  N
  N4       1.0000 0.11301  0.41398  0.27730  Biso   1.000  N
  O1       1.0000 0.68897  0.96953  0.66264  Biso   1.000  O
  O2       1.0000 0.31103  0.03047  0.33736  Biso   1.000  O
  O3       1.0000 0.47142  0.08815  0.64570  Biso   1.000  O
  O4       1.0000 0.52858  0.91185  0.35430  Biso   1.000  O
  O5       1.0000 0.34517  0.22533  0.16551  Biso   1.000  O
  O6       1.0000 0.65483  0.77467  0.83449  Biso   1.000  O
  O7       1.0000 0.22068  0.25058  0.01149  Biso   1.000  O
  O8       1.0000 0.77932  0.74942  0.98851  Biso   1.000  O
  O9       1.0000 0.60479  0.73787  0.60173  Biso   1.000  O
  O10      1.0000 0.39521  0.26213  0.39827  Biso   1.000  O
  O11      1.0000 0.40038  0.88687  0.57278  Biso   1.000  O
  O12      1.0000 0.59962  0.11313  0.42722  Biso   1.000  O
  O13      1.0000 0.02655  0.65818  0.92198  Biso   1.000  O
  O14      1.0000 0.97345  0.34182  0.07802  Biso   1.000  O
  H33      1.0000 0.94600  0.69550  0.93750  Biso   1.000  H
  H34      1.0000 0.05400  0.30450  0.06250  Biso   1.000  H
  O15      1.0000 0.99620  0.83169  0.78902  Biso   1.000  O
  O16      1.0000 0.00380  0.16831  0.21098  Biso   1.000  O
