data_image0
_cell_length_a       10.3314
_cell_length_b       10.835
_cell_length_c       11.5826
_cell_angle_alpha    83.104
_cell_angle_beta     84.609
_cell_angle_gamma    66.125

_symmetry_space_group_name_H-M    "P 1"
_symmetry_int_tables_number       1

loop_
  _symmetry_equiv_pos_as_xyz
  'x, y, z'

loop_
  _atom_site_label
  _atom_site_occupancy
  _atom_site_fract_x
  _atom_site_fract_y
  _atom_site_fract_z
  _atom_site_thermal_displace_type
  _atom_site_B_iso_or_equiv
  _atom_site_type_symbol
  Cu1      1.0000 0.00000  0.00000  0.00000  Biso   1.000  Cu
  Cu2      1.0000 0.29923  0.76602  0.19056  Biso   1.000  Cu
  Cu3      1.0000 0.70077  0.23398  0.80944  Biso   1.000  Cu
  O1       1.0000 0.96770  0.08590  0.15042  Biso   1.000  O
  O2       1.0000 0.03230  0.91410  0.84958  Biso   1.000  O
  O3       1.0000 0.19730  0.96169  0.15698  Biso   1.000  O
  O4       1.0000 0.80270  0.03831  0.84302  Biso   1.000  O
  O5       1.0000 0.82790  0.23480  0.67538  Biso   1.000  O
  O6       1.0000 0.17210  0.76520  0.32462  Biso   1.000  O
  O7       1.0000 0.70470  0.26730  0.51775  Biso   1.000  O
  O8       1.0000 0.29530  0.73270  0.48225  Biso   1.000  O
  O9       1.0000 0.07700  0.12383  0.92244  Biso   1.000  O
  O10      1.0000 0.92300  0.87617  0.07756  Biso   1.000  O
  O11      1.0000 0.85890  0.28570  0.91263  Biso   1.000  O
  O12      1.0000 0.14110  0.71430  0.08737  Biso   1.000  O
  O13      1.0000 0.48650  0.18650  0.71520  Biso   1.000  O
  O14      1.0000 0.51350  0.81350  0.28480  Biso   1.000  O
  O15      1.0000 0.44220  0.35710  0.57566  Biso   1.000  O
  O16      1.0000 0.55780  0.64290  0.42434  Biso   1.000  O
  H1       1.0000 0.52780  0.31930  0.56110  Biso   1.000  H
  H2       1.0000 0.47220  0.68070  0.43890  Biso   1.000  H
  N1       1.0000 0.43380  0.57180  0.21120  Biso   1.000  N
  N2       1.0000 0.56620  0.42820  0.78880  Biso   1.000  N
  N3       1.0000 0.43530  0.76610  0.05540  Biso   1.000  N
  N4       1.0000 0.56470  0.23390  0.94460  Biso   1.000  N
  C1       1.0000 0.08100  0.08810  0.31890  Biso   1.000  C
  C2       1.0000 0.91900  0.91190  0.68110  Biso   1.000  C
  C3       1.0000 0.95480  0.14650  0.38380  Biso   1.000  C
  C4       1.0000 0.04520  0.85350  0.61620  Biso   1.000  C
  H3       1.0000 0.86940  0.16360  0.35160  Biso   1.000  H
  H4       1.0000 0.13060  0.83640  0.64840  Biso   1.000  H
  C5       1.0000 0.95410  0.17970  0.49590  Biso   1.000  C
  C6       1.0000 0.04590  0.82030  0.50410  Biso   1.000  C
  C7       1.0000 0.08180  0.15750  0.54170  Biso   1.000  C
  C8       1.0000 0.91820  0.84250  0.45830  Biso   1.000  C
  H5       1.0000 0.08260  0.18000  0.61660  Biso   1.000  H
  H6       1.0000 0.91740  0.82000  0.38340  Biso   1.000  H
  C9       1.0000 0.20770  0.10230  0.47710  Biso   1.000  C
  C10      1.0000 0.79230  0.89770  0.52290  Biso   1.000  C
  H7       1.0000 0.29260  0.08980  0.50780  Biso   1.000  H
  H8       1.0000 0.70740  0.91020  0.49220  Biso   1.000  H
  C11      1.0000 0.20820  0.06540  0.36640  Biso   1.000  C
  C12      1.0000 0.79180  0.93460  0.63360  Biso   1.000  C
  H9       1.0000 0.29350  0.02550  0.32410  Biso   1.000  H
  H10      1.0000 0.70650  0.97450  0.67590  Biso   1.000  H
  C13      1.0000 0.08150  0.04230  0.20180  Biso   1.000  C
  C14      1.0000 0.91850  0.95770  0.79820  Biso   1.000  C
  C15      1.0000 0.81700  0.23200  0.56730  Biso   1.000  C
  C16      1.0000 0.18300  0.76800  0.43270  Biso   1.000  C
  C17      1.0000 0.05110  0.32600  0.80970  Biso   1.000  C
  C18      1.0000 0.94890  0.67400  0.19030  Biso   1.000  C
  C19      1.0000 0.19500  0.27570  0.77850  Biso   1.000  C
  C20      1.0000 0.80500  0.72430  0.22150  Biso   1.000  C
  H11      1.0000 0.25510  0.19240  0.81290  Biso   1.000  H
  H12      1.0000 0.74490  0.80760  0.18710  Biso   1.000  H
  C21      1.0000 0.25010  0.34860  0.69660  Biso   1.000  C
  C22      1.0000 0.74990  0.65140  0.30340  Biso   1.000  C
  C23      1.0000 0.16110  0.47510  0.64790  Biso   1.000  C
  C24      1.0000 0.83890  0.52490  0.35210  Biso   1.000  C
  H13      1.0000 0.19760  0.52500  0.59390  Biso   1.000  H
  H14      1.0000 0.80240  0.47500  0.40610  Biso   1.000  H
  C25      1.0000 0.01810  0.52640  0.68000  Biso   1.000  C
  C26      1.0000 0.98190  0.47360  0.32000  Biso   1.000  C
  H15      1.0000 0.95850  0.61120  0.64790  Biso   1.000  H
  H16      1.0000 0.04150  0.38880  0.35210  Biso   1.000  H
  C27      1.0000 0.96350  0.45250  0.75950  Biso   1.000  C
  C28      1.0000 0.03650  0.54750  0.24050  Biso   1.000  C
  H17      1.0000 0.86700  0.48750  0.77980  Biso   1.000  H
  H18      1.0000 0.13300  0.51250  0.22020  Biso   1.000  H
  C29      1.0000 0.98880  0.24110  0.88830  Biso   1.000  C
  C30      1.0000 0.01120  0.75890  0.11170  Biso   1.000  C
  C31      1.0000 0.40410  0.28810  0.66370  Biso   1.000  C
  C32      1.0000 0.59590  0.71190  0.33630  Biso   1.000  C
  C33      1.0000 0.42050  0.47730  0.29060  Biso   1.000  C
  C34      1.0000 0.57950  0.52270  0.70940  Biso   1.000  C
  H19      1.0000 0.34450  0.50220  0.34520  Biso   1.000  H
  H20      1.0000 0.65550  0.49780  0.65480  Biso   1.000  H
  C35      1.0000 0.51580  0.34390  0.29440  Biso   1.000  C
  C36      1.0000 0.48420  0.65610  0.70560  Biso   1.000  C
  H21      1.0000 0.50280  0.27940  0.34940  Biso   1.000  H
  H22      1.0000 0.49720  0.72060  0.65060  Biso   1.000  H
  C37      1.0000 0.62970  0.30770  0.21610  Biso   1.000  C
  C38      1.0000 0.37030  0.69230  0.78390  Biso   1.000  C
  H23      1.0000 0.69500  0.21810  0.21760  Biso   1.000  H
  H24      1.0000 0.30500  0.78190  0.78240  Biso   1.000  H
  C39      1.0000 0.64740  0.40460  0.13480  Biso   1.000  C
  C40      1.0000 0.35260  0.59540  0.86520  Biso   1.000  C
  H25      1.0000 0.72450  0.38180  0.08130  Biso   1.000  H
  H26      1.0000 0.27550  0.61820  0.91870  Biso   1.000  H
  C41      1.0000 0.54670  0.53720  0.13500  Biso   1.000  C
  C42      1.0000 0.45330  0.46280  0.86500  Biso   1.000  C
  C43      1.0000 0.55200  0.65050  0.05130  Biso   1.000  C
  C44      1.0000 0.44800  0.34950  0.94870  Biso   1.000  C
  C45      1.0000 0.66710  0.64040  0.97550  Biso   1.000  C
  C46      1.0000 0.33290  0.35960  0.02450  Biso   1.000  C
  H27      1.0000 0.74740  0.55980  0.97470  Biso   1.000  H
  H28      1.0000 0.25260  0.44020  0.02530  Biso   1.000  H
  C47      1.0000 0.66020  0.75230  0.90100  Biso   1.000  C
  C48      1.0000 0.33980  0.24770  0.09900  Biso   1.000  C
  H29      1.0000 0.73670  0.74820  0.85000  Biso   1.000  H
  H30      1.0000 0.26330  0.25180  0.15000  Biso   1.000  H
  C49      1.0000 0.53940  0.86980  0.90290  Biso   1.000  C
  C50      1.0000 0.46060  0.13020  0.09710  Biso   1.000  C
  H31      1.0000 0.53290  0.94540  0.85250  Biso   1.000  H
  H32      1.0000 0.46710  0.05460  0.14750  Biso   1.000  H
  C51      1.0000 0.42850  0.87400  0.98010  Biso   1.000  C
  C52      1.0000 0.57150  0.12600  0.01990  Biso   1.000  C
  H33      1.0000 0.34660  0.95320  0.98060  Biso   1.000  H
  H34      1.0000 0.65340  0.04680  0.01940  Biso   1.000  H
