data_image0
_cell_length_a       10.352
_cell_length_b       10.859
_cell_length_c       11.602
_cell_angle_alpha    83.25
_cell_angle_beta     84.71
_cell_angle_gamma    66.19

_symmetry_space_group_name_H-M    "P 1"
_symmetry_int_tables_number       1

loop_
  _symmetry_equiv_pos_as_xyz
  'x, y, z'

loop_
  _atom_site_label
  _atom_site_occupancy
  _atom_site_fract_x
  _atom_site_fract_y
  _atom_site_fract_z
  _atom_site_thermal_displace_type
  _atom_site_B_iso_or_equiv
  _atom_site_type_symbol
  Cu1      1.0000 0.20054  0.23399  0.30935  Biso   1.000  Cu
  Cu2      1.0000 0.79946  0.76601  0.69065  Biso   1.000  Cu
  Cu3      1.0000 0.50000  0.00000  0.50000  Biso   1.000  Cu
  O1       1.0000 0.35910  0.28580  0.41310  Biso   1.000  O
  O2       1.0000 0.64090  0.71420  0.58690  Biso   1.000  O
  O3       1.0000 0.57680  0.12380  0.42290  Biso   1.000  O
  O4       1.0000 0.42320  0.87620  0.57710  Biso   1.000  O
  O5       1.0000 0.98680  0.18680  0.21490  Biso   1.000  O
  O6       1.0000 0.01320  0.81320  0.78510  Biso   1.000  O
  O7       1.0000 0.94170  0.35750  0.07580  Biso   1.000  O
  O8       1.0000 0.05830  0.64250  0.92420  Biso   1.000  O
  H1       1.0000 0.03060  0.31970  0.06270  Biso   1.000  H
  H2       1.0000 0.96940  0.68030  0.93730  Biso   1.000  H
  O9       1.0000 0.20520  0.26730  0.01660  Biso   1.000  O
  O10      1.0000 0.79480  0.73270  0.98340  Biso   1.000  O
  O11      1.0000 0.32750  0.23470  0.17600  Biso   1.000  O
  O12      1.0000 0.67250  0.76530  0.82400  Biso   1.000  O
  O13      1.0000 0.69770  0.96180  0.65660  Biso   1.000  O
  O14      1.0000 0.30230  0.03820  0.34340  Biso   1.000  O
  O15      1.0000 0.46860  0.08550  0.65070  Biso   1.000  O
  O16      1.0000 0.53140  0.91450  0.34930  Biso   1.000  O
  N1       1.0000 0.06610  0.42840  0.28870  Biso   1.000  N
  N2       1.0000 0.93390  0.57160  0.71130  Biso   1.000  N
  N3       1.0000 0.06500  0.23370  0.44430  Biso   1.000  N
  N4       1.0000 0.93500  0.76630  0.55570  Biso   1.000  N
  C1       1.0000 0.07080  0.12650  0.51920  Biso   1.000  C
  C2       1.0000 0.92920  0.87350  0.48080  Biso   1.000  C
  H3       1.0000 0.15460  0.04470  0.51660  Biso   1.000  H
  H4       1.0000 0.84540  0.95530  0.48340  Biso   1.000  H
  C3       1.0000 0.96090  0.12950  0.59880  Biso   1.000  C
  C4       1.0000 0.03910  0.87050  0.40120  Biso   1.000  C
  H5       1.0000 0.96910  0.05260  0.65240  Biso   1.000  H
  H6       1.0000 0.03090  0.94740  0.34760  Biso   1.000  H
  C5       1.0000 0.83820  0.24830  0.59790  Biso   1.000  C
  C6       1.0000 0.16180  0.75170  0.40210  Biso   1.000  C
  H7       1.0000 0.75810  0.25230  0.64870  Biso   1.000  H
  H8       1.0000 0.24190  0.74770  0.35130  Biso   1.000  H
  C7       1.0000 0.83250  0.35940  0.52510  Biso   1.000  C
  C8       1.0000 0.16750  0.64060  0.47490  Biso   1.000  C
  H9       1.0000 0.75060  0.44290  0.52620  Biso   1.000  H
  H10      1.0000 0.24940  0.55710  0.47380  Biso   1.000  H
  C9       1.0000 0.94720  0.35010  0.44890  Biso   1.000  C
  C10      1.0000 0.05280  0.64990  0.55110  Biso   1.000  C
  C11      1.0000 0.95300  0.46290  0.36520  Biso   1.000  C
  C12      1.0000 0.04700  0.53710  0.63480  Biso   1.000  C
  C13      1.0000 0.85210  0.59570  0.36450  Biso   1.000  C
  C14      1.0000 0.14790  0.40430  0.63550  Biso   1.000  C
  H11      1.0000 0.77170  0.61810  0.41860  Biso   1.000  H
  H12      1.0000 0.22830  0.38190  0.58140  Biso   1.000  H
  C15      1.0000 0.86930  0.69340  0.28470  Biso   1.000  C
  C16      1.0000 0.13070  0.30660  0.71530  Biso   1.000  C
  H13      1.0000 0.80280  0.78570  0.28400  Biso   1.000  H
  H14      1.0000 0.19720  0.21430  0.71600  Biso   1.000  H
  C17      1.0000 0.98430  0.65640  0.20530  Biso   1.000  C
  C18      1.0000 0.01570  0.34360  0.79470  Biso   1.000  C
  H15      1.0000 0.99720  0.72220  0.14780  Biso   1.000  H
  H16      1.0000 0.00280  0.27780  0.85220  Biso   1.000  H
  C19      1.0000 0.08060  0.52250  0.20920  Biso   1.000  C
  C20      1.0000 0.91940  0.47750  0.79080  Biso   1.000  C
  H17      1.0000 0.16030  0.49650  0.15440  Biso   1.000  H
  H18      1.0000 0.83970  0.50350  0.84560  Biso   1.000  H
  C21      1.0000 0.48870  0.24110  0.38800  Biso   1.000  C
  C22      1.0000 0.51130  0.75890  0.61200  Biso   1.000  C
  C23      1.0000 0.55010  0.32720  0.30980  Biso   1.000  C
  C24      1.0000 0.44990  0.67280  0.69020  Biso   1.000  C
  C25      1.0000 0.46380  0.45280  0.25920  Biso   1.000  C
  C26      1.0000 0.53620  0.54720  0.74080  Biso   1.000  C
  H19      1.0000 0.36390  0.48660  0.27800  Biso   1.000  H
  H20      1.0000 0.63610  0.51340  0.72200  Biso   1.000  H
  C27      1.0000 0.51750  0.52710  0.18010  Biso   1.000  C
  C28      1.0000 0.48250  0.47290  0.81990  Biso   1.000  C
  H21      1.0000 0.45620  0.61520  0.14860  Biso   1.000  H
  H22      1.0000 0.54380  0.38480  0.85140  Biso   1.000  H
  C29      1.0000 0.66190  0.47510  0.14740  Biso   1.000  C
  C30      1.0000 0.33810  0.52490  0.85260  Biso   1.000  C
  H23      1.0000 0.69980  0.52630  0.09200  Biso   1.000  H
  H24      1.0000 0.30020  0.47370  0.90800  Biso   1.000  H
  C31      1.0000 0.75030  0.34960  0.19670  Biso   1.000  C
  C32      1.0000 0.24970  0.65040  0.80330  Biso   1.000  C
  C33      1.0000 0.69490  0.27590  0.27800  Biso   1.000  C
  C34      1.0000 0.30510  0.72410  0.72200  Biso   1.000  C
  H25      1.0000 0.75690  0.19000  0.31280  Biso   1.000  H
  H26      1.0000 0.24310  0.81000  0.68720  Biso   1.000  H
  C35      1.0000 0.90430  0.28840  0.16290  Biso   1.000  C
  C36      1.0000 0.09570  0.71160  0.83710  Biso   1.000  C
  C37      1.0000 0.58130  0.04310  0.70220  Biso   1.000  C
  C38      1.0000 0.41870  0.95690  0.29780  Biso   1.000  C
  C39      1.0000 0.58160  0.08780  0.81860  Biso   1.000  C
  C40      1.0000 0.41840  0.91220  0.18140  Biso   1.000  C
  C41      1.0000 0.70950  0.06500  0.86580  Biso   1.000  C
  C42      1.0000 0.29050  0.93500  0.13420  Biso   1.000  C
  H27      1.0000 0.79680  0.02470  0.82140  Biso   1.000  H
  H28      1.0000 0.20320  0.97530  0.17860  Biso   1.000  H
  C43      1.0000 0.70870  0.10200  0.97690  Biso   1.000  C
  C44      1.0000 0.29130  0.89800  0.02310  Biso   1.000  C
  H29      1.0000 0.79590  0.08950  0.00880  Biso   1.000  H
  H30      1.0000 0.20410  0.91050  0.99120  Biso   1.000  H
  C45      1.0000 0.58320  0.15630  0.04250  Biso   1.000  C
  C46      1.0000 0.41680  0.84370  0.95750  Biso   1.000  C
  H31      1.0000 0.58370  0.17940  0.11980  Biso   1.000  H
  H32      1.0000 0.41630  0.82060  0.88020  Biso   1.000  H
  C47      1.0000 0.45450  0.17940  0.99560  Biso   1.000  C
  C48      1.0000 0.54550  0.82060  0.00440  Biso   1.000  C
  C49      1.0000 0.45480  0.14640  0.88390  Biso   1.000  C
  C50      1.0000 0.54520  0.85360  0.11610  Biso   1.000  C
  H33      1.0000 0.36690  0.16360  0.85070  Biso   1.000  H
  H34      1.0000 0.63310  0.83640  0.14930  Biso   1.000  H
  C51      1.0000 0.31660  0.23240  0.06900  Biso   1.000  C
  C52      1.0000 0.68340  0.76760  0.93100  Biso   1.000  C
