data_image0
_cell_length_a       10.3173
_cell_length_b       10.8014
_cell_length_c       11.578
_cell_angle_alpha    83.15
_cell_angle_beta     84.599
_cell_angle_gamma    66.184

_symmetry_space_group_name_H-M    "P 1"
_symmetry_int_tables_number       1

loop_
  _symmetry_equiv_pos_as_xyz
  'x, y, z'

loop_
  _atom_site_label
  _atom_site_occupancy
  _atom_site_fract_x
  _atom_site_fract_y
  _atom_site_fract_z
  _atom_site_thermal_displace_type
  _atom_site_B_iso_or_equiv
  _atom_site_type_symbol
  Cu1      1.0000 0.20049  0.23382  0.30932  Biso   1.000  Cu
  Cu2      1.0000 0.79951  0.76618  0.69068  Biso   1.000  Cu
  Cu3      1.0000 0.50000  0.00000  0.50000  Biso   1.000  Cu
  C1       1.0000 0.07150  0.12600  0.51910  Biso   1.000  C
  C2       1.0000 0.92850  0.87400  0.48090  Biso   1.000  C
  H1       1.0000 0.15350  0.04670  0.51790  Biso   1.000  H
  H2       1.0000 0.84650  0.95330  0.48210  Biso   1.000  H
  C3       1.0000 0.96060  0.12990  0.59730  Biso   1.000  C
  C4       1.0000 0.03940  0.87010  0.40270  Biso   1.000  C
  H3       1.0000 0.96730  0.05420  0.64810  Biso   1.000  H
  H4       1.0000 0.03270  0.94580  0.35190  Biso   1.000  H
  C5       1.0000 0.84000  0.24770  0.59880  Biso   1.000  C
  C6       1.0000 0.16000  0.75230  0.40120  Biso   1.000  C
  H5       1.0000 0.76340  0.25180  0.64970  Biso   1.000  H
  H6       1.0000 0.23660  0.74820  0.35030  Biso   1.000  H
  C7       1.0000 0.83290  0.35930  0.52500  Biso   1.000  C
  C8       1.0000 0.16710  0.64070  0.47500  Biso   1.000  C
  H7       1.0000 0.75250  0.44000  0.52620  Biso   1.000  H
  H8       1.0000 0.24750  0.56000  0.47380  Biso   1.000  H
  C9       1.0000 0.85270  0.59590  0.36490  Biso   1.000  C
  C10      1.0000 0.14730  0.40410  0.63510  Biso   1.000  C
  H9       1.0000 0.77510  0.61880  0.41810  Biso   1.000  H
  H10      1.0000 0.22490  0.38120  0.58190  Biso   1.000  H
  C11      1.0000 0.87050  0.69340  0.28370  Biso   1.000  C
  C12      1.0000 0.12950  0.30660  0.71630  Biso   1.000  C
  H11      1.0000 0.80540  0.78320  0.28250  Biso   1.000  H
  H12      1.0000 0.19460  0.21680  0.71750  Biso   1.000  H
  C13      1.0000 0.98390  0.65710  0.20530  Biso   1.000  C
  C14      1.0000 0.01610  0.34290  0.79470  Biso   1.000  C
  H13      1.0000 0.99680  0.72150  0.14990  Biso   1.000  H
  H14      1.0000 0.00320  0.27850  0.85010  Biso   1.000  H
  C15      1.0000 0.07980  0.52260  0.20970  Biso   1.000  C
  C16      1.0000 0.92020  0.47740  0.79030  Biso   1.000  C
  H15      1.0000 0.15640  0.49770  0.15560  Biso   1.000  H
  H16      1.0000 0.84360  0.50230  0.84440  Biso   1.000  H
  C17      1.0000 0.95300  0.46300  0.36530  Biso   1.000  C
  C18      1.0000 0.04700  0.53700  0.63470  Biso   1.000  C
  C19      1.0000 0.94800  0.34980  0.44830  Biso   1.000  C
  C20      1.0000 0.05200  0.65020  0.55170  Biso   1.000  C
  C21      1.0000 0.48870  0.24140  0.38820  Biso   1.000  C
  C22      1.0000 0.51130  0.75860  0.61180  Biso   1.000  C
  C23      1.0000 0.55050  0.32690  0.30950  Biso   1.000  C
  C24      1.0000 0.44950  0.67310  0.69050  Biso   1.000  C
  C25      1.0000 0.46320  0.45270  0.25920  Biso   1.000  C
  C26      1.0000 0.53680  0.54730  0.74080  Biso   1.000  C
  H17      1.0000 0.36650  0.48740  0.27930  Biso   1.000  H
  H18      1.0000 0.63350  0.51260  0.72070  Biso   1.000  H
  C27      1.0000 0.51750  0.52720  0.17960  Biso   1.000  C
  C28      1.0000 0.48250  0.47280  0.82040  Biso   1.000  C
  H19      1.0000 0.45800  0.61230  0.14770  Biso   1.000  H
  H20      1.0000 0.54200  0.38770  0.85230  Biso   1.000  H
  C29      1.0000 0.66100  0.47500  0.14730  Biso   1.000  C
  C30      1.0000 0.33900  0.52500  0.85270  Biso   1.000  C
  H21      1.0000 0.69770  0.52450  0.09280  Biso   1.000  H
  H22      1.0000 0.30230  0.47550  0.90720  Biso   1.000  H
  C31      1.0000 0.74980  0.34920  0.19640  Biso   1.000  C
  C32      1.0000 0.25020  0.65080  0.80360  Biso   1.000  C
  C33      1.0000 0.69450  0.27610  0.27850  Biso   1.000  C
  C34      1.0000 0.30550  0.72390  0.72150  Biso   1.000  C
  H23      1.0000 0.75450  0.19260  0.31290  Biso   1.000  H
  H24      1.0000 0.24550  0.80740  0.68710  Biso   1.000  H
  C35      1.0000 0.90410  0.28840  0.16320  Biso   1.000  C
  C36      1.0000 0.09590  0.71160  0.83680  Biso   1.000  C
  C37      1.0000 0.41850  0.95720  0.29820  Biso   1.000  C
  C38      1.0000 0.58150  0.04280  0.70180  Biso   1.000  C
  C39      1.0000 0.41880  0.91210  0.18100  Biso   1.000  C
  C40      1.0000 0.58120  0.08790  0.81900  Biso   1.000  C
  C41      1.0000 0.29120  0.93460  0.13350  Biso   1.000  C
  C42      1.0000 0.70880  0.06540  0.86650  Biso   1.000  C
  H25      1.0000 0.20590  0.97420  0.17610  Biso   1.000  H
  H26      1.0000 0.79410  0.02580  0.82390  Biso   1.000  H
  C43      1.0000 0.29130  0.89810  0.02320  Biso   1.000  C
  C44      1.0000 0.70870  0.10190  0.97680  Biso   1.000  C
  H27      1.0000 0.20630  0.91080  0.99250  Biso   1.000  H
  H28      1.0000 0.79370  0.08920  0.00750  Biso   1.000  H
  C45      1.0000 0.41790  0.84250  0.95770  Biso   1.000  C
  C46      1.0000 0.58210  0.15750  0.04230  Biso   1.000  C
  H29      1.0000 0.41720  0.82020  0.88270  Biso   1.000  H
  H30      1.0000 0.58280  0.17980  0.11730  Biso   1.000  H
  C47      1.0000 0.54540  0.82030  0.00414  Biso   1.000  C
  C48      1.0000 0.45460  0.17970  0.99586  Biso   1.000  C
  C49      1.0000 0.54550  0.85320  0.11607  Biso   1.000  C
  C50      1.0000 0.45450  0.14680  0.88393  Biso   1.000  C
  H31      1.0000 0.63110  0.83580  0.14820  Biso   1.000  H
  H32      1.0000 0.36890  0.16420  0.85180  Biso   1.000  H
  C51      1.0000 0.68270  0.76820  0.93230  Biso   1.000  C
  C52      1.0000 0.31730  0.23180  0.06770  Biso   1.000  C
  N1       1.0000 0.06410  0.23380  0.44477  Biso   1.000  N
  N2       1.0000 0.93590  0.76620  0.55523  Biso   1.000  N
  N3       1.0000 0.06600  0.42790  0.28864  Biso   1.000  N
  N4       1.0000 0.93400  0.57210  0.71136  Biso   1.000  N
  O1       1.0000 0.35846  0.28637  0.41288  Biso   1.000  O
  O2       1.0000 0.64154  0.71363  0.58712  Biso   1.000  O
  O3       1.0000 0.57698  0.12387  0.42288  Biso   1.000  O
  O4       1.0000 0.42302  0.87613  0.57712  Biso   1.000  O
  O5       1.0000 0.94185  0.35750  0.07536  Biso   1.000  O
  O6       1.0000 0.05815  0.64250  0.92464  Biso   1.000  O
  H33      1.0000 0.02800  0.32170  0.06250  Biso   1.000  H
  H34      1.0000 0.97200  0.67830  0.93750  Biso   1.000  H
  O7       1.0000 0.98680  0.18670  0.21540  Biso   1.000  O
  O8       1.0000 0.01320  0.81330  0.78460  Biso   1.000  O
  O9       1.0000 0.30228  0.03808  0.34344  Biso   1.000  O
  O10      1.0000 0.69772  0.96192  0.65656  Biso   1.000  O
  O11      1.0000 0.53239  0.91367  0.34951  Biso   1.000  O
  O12      1.0000 0.46761  0.08633  0.65049  Biso   1.000  O
  O13      1.0000 0.67193  0.76536  0.82452  Biso   1.000  O
  O14      1.0000 0.32807  0.23464  0.17548  Biso   1.000  O
  O15      1.0000 0.79514  0.73240  0.98258  Biso   1.000  O
  O16      1.0000 0.20486  0.26760  0.01742  Biso   1.000  O
