data_image0
_cell_length_a       10.3752
_cell_length_b       10.6684
_cell_length_c       11.7583
_cell_angle_alpha    83.179
_cell_angle_beta     86.228
_cell_angle_gamma    71.187

_symmetry_space_group_name_H-M    "P 1"
_symmetry_int_tables_number       1

loop_
  _symmetry_equiv_pos_as_xyz
  'x, y, z'

loop_
  _atom_site_label
  _atom_site_occupancy
  _atom_site_fract_x
  _atom_site_fract_y
  _atom_site_fract_z
  _atom_site_thermal_displace_type
  _atom_site_B_iso_or_equiv
  _atom_site_type_symbol
  Cu1      1.0000 0.50000  0.00000  0.50000  Biso   1.000  Cu
  Cu2      1.0000 0.76889  0.77755  0.69781  Biso   1.000  Cu
  Cu3      1.0000 0.23111  0.22245  0.30219  Biso   1.000  Cu
  O1       1.0000 0.02670  0.65840  0.92208  Biso   1.000  O
  O2       1.0000 0.97330  0.34160  0.07792  Biso   1.000  O
  H1       1.0000 0.94620  0.69580  0.93750  Biso   1.000  H
  H2       1.0000 0.05380  0.30420  0.06250  Biso   1.000  H
  O3       1.0000 0.99700  0.83230  0.78960  Biso   1.000  O
  O4       1.0000 0.00300  0.16770  0.21040  Biso   1.000  O
  O5       1.0000 0.40067  0.88687  0.57242  Biso   1.000  O
  O6       1.0000 0.59933  0.11313  0.42758  Biso   1.000  O
  O7       1.0000 0.60477  0.73829  0.60149  Biso   1.000  O
  O8       1.0000 0.39523  0.26171  0.39851  Biso   1.000  O
  O9       1.0000 0.77920  0.75110  0.98813  Biso   1.000  O
  O10      1.0000 0.22080  0.24890  0.01187  Biso   1.000  O
  O11      1.0000 0.65490  0.77490  0.83480  Biso   1.000  O
  O12      1.0000 0.34510  0.22510  0.16520  Biso   1.000  O
  O13      1.0000 0.52876  0.91210  0.35414  Biso   1.000  O
  O14      1.0000 0.47124  0.08790  0.64586  Biso   1.000  O
  O15      1.0000 0.31093  0.03048  0.33742  Biso   1.000  O
  O16      1.0000 0.68907  0.96952  0.66258  Biso   1.000  O
  N1       1.0000 0.88670  0.58670  0.72260  Biso   1.000  N
  N2       1.0000 0.11330  0.41330  0.27740  Biso   1.000  N
  N3       1.0000 0.90250  0.77990  0.56556  Biso   1.000  N
  N4       1.0000 0.09750  0.22010  0.43444  Biso   1.000  N
  C1       1.0000 0.06900  0.73030  0.83870  Biso   1.000  C
  C2       1.0000 0.93100  0.26970  0.16130  Biso   1.000  C
  C3       1.0000 0.21600  0.67070  0.80640  Biso   1.000  C
  C4       1.0000 0.78400  0.32930  0.19360  Biso   1.000  C
  C5       1.0000 0.29380  0.54700  0.85510  Biso   1.000  C
  C6       1.0000 0.70620  0.45300  0.14490  Biso   1.000  C
  H3       1.0000 0.25410  0.49780  0.90830  Biso   1.000  H
  H4       1.0000 0.74590  0.50220  0.09170  Biso   1.000  H
  C7       1.0000 0.43030  0.49630  0.82500  Biso   1.000  C
  C8       1.0000 0.56970  0.50370  0.17500  Biso   1.000  C
  H5       1.0000 0.48230  0.41300  0.85770  Biso   1.000  H
  H6       1.0000 0.51770  0.58700  0.14230  Biso   1.000  H
  C9       1.0000 0.48950  0.56970  0.74620  Biso   1.000  C
  C10      1.0000 0.51050  0.43030  0.25380  Biso   1.000  C
  H7       1.0000 0.58170  0.53600  0.72670  Biso   1.000  H
  H8       1.0000 0.41830  0.46400  0.27330  Biso   1.000  H
  C11      1.0000 0.41240  0.69310  0.69620  Biso   1.000  C
  C12      1.0000 0.58760  0.30690  0.30380  Biso   1.000  C
  C13      1.0000 0.27530  0.74250  0.72590  Biso   1.000  C
  C14      1.0000 0.72470  0.25750  0.27410  Biso   1.000  C
  H9       1.0000 0.22270  0.82470  0.69160  Biso   1.000  H
  H10      1.0000 0.77730  0.17530  0.30840  Biso   1.000  H
  C15      1.0000 0.47890  0.77670  0.61740  Biso   1.000  C
  C16      1.0000 0.52110  0.22330  0.38260  Biso   1.000  C
  C17      1.0000 0.67050  0.77870  0.94030  Biso   1.000  C
  C18      1.0000 0.32950  0.22130  0.05970  Biso   1.000  C
  C19      1.0000 0.54050  0.82180  0.01160  Biso   1.000  C
  C20      1.0000 0.45950  0.17820  0.98840  Biso   1.000  C
  C21      1.0000 0.41720  0.83100  0.96600  Biso   1.000  C
  C22      1.0000 0.58280  0.16900  0.03400  Biso   1.000  C
  H11      1.0000 0.41540  0.80640  0.89300  Biso   1.000  H
  H12      1.0000 0.58460  0.19360  0.10700  Biso   1.000  H
  C23      1.0000 0.29710  0.87680  0.02910  Biso   1.000  C
  C24      1.0000 0.70290  0.12320  0.97090  Biso   1.000  C
  H13      1.0000 0.21480  0.88190  0.99880  Biso   1.000  H
  H14      1.0000 0.78520  0.11810  0.00120  Biso   1.000  H
  C25      1.0000 0.29900  0.91520  0.13740  Biso   1.000  C
  C26      1.0000 0.70100  0.08480  0.86260  Biso   1.000  C
  H15      1.0000 0.21790  0.94810  0.17880  Biso   1.000  H
  H16      1.0000 0.78210  0.05190  0.82120  Biso   1.000  H
  C27      1.0000 0.42190  0.90450  0.18390  Biso   1.000  C
  C28      1.0000 0.57810  0.09550  0.81610  Biso   1.000  C
  C29      1.0000 0.54160  0.85630  0.12130  Biso   1.000  C
  C30      1.0000 0.45840  0.14370  0.87870  Biso   1.000  C
  H17      1.0000 0.62420  0.84680  0.15330  Biso   1.000  H
  H18      1.0000 0.37580  0.15320  0.84670  Biso   1.000  H
  C31      1.0000 0.42170  0.95190  0.29880  Biso   1.000  C
  C32      1.0000 0.57830  0.04810  0.70120  Biso   1.000  C
  C33      1.0000 0.87300  0.49010  0.79900  Biso   1.000  C
  C34      1.0000 0.12700  0.50990  0.20100  Biso   1.000  C
  H19      1.0000 0.79560  0.50680  0.84690  Biso   1.000  H
  H20      1.0000 0.20440  0.49320  0.15310  Biso   1.000  H
  C35      1.0000 0.97020  0.36430  0.81050  Biso   1.000  C
  C36      1.0000 0.02980  0.63570  0.18950  Biso   1.000  C
  H21      1.0000 0.95560  0.29790  0.86340  Biso   1.000  H
  H22      1.0000 0.04440  0.70210  0.13660  Biso   1.000  H
  C37      1.0000 0.08610  0.33860  0.74450  Biso   1.000  C
  C38      1.0000 0.91390  0.66140  0.25550  Biso   1.000  C
  H23      1.0000 0.15190  0.25510  0.75320  Biso   1.000  H
  H24      1.0000 0.84810  0.74490  0.24680  Biso   1.000  H
  C39      1.0000 0.10630  0.43940  0.66230  Biso   1.000  C
  C40      1.0000 0.89370  0.56060  0.33770  Biso   1.000  C
  C41      1.0000 0.22480  0.42540  0.59000  Biso   1.000  C
  C42      1.0000 0.77520  0.57460  0.41000  Biso   1.000  C
  H25      1.0000 0.29570  0.34520  0.59550  Biso   1.000  H
  H26      1.0000 0.70430  0.65480  0.40450  Biso   1.000  H
  C43      1.0000 0.23580  0.52630  0.51420  Biso   1.000  C
  C44      1.0000 0.76420  0.47370  0.48580  Biso   1.000  C
  H27      1.0000 0.31520  0.51500  0.46940  Biso   1.000  H
  H28      1.0000 0.68480  0.48500  0.53060  Biso   1.000  H
  C45      1.0000 0.12810  0.65110  0.50050  Biso   1.000  C
  C46      1.0000 0.87190  0.34890  0.49950  Biso   1.000  C
  C47      1.0000 0.12940  0.76020  0.42110  Biso   1.000  C
  C48      1.0000 0.87060  0.23980  0.57890  Biso   1.000  C
  H29      1.0000 0.20590  0.75590  0.37380  Biso   1.000  H
  H30      1.0000 0.79410  0.24410  0.62620  Biso   1.000  H
  C49      1.0000 0.00060  0.56120  0.65410  Biso   1.000  C
  C50      1.0000 0.99940  0.43880  0.34590  Biso   1.000  C
  C51      1.0000 0.01060  0.66690  0.57060  Biso   1.000  C
  C52      1.0000 0.98940  0.33310  0.42940  Biso   1.000  C
  C53      1.0000 0.90580  0.87910  0.48720  Biso   1.000  C
  C54      1.0000 0.09420  0.12090  0.51280  Biso   1.000  C
  H31      1.0000 0.83080  0.95590  0.48090  Biso   1.000  H
  H32      1.0000 0.16920  0.04410  0.51910  Biso   1.000  H
  C55      1.0000 0.01930  0.87150  0.41350  Biso   1.000  C
  C56      1.0000 0.98070  0.12850  0.58650  Biso   1.000  C
  H33      1.0000 0.01900  0.94280  0.35950  Biso   1.000  H
  H34      1.0000 0.98100  0.05720  0.64050  Biso   1.000  H
