data_image0
_cell_length_a       6.875
_cell_length_b       14.0489
_cell_length_c       9.4841
_cell_angle_alpha    90
_cell_angle_beta     91.499
_cell_angle_gamma    90

_symmetry_space_group_name_H-M    "P 1"
_symmetry_int_tables_number       1

loop_
  _symmetry_equiv_pos_as_xyz
  'x, y, z'

loop_
  _atom_site_label
  _atom_site_occupancy
  _atom_site_fract_x
  _atom_site_fract_y
  _atom_site_fract_z
  _atom_site_thermal_displace_type
  _atom_site_B_iso_or_equiv
  _atom_site_type_symbol
  Cu1      1.0000 0.50000  0.50000  0.50000  Biso   1.000  Cu
  Cu2      1.0000 0.50000  0.00000  0.00000  Biso   1.000  Cu
  N1       1.0000 0.44080  0.59180  0.66280  Biso   1.000  N
  N2       1.0000 0.44080  0.90820  0.16280  Biso   1.000  N
  N3       1.0000 0.55920  0.40820  0.33720  Biso   1.000  N
  N4       1.0000 0.55920  0.09180  0.83720  Biso   1.000  N
  C1       1.0000 0.22720  0.60590  0.66700  Biso   1.000  C
  C2       1.0000 0.22720  0.89410  0.16700  Biso   1.000  C
  C3       1.0000 0.77280  0.39410  0.33300  Biso   1.000  C
  C4       1.0000 0.77280  0.10590  0.83300  Biso   1.000  C
  H1       1.0000 0.16550  0.54430  0.67710  Biso   1.000  H
  H2       1.0000 0.16550  0.95570  0.17710  Biso   1.000  H
  H3       1.0000 0.83450  0.45570  0.32290  Biso   1.000  H
  H4       1.0000 0.83450  0.04430  0.82290  Biso   1.000  H
  H5       1.0000 0.18240  0.63270  0.57770  Biso   1.000  H
  H6       1.0000 0.18240  0.86730  0.07770  Biso   1.000  H
  H7       1.0000 0.81760  0.36730  0.42230  Biso   1.000  H
  H8       1.0000 0.81760  0.13270  0.92230  Biso   1.000  H
  C5       1.0000 0.16190  0.67000  0.78460  Biso   1.000  C
  C6       1.0000 0.16190  0.83000  0.28460  Biso   1.000  C
  C7       1.0000 0.83810  0.33000  0.21540  Biso   1.000  C
  C8       1.0000 0.83810  0.17000  0.71540  Biso   1.000  C
  C9       1.0000 0.53980  0.68290  0.62800  Biso   1.000  C
  C10      1.0000 0.53980  0.81710  0.12800  Biso   1.000  C
  C11      1.0000 0.46020  0.31710  0.37200  Biso   1.000  C
  C12      1.0000 0.46020  0.18290  0.87200  Biso   1.000  C
  H9       1.0000 0.62030  0.70230  0.70850  Biso   1.000  H
  H10      1.0000 0.62030  0.79770  0.20850  Biso   1.000  H
  H11      1.0000 0.37970  0.29770  0.29150  Biso   1.000  H
  H12      1.0000 0.37970  0.20230  0.79150  Biso   1.000  H
  H13      1.0000 0.44190  0.73170  0.61200  Biso   1.000  H
  H14      1.0000 0.44190  0.76830  0.11200  Biso   1.000  H
  H15      1.0000 0.55810  0.26830  0.38800  Biso   1.000  H
  H16      1.0000 0.55810  0.23170  0.88800  Biso   1.000  H
  C13      1.0000 0.66450  0.67690  0.50090  Biso   1.000  C
  C14      1.0000 0.66450  0.82310  0.00090  Biso   1.000  C
  C15      1.0000 0.33550  0.32310  0.49910  Biso   1.000  C
  C16      1.0000 0.33550  0.17690  0.99910  Biso   1.000  C
  C17      1.0000 0.51980  0.54780  0.79460  Biso   1.000  C
  C18      1.0000 0.51980  0.95220  0.29460  Biso   1.000  C
  C19      1.0000 0.48020  0.45220  0.20540  Biso   1.000  C
  C20      1.0000 0.48020  0.04780  0.70540  Biso   1.000  C
  H17      1.0000 0.42320  0.50510  0.83230  Biso   1.000  H
  H18      1.0000 0.42320  0.99490  0.33230  Biso   1.000  H
  H19      1.0000 0.57680  0.49490  0.16770  Biso   1.000  H
  H20      1.0000 0.57680  0.00510  0.66770  Biso   1.000  H
  H21      1.0000 0.54540  0.59720  0.86400  Biso   1.000  H
  H22      1.0000 0.54540  0.90280  0.36400  Biso   1.000  H
  H23      1.0000 0.45460  0.40280  0.13600  Biso   1.000  H
  H24      1.0000 0.45460  0.09720  0.63600  Biso   1.000  H
  C21      1.0000 0.70460  0.49310  0.77060  Biso   1.000  C
  C22      1.0000 0.70460  0.00690  0.27060  Biso   1.000  C
  C23      1.0000 0.29540  0.50690  0.22940  Biso   1.000  C
  C24      1.0000 0.29540  0.99310  0.72940  Biso   1.000  C
  O1       1.0000 0.96970  0.67120  0.78690  Biso   1.000  O
  O2       1.0000 0.96970  0.82880  0.28690  Biso   1.000  O
  O3       1.0000 0.03030  0.32880  0.21310  Biso   1.000  O
  O4       1.0000 0.03030  0.17120  0.71310  Biso   1.000  O
  O5       1.0000 0.26610  0.71500  0.86400  Biso   1.000  O
  O6       1.0000 0.26610  0.78500  0.36400  Biso   1.000  O
  O7       1.0000 0.73390  0.28500  0.13600  Biso   1.000  O
  O8       1.0000 0.73390  0.21500  0.63600  Biso   1.000  O
  O9       1.0000 0.65000  0.60440  0.42160  Biso   1.000  O
  O10      1.0000 0.65000  0.89560  0.92160  Biso   1.000  O
  O11      1.0000 0.35000  0.39560  0.57840  Biso   1.000  O
  O12      1.0000 0.35000  0.10440  0.07840  Biso   1.000  O
  O13      1.0000 0.77040  0.74650  0.47810  Biso   1.000  O
  O14      1.0000 0.77040  0.75350  0.97810  Biso   1.000  O
  O15      1.0000 0.22960  0.25350  0.52190  Biso   1.000  O
  O16      1.0000 0.22960  0.24650  0.02190  Biso   1.000  O
  O17      1.0000 0.76290  0.47470  0.65500  Biso   1.000  O
  O18      1.0000 0.76290  0.02530  0.15500  Biso   1.000  O
  O19      1.0000 0.23710  0.52530  0.34500  Biso   1.000  O
  O20      1.0000 0.23710  0.97470  0.84500  Biso   1.000  O
  O21      1.0000 0.79020  0.46560  0.88840  Biso   1.000  O
  O22      1.0000 0.79020  0.03440  0.38840  Biso   1.000  O
  O23      1.0000 0.20980  0.53440  0.11160  Biso   1.000  O
  O24      1.0000 0.20980  0.96560  0.61160  Biso   1.000  O
  Na1      1.0000 0.87680  0.61410  0.16490  Biso   1.000  Na
  Na2      1.0000 0.87680  0.88590  0.66490  Biso   1.000  Na
  Na3      1.0000 0.12320  0.38590  0.83510  Biso   1.000  Na
  Na4      1.0000 0.12320  0.11410  0.33510  Biso   1.000  Na
