data_image0
_cell_length_a       10.393
_cell_length_b       12.565
_cell_length_c       18.527
_cell_angle_alpha    90
_cell_angle_beta     90
_cell_angle_gamma    90

_symmetry_space_group_name_H-M    "P 1"
_symmetry_int_tables_number       1

loop_
  _symmetry_equiv_pos_as_xyz
  'x, y, z'

loop_
  _atom_site_label
  _atom_site_occupancy
  _atom_site_fract_x
  _atom_site_fract_y
  _atom_site_fract_z
  _atom_site_thermal_displace_type
  _atom_site_B_iso_or_equiv
  _atom_site_type_symbol
  Pd1      1.0000 0.00035  0.99853  0.99399  Biso   1.000  Pd
  Pd2      1.0000 0.49965  0.00147  0.49399  Biso   1.000  Pd
  Pd3      1.0000 0.99965  0.49853  0.50601  Biso   1.000  Pd
  Pd4      1.0000 0.50035  0.50147  0.00601  Biso   1.000  Pd
  Cu1      1.0000 0.50083  0.99683  0.99974  Biso   1.000  Cu
  Cu2      1.0000 0.99917  0.00317  0.49974  Biso   1.000  Cu
  Cu3      1.0000 0.49917  0.49683  0.50026  Biso   1.000  Cu
  Cu4      1.0000 0.00083  0.50317  0.00026  Biso   1.000  Cu
  N1       1.0000 0.71430  0.92270  0.97720  Biso   1.000  N
  N2       1.0000 0.78570  0.07730  0.47720  Biso   1.000  N
  N3       1.0000 0.28570  0.42270  0.52280  Biso   1.000  N
  N4       1.0000 0.21430  0.57730  0.02280  Biso   1.000  N
  N5       1.0000 0.13210  0.81760  0.90370  Biso   1.000  N
  N6       1.0000 0.36790  0.18240  0.40370  Biso   1.000  N
  N7       1.0000 0.86790  0.31760  0.59630  Biso   1.000  N
  N8       1.0000 0.63210  0.68240  0.09630  Biso   1.000  N
  N9       1.0000 0.28210  0.07760  0.02050  Biso   1.000  N
  N10      1.0000 0.21790  0.92240  0.52050  Biso   1.000  N
  N11      1.0000 0.71790  0.57760  0.47950  Biso   1.000  N
  N12      1.0000 0.78210  0.42240  0.97950  Biso   1.000  N
  N13      1.0000 0.86760  0.17880  0.08360  Biso   1.000  N
  N14      1.0000 0.63240  0.82120  0.58360  Biso   1.000  N
  N15      1.0000 0.13240  0.67880  0.41640  Biso   1.000  N
  N16      1.0000 0.36760  0.32120  0.91640  Biso   1.000  N
  N17      1.0000 0.47110  0.89380  0.08380  Biso   1.000  N
  N18      1.0000 0.02890  0.10620  0.58380  Biso   1.000  N
  N19      1.0000 0.52890  0.39380  0.41620  Biso   1.000  N
  N20      1.0000 0.97110  0.60620  0.91620  Biso   1.000  N
  H1       1.0000 0.53550  0.84250  0.08080  Biso   1.000  H
  H2       1.0000 0.96450  0.15750  0.58080  Biso   1.000  H
  H3       1.0000 0.46450  0.34250  0.41920  Biso   1.000  H
  H4       1.0000 0.03550  0.65750  0.91920  Biso   1.000  H
  N21      1.0000 0.58370  0.09260  0.07620  Biso   1.000  N
  N22      1.0000 0.91630  0.90740  0.57620  Biso   1.000  N
  N23      1.0000 0.41630  0.59260  0.42380  Biso   1.000  N
  N24      1.0000 0.08370  0.40740  0.92380  Biso   1.000  N
  H5       1.0000 0.66450  0.11080  0.05850  Biso   1.000  H
  H6       1.0000 0.83550  0.88920  0.55850  Biso   1.000  H
  H7       1.0000 0.33550  0.61080  0.44150  Biso   1.000  H
  H8       1.0000 0.16450  0.38920  0.94150  Biso   1.000  H
  N25      1.0000 0.43590  0.89720  0.91890  Biso   1.000  N
  N26      1.0000 0.06410  0.10280  0.41890  Biso   1.000  N
  N27      1.0000 0.56410  0.39720  0.58110  Biso   1.000  N
  N28      1.0000 0.93590  0.60280  0.08110  Biso   1.000  N
  H9       1.0000 0.34700  0.89280  0.92370  Biso   1.000  H
  H10      1.0000 0.15300  0.10720  0.42370  Biso   1.000  H
  H11      1.0000 0.65300  0.39280  0.57630  Biso   1.000  H
  H12      1.0000 0.84700  0.60720  0.07630  Biso   1.000  H
  N29      1.0000 0.50760  0.11040  0.92097  Biso   1.000  N
  N30      1.0000 0.99240  0.88960  0.42097  Biso   1.000  N
  N31      1.0000 0.49240  0.61040  0.57903  Biso   1.000  N
  N32      1.0000 0.00760  0.38960  0.07903  Biso   1.000  N
  H13      1.0000 0.46030  0.16760  0.93870  Biso   1.000  H
  H14      1.0000 0.03970  0.83240  0.43870  Biso   1.000  H
  H15      1.0000 0.53970  0.66760  0.56130  Biso   1.000  H
  H16      1.0000 0.96030  0.33240  0.06130  Biso   1.000  H
  C1       1.0000 0.82220  0.94510  0.98020  Biso   1.000  C
  C2       1.0000 0.67780  0.05490  0.48020  Biso   1.000  C
  C3       1.0000 0.17780  0.44510  0.51980  Biso   1.000  C
  C4       1.0000 0.32220  0.55490  0.01980  Biso   1.000  C
  C5       1.0000 0.08070  0.88230  0.93520  Biso   1.000  C
  C6       1.0000 0.41930  0.11770  0.43520  Biso   1.000  C
  C7       1.0000 0.91930  0.38230  0.56480  Biso   1.000  C
  C8       1.0000 0.58070  0.61770  0.06480  Biso   1.000  C
  C9       1.0000 0.17730  0.05390  0.01060  Biso   1.000  C
  C10      1.0000 0.32270  0.94610  0.51060  Biso   1.000  C
  C11      1.0000 0.82270  0.55390  0.48940  Biso   1.000  C
  C12      1.0000 0.67730  0.44610  0.98940  Biso   1.000  C
  C13      1.0000 0.92120  0.11390  0.05200  Biso   1.000  C
  C14      1.0000 0.57880  0.88610  0.55200  Biso   1.000  C
  C15      1.0000 0.07880  0.61390  0.44800  Biso   1.000  C
  C16      1.0000 0.42120  0.38610  0.94800  Biso   1.000  C
  C17      1.0000 0.49310  0.95220  0.15220  Biso   1.000  C
  C18      1.0000 0.00690  0.04780  0.65220  Biso   1.000  C
  C19      1.0000 0.50690  0.45220  0.34780  Biso   1.000  C
  C20      1.0000 0.99310  0.54780  0.84780  Biso   1.000  C
  H17      1.0000 0.41540  0.99670  0.16240  Biso   1.000  H
  H18      1.0000 0.08460  0.00330  0.66240  Biso   1.000  H
  H19      1.0000 0.58460  0.49670  0.33760  Biso   1.000  H
  H20      1.0000 0.91540  0.50330  0.83760  Biso   1.000  H
  C21      1.0000 0.51610  0.87910  0.21670  Biso   1.000  C
  C22      1.0000 0.98390  0.12090  0.71670  Biso   1.000  C
  C23      1.0000 0.48390  0.37910  0.28330  Biso   1.000  C
  C24      1.0000 0.01610  0.62090  0.78330  Biso   1.000  C
  H21      1.0000 0.58880  0.83070  0.20590  Biso   1.000  H
  H22      1.0000 0.91120  0.16930  0.70590  Biso   1.000  H
  H23      1.0000 0.41120  0.33070  0.29410  Biso   1.000  H
  H24      1.0000 0.08880  0.66930  0.79410  Biso   1.000  H
  H25      1.0000 0.43860  0.83490  0.22500  Biso   1.000  H
  H26      1.0000 0.06140  0.16510  0.72500  Biso   1.000  H
  H27      1.0000 0.56140  0.33490  0.27500  Biso   1.000  H
  H28      1.0000 0.93860  0.66510  0.77500  Biso   1.000  H
  C25      1.0000 0.54640  0.94270  0.28540  Biso   1.000  C
  C26      1.0000 0.95360  0.05730  0.78540  Biso   1.000  C
  C27      1.0000 0.45360  0.44270  0.21460  Biso   1.000  C
  C28      1.0000 0.04640  0.55730  0.71460  Biso   1.000  C
  H29      1.0000 0.47130  0.98690  0.29860  Biso   1.000  H
  H30      1.0000 0.02870  0.01310  0.79860  Biso   1.000  H
  H31      1.0000 0.52870  0.48690  0.20140  Biso   1.000  H
  H32      1.0000 0.97130  0.51310  0.70140  Biso   1.000  H
  H33      1.0000 0.56410  0.89310  0.32570  Biso   1.000  H
  H34      1.0000 0.93590  0.10690  0.82570  Biso   1.000  H
  H35      1.0000 0.43590  0.39310  0.17430  Biso   1.000  H
  H36      1.0000 0.06410  0.60690  0.67430  Biso   1.000  H
  C29      1.0000 0.66240  0.01340  0.27300  Biso   1.000  C
  C30      1.0000 0.83760  0.98660  0.77300  Biso   1.000  C
  C31      1.0000 0.33760  0.51340  0.22700  Biso   1.000  C
  C32      1.0000 0.16240  0.48660  0.72700  Biso   1.000  C
  H37      1.0000 0.73840  0.96880  0.26190  Biso   1.000  H
  H38      1.0000 0.76160  0.03120  0.76190  Biso   1.000  H
  H39      1.0000 0.26160  0.46880  0.23810  Biso   1.000  H
  H40      1.0000 0.23840  0.53120  0.73810  Biso   1.000  H
  H41      1.0000 0.68100  0.05440  0.31740  Biso   1.000  H
  H42      1.0000 0.81900  0.94560  0.81740  Biso   1.000  H
  H43      1.0000 0.31900  0.55440  0.18260  Biso   1.000  H
  H44      1.0000 0.18100  0.44560  0.68260  Biso   1.000  H
  C33      1.0000 0.63720  0.09010  0.21040  Biso   1.000  C
  C34      1.0000 0.86280  0.90990  0.71040  Biso   1.000  C
  C35      1.0000 0.36280  0.59010  0.28960  Biso   1.000  C
  C36      1.0000 0.13720  0.40990  0.78960  Biso   1.000  C
  H45      1.0000 0.71410  0.13500  0.20210  Biso   1.000  H
  H46      1.0000 0.78590  0.86500  0.70210  Biso   1.000  H
  H47      1.0000 0.28590  0.63500  0.29790  Biso   1.000  H
  H48      1.0000 0.21410  0.36500  0.79790  Biso   1.000  H
  H49      1.0000 0.56400  0.13730  0.22230  Biso   1.000  H
  H50      1.0000 0.93600  0.86270  0.72230  Biso   1.000  H
  H51      1.0000 0.43600  0.63730  0.27770  Biso   1.000  H
  H52      1.0000 0.06400  0.36270  0.77770  Biso   1.000  H
  C37      1.0000 0.60640  0.02560  0.14180  Biso   1.000  C
  C38      1.0000 0.89360  0.97440  0.64180  Biso   1.000  C
  C39      1.0000 0.39360  0.52560  0.35820  Biso   1.000  C
  C40      1.0000 0.10640  0.47440  0.85820  Biso   1.000  C
  H53      1.0000 0.68290  0.97980  0.13150  Biso   1.000  H
  H54      1.0000 0.81710  0.02020  0.63150  Biso   1.000  H
  H55      1.0000 0.31710  0.47980  0.36850  Biso   1.000  H
  H56      1.0000 0.18290  0.52020  0.86850  Biso   1.000  H
  C41      1.0000 0.46180  0.95130  0.84900  Biso   1.000  C
  C42      1.0000 0.03820  0.04870  0.34900  Biso   1.000  C
  C43      1.0000 0.53820  0.45130  0.65100  Biso   1.000  C
  C44      1.0000 0.96180  0.54870  0.15100  Biso   1.000  C
  H57      1.0000 0.55520  0.94250  0.83750  Biso   1.000  H
  H58      1.0000 0.94480  0.05750  0.33750  Biso   1.000  H
  H59      1.0000 0.44480  0.44250  0.66250  Biso   1.000  H
  H60      1.0000 0.05520  0.55750  0.16250  Biso   1.000  H
  C45      1.0000 0.38440  0.90530  0.78690  Biso   1.000  C
  C46      1.0000 0.11560  0.09470  0.28690  Biso   1.000  C
  C47      1.0000 0.61560  0.40530  0.71310  Biso   1.000  C
  C48      1.0000 0.88440  0.59470  0.21310  Biso   1.000  C
  H61      1.0000 0.29180  0.90740  0.79930  Biso   1.000  H
  H62      1.0000 0.20820  0.09260  0.29930  Biso   1.000  H
  H63      1.0000 0.70820  0.40740  0.70070  Biso   1.000  H
  H64      1.0000 0.79180  0.59260  0.20070  Biso   1.000  H
  H65      1.0000 0.40890  0.82990  0.77980  Biso   1.000  H
  H66      1.0000 0.09110  0.17010  0.27980  Biso   1.000  H
  H67      1.0000 0.59110  0.32990  0.72020  Biso   1.000  H
  H68      1.0000 0.90890  0.67010  0.22020  Biso   1.000  H
  C49      1.0000 0.40590  0.96600  0.71680  Biso   1.000  C
  C50      1.0000 0.09410  0.03400  0.21680  Biso   1.000  C
  C51      1.0000 0.59410  0.46600  0.78320  Biso   1.000  C
  C52      1.0000 0.90590  0.53400  0.28320  Biso   1.000  C
  H69      1.0000 0.49670  0.95830  0.70140  Biso   1.000  H
  H70      1.0000 0.00330  0.04170  0.20140  Biso   1.000  H
  H71      1.0000 0.50330  0.45830  0.79860  Biso   1.000  H
  H72      1.0000 0.99670  0.54170  0.29860  Biso   1.000  H
  H73      1.0000 0.35030  0.93620  0.67840  Biso   1.000  H
  H74      1.0000 0.14970  0.06380  0.17840  Biso   1.000  H
  H75      1.0000 0.64970  0.43620  0.82160  Biso   1.000  H
  H76      1.0000 0.85030  0.56380  0.32160  Biso   1.000  H
  C53      1.0000 0.37470  0.08290  0.72760  Biso   1.000  C
  C54      1.0000 0.12530  0.91710  0.22760  Biso   1.000  C
  C55      1.0000 0.62530  0.58290  0.77240  Biso   1.000  C
  C56      1.0000 0.87470  0.41710  0.27240  Biso   1.000  C
  H77      1.0000 0.28230  0.09070  0.73960  Biso   1.000  H
  H78      1.0000 0.21770  0.90930  0.23960  Biso   1.000  H
  H79      1.0000 0.71770  0.59070  0.76040  Biso   1.000  H
  H80      1.0000 0.78230  0.40930  0.26040  Biso   1.000  H
  H81      1.0000 0.39130  0.12220  0.68230  Biso   1.000  H
  H82      1.0000 0.10870  0.87780  0.18230  Biso   1.000  H
  H83      1.0000 0.60870  0.62220  0.81770  Biso   1.000  H
  H84      1.0000 0.89130  0.37780  0.31770  Biso   1.000  H
  C57      1.0000 0.45560  0.13020  0.78790  Biso   1.000  C
  C58      1.0000 0.04440  0.86980  0.28790  Biso   1.000  C
  C59      1.0000 0.54440  0.63020  0.71210  Biso   1.000  C
  C60      1.0000 0.95560  0.36980  0.21210  Biso   1.000  C
  H85      1.0000 0.54770  0.12680  0.77460  Biso   1.000  H
  H86      1.0000 0.95230  0.87320  0.27460  Biso   1.000  H
  H87      1.0000 0.45230  0.62680  0.72540  Biso   1.000  H
  H88      1.0000 0.04770  0.37320  0.22540  Biso   1.000  H
  H89      1.0000 0.43230  0.20600  0.79470  Biso   1.000  H
  H90      1.0000 0.06770  0.79400  0.29470  Biso   1.000  H
  H91      1.0000 0.56770  0.70600  0.70530  Biso   1.000  H
  H92      1.0000 0.93230  0.29400  0.20530  Biso   1.000  H
  C61      1.0000 0.43430  0.07040  0.85770  Biso   1.000  C
  C62      1.0000 0.06570  0.92960  0.35770  Biso   1.000  C
  C63      1.0000 0.56570  0.57040  0.64230  Biso   1.000  C
  C64      1.0000 0.93430  0.42960  0.14230  Biso   1.000  C
  H93      1.0000 0.34090  0.07740  0.86990  Biso   1.000  H
  H94      1.0000 0.15910  0.92260  0.36990  Biso   1.000  H
  H95      1.0000 0.65910  0.57740  0.63010  Biso   1.000  H
  H96      1.0000 0.84090  0.42260  0.13010  Biso   1.000  H
  C65      1.0000 0.34680  0.83530  0.08450  Biso   1.000  C
  C66      1.0000 0.15320  0.16470  0.58450  Biso   1.000  C
  C67      1.0000 0.65320  0.33530  0.41550  Biso   1.000  C
  C68      1.0000 0.84680  0.66470  0.91550  Biso   1.000  C
  H97      1.0000 0.34890  0.78060  0.12220  Biso   1.000  H
  H98      1.0000 0.15110  0.21940  0.62220  Biso   1.000  H
  H99      1.0000 0.65110  0.28060  0.37780  Biso   1.000  H
  H100     1.0000 0.84890  0.71940  0.87780  Biso   1.000  H
  H101     1.0000 0.33290  0.80150  0.03750  Biso   1.000  H
  H102     1.0000 0.16710  0.19850  0.53750  Biso   1.000  H
  H103     1.0000 0.66710  0.30150  0.46250  Biso   1.000  H
  H104     1.0000 0.83290  0.69850  0.96250  Biso   1.000  H
  H105     1.0000 0.27650  0.88520  0.09440  Biso   1.000  H
  H106     1.0000 0.22350  0.11480  0.59440  Biso   1.000  H
  H107     1.0000 0.72350  0.38520  0.40560  Biso   1.000  H
  H108     1.0000 0.77650  0.61480  0.90560  Biso   1.000  H
  C69      1.0000 0.51540  0.19500  0.09110  Biso   1.000  C
  C70      1.0000 0.98460  0.80500  0.59110  Biso   1.000  C
  C71      1.0000 0.48460  0.69500  0.40890  Biso   1.000  C
  C72      1.0000 0.01540  0.30500  0.90890  Biso   1.000  C
  H109     1.0000 0.43240  0.18010  0.11410  Biso   1.000  H
  H110     1.0000 0.06760  0.81990  0.61410  Biso   1.000  H
  H111     1.0000 0.56760  0.68010  0.38590  Biso   1.000  H
  H112     1.0000 0.93240  0.31990  0.88590  Biso   1.000  H
  H113     1.0000 0.50100  0.23310  0.04570  Biso   1.000  H
  H114     1.0000 0.99900  0.76690  0.54570  Biso   1.000  H
  H115     1.0000 0.49900  0.73310  0.45430  Biso   1.000  H
  H116     1.0000 0.00100  0.26690  0.95430  Biso   1.000  H
  H117     1.0000 0.56790  0.23900  0.12340  Biso   1.000  H
  H118     1.0000 0.93210  0.76100  0.62340  Biso   1.000  H
  H119     1.0000 0.43210  0.73900  0.37660  Biso   1.000  H
  H120     1.0000 0.06790  0.26100  0.87660  Biso   1.000  H
  C73      1.0000 0.48560  0.78670  0.91870  Biso   1.000  C
  C74      1.0000 0.01440  0.21330  0.41870  Biso   1.000  C
  C75      1.0000 0.51440  0.28670  0.58130  Biso   1.000  C
  C76      1.0000 0.98560  0.71330  0.08130  Biso   1.000  C
  H121     1.0000 0.43530  0.74360  0.88470  Biso   1.000  H
  H122     1.0000 0.06470  0.25640  0.38470  Biso   1.000  H
  H123     1.0000 0.56470  0.24360  0.61530  Biso   1.000  H
  H124     1.0000 0.93530  0.75640  0.11530  Biso   1.000  H
  H125     1.0000 0.47820  0.75650  0.96730  Biso   1.000  H
  H126     1.0000 0.02180  0.24350  0.46730  Biso   1.000  H
  H127     1.0000 0.52180  0.25650  0.53270  Biso   1.000  H
  H128     1.0000 0.97820  0.74350  0.03270  Biso   1.000  H
  H129     1.0000 0.57610  0.78690  0.90390  Biso   1.000  H
  H130     1.0000 0.92390  0.21310  0.40390  Biso   1.000  H
  H131     1.0000 0.42390  0.28690  0.59610  Biso   1.000  H
  H132     1.0000 0.07610  0.71310  0.09610  Biso   1.000  H
  C77      1.0000 0.63740  0.15360  0.90470  Biso   1.000  C
  C78      1.0000 0.86260  0.84640  0.40470  Biso   1.000  C
  C79      1.0000 0.36260  0.65360  0.59530  Biso   1.000  C
  C80      1.0000 0.13740  0.34640  0.09530  Biso   1.000  C
  H133     1.0000 0.68970  0.09840  0.88160  Biso   1.000  H
  H134     1.0000 0.81030  0.90160  0.38160  Biso   1.000  H
  H135     1.0000 0.31030  0.59840  0.61840  Biso   1.000  H
  H136     1.0000 0.18970  0.40160  0.11840  Biso   1.000  H
  H137     1.0000 0.67890  0.17640  0.94960  Biso   1.000  H
  H138     1.0000 0.82110  0.82360  0.44960  Biso   1.000  H
  H139     1.0000 0.32110  0.67640  0.55040  Biso   1.000  H
  H140     1.0000 0.17890  0.32360  0.05040  Biso   1.000  H
  H141     1.0000 0.62930  0.21470  0.87200  Biso   1.000  H
  H142     1.0000 0.87070  0.78530  0.37200  Biso   1.000  H
  H143     1.0000 0.37070  0.71470  0.62800  Biso   1.000  H
  H144     1.0000 0.12930  0.28530  0.12800  Biso   1.000  H
