data_image0
_cell_length_a       12.5103
_cell_length_b       8.4276
_cell_length_c       24.401
_cell_angle_alpha    90
_cell_angle_beta     90
_cell_angle_gamma    90

_symmetry_space_group_name_H-M    "P 1"
_symmetry_int_tables_number       1

loop_
  _symmetry_equiv_pos_as_xyz
  'x, y, z'

loop_
  _atom_site_label
  _atom_site_occupancy
  _atom_site_fract_x
  _atom_site_fract_y
  _atom_site_fract_z
  _atom_site_thermal_displace_type
  _atom_site_B_iso_or_equiv
  _atom_site_type_symbol
  Cu1      1.0000 0.53960  0.25752  0.56526  Biso   1.000  Cu
  Cu2      1.0000 0.03960  0.25752  0.93474  Biso   1.000  Cu
  Cu3      1.0000 0.53960  0.24248  0.06526  Biso   1.000  Cu
  Cu4      1.0000 0.96040  0.75752  0.56526  Biso   1.000  Cu
  Cu5      1.0000 0.46040  0.74248  0.43474  Biso   1.000  Cu
  Cu6      1.0000 0.96040  0.74248  0.06526  Biso   1.000  Cu
  Cu7      1.0000 0.46040  0.75752  0.93474  Biso   1.000  Cu
  Cu8      1.0000 0.03960  0.24248  0.43474  Biso   1.000  Cu
  K1       1.0000 0.67949  0.64082  0.56987  Biso   1.000  K
  K2       1.0000 0.17949  0.64082  0.93013  Biso   1.000  K
  K3       1.0000 0.67949  0.85918  0.06987  Biso   1.000  K
  K4       1.0000 0.82051  0.14082  0.56987  Biso   1.000  K
  K5       1.0000 0.32051  0.35918  0.43013  Biso   1.000  K
  K6       1.0000 0.82051  0.35918  0.06987  Biso   1.000  K
  K7       1.0000 0.32051  0.14082  0.93013  Biso   1.000  K
  K8       1.0000 0.17949  0.85918  0.43013  Biso   1.000  K
  S1       1.0000 0.42592  0.54527  0.60540  Biso   1.000  S
  S2       1.0000 0.92592  0.54527  0.89460  Biso   1.000  S
  S3       1.0000 0.42592  0.95473  0.10540  Biso   1.000  S
  S4       1.0000 0.07408  0.04527  0.60540  Biso   1.000  S
  S5       1.0000 0.57408  0.45473  0.39460  Biso   1.000  S
  S6       1.0000 0.07408  0.45473  0.10540  Biso   1.000  S
  S7       1.0000 0.57408  0.04527  0.89460  Biso   1.000  S
  S8       1.0000 0.92592  0.95473  0.39460  Biso   1.000  S
  O1       1.0000 0.43047  0.20160  0.51065  Biso   1.000  O
  O2       1.0000 0.93047  0.20160  0.98935  Biso   1.000  O
  O3       1.0000 0.43047  0.29840  0.01065  Biso   1.000  O
  O4       1.0000 0.06953  0.70160  0.51065  Biso   1.000  O
  O5       1.0000 0.56953  0.79840  0.48935  Biso   1.000  O
  O6       1.0000 0.06953  0.79840  0.01065  Biso   1.000  O
  O7       1.0000 0.56953  0.70160  0.98935  Biso   1.000  O
  O8       1.0000 0.93047  0.29840  0.48935  Biso   1.000  O
  O9       1.0000 0.35931  0.00460  0.46337  Biso   1.000  O
  O10      1.0000 0.85931  0.00460  0.03663  Biso   1.000  O
  O11      1.0000 0.35931  0.49540  0.96337  Biso   1.000  O
  O12      1.0000 0.14069  0.50460  0.46337  Biso   1.000  O
  O13      1.0000 0.64069  0.99540  0.53663  Biso   1.000  O
  O14      1.0000 0.14069  0.99540  0.96337  Biso   1.000  O
  O15      1.0000 0.64069  0.50460  0.03663  Biso   1.000  O
  O16      1.0000 0.85931  0.49540  0.53663  Biso   1.000  O
  O17      1.0000 0.65687  0.31590  0.61194  Biso   1.000  O
  O18      1.0000 0.15687  0.31590  0.88806  Biso   1.000  O
  O19      1.0000 0.65687  0.18410  0.11194  Biso   1.000  O
  O20      1.0000 0.84313  0.81590  0.61194  Biso   1.000  O
  O21      1.0000 0.34313  0.68410  0.38806  Biso   1.000  O
  O22      1.0000 0.84313  0.68410  0.11194  Biso   1.000  O
  O23      1.0000 0.34313  0.81590  0.88806  Biso   1.000  O
  O24      1.0000 0.15687  0.18410  0.38806  Biso   1.000  O
  N1       1.0000 0.46025  0.15610  0.62445  Biso   1.000  N
  N2       1.0000 0.96025  0.15610  0.87555  Biso   1.000  N
  N3       1.0000 0.46025  0.34390  0.12445  Biso   1.000  N
  N4       1.0000 0.03975  0.65610  0.62445  Biso   1.000  N
  N5       1.0000 0.53975  0.84390  0.37555  Biso   1.000  N
  N6       1.0000 0.03975  0.84390  0.12445  Biso   1.000  N
  N7       1.0000 0.53975  0.65610  0.87555  Biso   1.000  N
  N8       1.0000 0.96025  0.34390  0.37555  Biso   1.000  N
  N9       1.0000 0.38870  0.62640  0.49602  Biso   1.000  N
  N10      1.0000 0.88870  0.62640  0.00398  Biso   1.000  N
  N11      1.0000 0.38870  0.87360  0.99602  Biso   1.000  N
  N12      1.0000 0.11130  0.12640  0.49602  Biso   1.000  N
  N13      1.0000 0.61130  0.37360  0.50398  Biso   1.000  N
  N14      1.0000 0.11130  0.37360  0.99602  Biso   1.000  N
  N15      1.0000 0.61130  0.12640  0.00398  Biso   1.000  N
  N16      1.0000 0.88870  0.87360  0.50398  Biso   1.000  N
  C1       1.0000 0.38530  0.06440  0.50777  Biso   1.000  C
  C2       1.0000 0.88530  0.06440  0.99223  Biso   1.000  C
  C3       1.0000 0.38530  0.43560  0.00777  Biso   1.000  C
  C4       1.0000 0.11470  0.56440  0.50777  Biso   1.000  C
  C5       1.0000 0.61470  0.93560  0.49223  Biso   1.000  C
  C6       1.0000 0.11470  0.93560  0.00777  Biso   1.000  C
  C7       1.0000 0.61470  0.56440  0.99223  Biso   1.000  C
  C8       1.0000 0.88530  0.43560  0.49223  Biso   1.000  C
  C9       1.0000 0.36440  0.97840  0.56086  Biso   1.000  C
  C10      1.0000 0.86440  0.97840  0.93914  Biso   1.000  C
  C11      1.0000 0.36440  0.52160  0.06086  Biso   1.000  C
  C12      1.0000 0.13560  0.47840  0.56086  Biso   1.000  C
  C13      1.0000 0.63560  0.02160  0.43914  Biso   1.000  C
  C14      1.0000 0.13560  0.02160  0.06086  Biso   1.000  C
  C15      1.0000 0.63560  0.47840  0.93914  Biso   1.000  C
  C16      1.0000 0.86440  0.52160  0.43914  Biso   1.000  C
  H1       1.0000 0.42310  0.90170  0.56740  Biso   1.000  H
  H2       1.0000 0.92310  0.90170  0.93260  Biso   1.000  H
  H3       1.0000 0.42310  0.59830  0.06740  Biso   1.000  H
  H4       1.0000 0.07690  0.40170  0.56740  Biso   1.000  H
  H5       1.0000 0.57690  0.09830  0.43260  Biso   1.000  H
  H6       1.0000 0.07690  0.09830  0.06740  Biso   1.000  H
  H7       1.0000 0.57690  0.40170  0.93260  Biso   1.000  H
  H8       1.0000 0.92310  0.59830  0.43260  Biso   1.000  H
  H9       1.0000 0.29720  0.91730  0.55740  Biso   1.000  H
  H10      1.0000 0.79720  0.91730  0.94260  Biso   1.000  H
  H11      1.0000 0.29720  0.58270  0.05740  Biso   1.000  H
  H12      1.0000 0.20280  0.41730  0.55740  Biso   1.000  H
  H13      1.0000 0.70280  0.08270  0.44260  Biso   1.000  H
  H14      1.0000 0.20280  0.08270  0.05740  Biso   1.000  H
  H15      1.0000 0.70280  0.41730  0.94260  Biso   1.000  H
  H16      1.0000 0.79720  0.58270  0.44260  Biso   1.000  H
  C17      1.0000 0.35580  0.08880  0.60999  Biso   1.000  C
  C18      1.0000 0.85580  0.08880  0.89001  Biso   1.000  C
  C19      1.0000 0.35580  0.41120  0.10999  Biso   1.000  C
  C20      1.0000 0.14420  0.58880  0.60999  Biso   1.000  C
  C21      1.0000 0.64420  0.91120  0.39001  Biso   1.000  C
  C22      1.0000 0.14420  0.91120  0.10999  Biso   1.000  C
  C23      1.0000 0.64420  0.58880  0.89001  Biso   1.000  C
  C24      1.0000 0.85580  0.41120  0.39001  Biso   1.000  C
  H17      1.0000 0.30540  0.17590  0.60140  Biso   1.000  H
  H18      1.0000 0.80540  0.17590  0.89860  Biso   1.000  H
  H19      1.0000 0.30540  0.32410  0.10140  Biso   1.000  H
  H20      1.0000 0.19460  0.67590  0.60140  Biso   1.000  H
  H21      1.0000 0.69460  0.82410  0.39860  Biso   1.000  H
  H22      1.0000 0.19460  0.82410  0.10140  Biso   1.000  H
  H23      1.0000 0.69460  0.67590  0.89860  Biso   1.000  H
  H24      1.0000 0.80540  0.32410  0.39860  Biso   1.000  H
  H25      1.0000 0.32700  0.02940  0.64170  Biso   1.000  H
  H26      1.0000 0.82700  0.02940  0.85830  Biso   1.000  H
  H27      1.0000 0.32700  0.47060  0.14170  Biso   1.000  H
  H28      1.0000 0.17300  0.52940  0.64170  Biso   1.000  H
  H29      1.0000 0.67300  0.97060  0.35830  Biso   1.000  H
  H30      1.0000 0.17300  0.97060  0.14170  Biso   1.000  H
  H31      1.0000 0.67300  0.52940  0.85830  Biso   1.000  H
  H32      1.0000 0.82700  0.47060  0.35830  Biso   1.000  H
  C25      1.0000 0.48640  0.15920  0.67532  Biso   1.000  C
  C26      1.0000 0.98640  0.15920  0.82468  Biso   1.000  C
  C27      1.0000 0.48640  0.34080  0.17532  Biso   1.000  C
  C28      1.0000 0.01360  0.65920  0.67532  Biso   1.000  C
  C29      1.0000 0.51360  0.84080  0.32468  Biso   1.000  C
  C30      1.0000 0.01360  0.84080  0.17532  Biso   1.000  C
  C31      1.0000 0.51360  0.65920  0.82468  Biso   1.000  C
  C32      1.0000 0.98640  0.34080  0.32468  Biso   1.000  C
  H33      1.0000 0.43820  0.11120  0.70040  Biso   1.000  H
  H34      1.0000 0.93820  0.11120  0.79960  Biso   1.000  H
  H35      1.0000 0.43820  0.38880  0.20040  Biso   1.000  H
  H36      1.0000 0.06180  0.61120  0.70040  Biso   1.000  H
  H37      1.0000 0.56180  0.88880  0.29960  Biso   1.000  H
  H38      1.0000 0.06180  0.88880  0.20040  Biso   1.000  H
  H39      1.0000 0.56180  0.61120  0.79960  Biso   1.000  H
  H40      1.0000 0.93820  0.38880  0.29960  Biso   1.000  H
  C33      1.0000 0.58180  0.22850  0.69791  Biso   1.000  C
  C34      1.0000 0.08180  0.22850  0.80209  Biso   1.000  C
  C35      1.0000 0.58180  0.27150  0.19791  Biso   1.000  C
  C36      1.0000 0.91820  0.72850  0.69791  Biso   1.000  C
  C37      1.0000 0.41820  0.77150  0.30209  Biso   1.000  C
  C38      1.0000 0.91820  0.77150  0.19791  Biso   1.000  C
  C39      1.0000 0.41820  0.72850  0.80209  Biso   1.000  C
  C40      1.0000 0.08180  0.27150  0.30209  Biso   1.000  C
  C41      1.0000 0.66160  0.30290  0.66566  Biso   1.000  C
  C42      1.0000 0.16160  0.30290  0.83434  Biso   1.000  C
  C43      1.0000 0.66160  0.19710  0.16566  Biso   1.000  C
  C44      1.0000 0.83840  0.80290  0.66566  Biso   1.000  C
  C45      1.0000 0.33840  0.69710  0.33434  Biso   1.000  C
  C46      1.0000 0.83840  0.69710  0.16566  Biso   1.000  C
  C47      1.0000 0.33840  0.80290  0.83434  Biso   1.000  C
  C48      1.0000 0.16160  0.19710  0.33434  Biso   1.000  C
  C49      1.0000 0.75180  0.36440  0.69284  Biso   1.000  C
  C50      1.0000 0.25180  0.36440  0.80716  Biso   1.000  C
  C51      1.0000 0.75180  0.13560  0.19284  Biso   1.000  C
  C52      1.0000 0.74820  0.86440  0.69284  Biso   1.000  C
  C53      1.0000 0.24820  0.63560  0.30716  Biso   1.000  C
  C54      1.0000 0.74820  0.63560  0.19284  Biso   1.000  C
  C55      1.0000 0.24820  0.86440  0.80716  Biso   1.000  C
  C56      1.0000 0.25180  0.13560  0.30716  Biso   1.000  C
  H41      1.0000 0.80640  0.41510  0.67220  Biso   1.000  H
  H42      1.0000 0.30640  0.41510  0.82780  Biso   1.000  H
  H43      1.0000 0.80640  0.08490  0.17220  Biso   1.000  H
  H44      1.0000 0.69360  0.91510  0.67220  Biso   1.000  H
  H45      1.0000 0.19360  0.58490  0.32780  Biso   1.000  H
  H46      1.0000 0.69360  0.58490  0.17220  Biso   1.000  H
  H47      1.0000 0.19360  0.91510  0.82780  Biso   1.000  H
  H48      1.0000 0.30640  0.08490  0.32780  Biso   1.000  H
  C57      1.0000 0.76230  0.35230  0.74892  Biso   1.000  C
  C58      1.0000 0.26230  0.35230  0.75108  Biso   1.000  C
  C59      1.0000 0.76230  0.14770  0.24892  Biso   1.000  C
  C60      1.0000 0.73770  0.85230  0.74892  Biso   1.000  C
  C61      1.0000 0.23770  0.64770  0.25108  Biso   1.000  C
  C62      1.0000 0.73770  0.64770  0.24892  Biso   1.000  C
  C63      1.0000 0.23770  0.85230  0.75108  Biso   1.000  C
  C64      1.0000 0.26230  0.14770  0.25108  Biso   1.000  C
  H49      1.0000 0.82420  0.39440  0.76620  Biso   1.000  H
  H50      1.0000 0.32420  0.39440  0.73380  Biso   1.000  H
  H51      1.0000 0.82420  0.10560  0.26620  Biso   1.000  H
  H52      1.0000 0.67580  0.89440  0.76620  Biso   1.000  H
  H53      1.0000 0.17580  0.60560  0.23380  Biso   1.000  H
  H54      1.0000 0.67580  0.60560  0.26620  Biso   1.000  H
  H55      1.0000 0.17580  0.89440  0.73380  Biso   1.000  H
  H56      1.0000 0.32420  0.10560  0.23380  Biso   1.000  H
  C65      1.0000 0.68440  0.28000  0.78067  Biso   1.000  C
  C66      1.0000 0.18440  0.28000  0.71933  Biso   1.000  C
  C67      1.0000 0.68440  0.22000  0.28067  Biso   1.000  C
  C68      1.0000 0.81560  0.78000  0.78067  Biso   1.000  C
  C69      1.0000 0.31560  0.72000  0.21933  Biso   1.000  C
  C70      1.0000 0.81560  0.72000  0.28067  Biso   1.000  C
  C71      1.0000 0.31560  0.78000  0.71933  Biso   1.000  C
  C72      1.0000 0.18440  0.22000  0.21933  Biso   1.000  C
  H57      1.0000 0.69260  0.27200  0.81930  Biso   1.000  H
  H58      1.0000 0.19260  0.27200  0.68070  Biso   1.000  H
  H59      1.0000 0.69260  0.22800  0.31930  Biso   1.000  H
  H60      1.0000 0.80740  0.77200  0.81930  Biso   1.000  H
  H61      1.0000 0.30740  0.72800  0.18070  Biso   1.000  H
  H62      1.0000 0.80740  0.72800  0.31930  Biso   1.000  H
  H63      1.0000 0.30740  0.77200  0.68070  Biso   1.000  H
  H64      1.0000 0.19260  0.22800  0.18070  Biso   1.000  H
  C73      1.0000 0.59490  0.22000  0.75529  Biso   1.000  C
  C74      1.0000 0.09490  0.22000  0.74471  Biso   1.000  C
  C75      1.0000 0.59490  0.28000  0.25529  Biso   1.000  C
  C76      1.0000 0.90510  0.72000  0.75529  Biso   1.000  C
  C77      1.0000 0.40510  0.78000  0.24471  Biso   1.000  C
  C78      1.0000 0.90510  0.78000  0.25529  Biso   1.000  C
  C79      1.0000 0.40510  0.72000  0.74471  Biso   1.000  C
  C80      1.0000 0.09490  0.28000  0.24471  Biso   1.000  C
  H65      1.0000 0.54070  0.17190  0.77690  Biso   1.000  H
  H66      1.0000 0.04070  0.17190  0.72310  Biso   1.000  H
  H67      1.0000 0.54070  0.32810  0.27690  Biso   1.000  H
  H68      1.0000 0.95930  0.67190  0.77690  Biso   1.000  H
  H69      1.0000 0.45930  0.82810  0.22310  Biso   1.000  H
  H70      1.0000 0.95930  0.82810  0.27690  Biso   1.000  H
  H71      1.0000 0.45930  0.67190  0.72310  Biso   1.000  H
  H72      1.0000 0.04070  0.32810  0.22310  Biso   1.000  H
  C81      1.0000 0.40380  0.59160  0.54133  Biso   1.000  C
  C82      1.0000 0.90380  0.59160  0.95867  Biso   1.000  C
  C83      1.0000 0.40380  0.90840  0.04133  Biso   1.000  C
  C84      1.0000 0.09620  0.09160  0.54133  Biso   1.000  C
  C85      1.0000 0.59620  0.40840  0.45867  Biso   1.000  C
  C86      1.0000 0.09620  0.40840  0.04133  Biso   1.000  C
  C87      1.0000 0.59620  0.09160  0.95867  Biso   1.000  C
  C88      1.0000 0.90380  0.90840  0.45867  Biso   1.000  C
