data_image0
_cell_length_a       6.6915
_cell_length_b       7.1211
_cell_length_c       18.551
_cell_angle_alpha    90
_cell_angle_beta     90
_cell_angle_gamma    90

_symmetry_space_group_name_H-M    "P 1"
_symmetry_int_tables_number       1

loop_
  _symmetry_equiv_pos_as_xyz
  'x, y, z'

loop_
  _atom_site_label
  _atom_site_occupancy
  _atom_site_fract_x
  _atom_site_fract_y
  _atom_site_fract_z
  _atom_site_thermal_displace_type
  _atom_site_B_iso_or_equiv
  _atom_site_type_symbol
  Cu1      1.0000 0.25000  0.22931  0.50000  Biso   1.000  Cu
  Cu2      1.0000 0.75000  0.27069  0.50000  Biso   1.000  Cu
  Cu3      1.0000 0.75000  0.72931  0.00000  Biso   1.000  Cu
  Cu4      1.0000 0.25000  0.77069  0.00000  Biso   1.000  Cu
  Cl1      1.0000 0.96140  0.49480  0.45576  Biso   1.000  Cl
  Cl2      1.0000 0.46140  0.00520  0.54424  Biso   1.000  Cl
  Cl3      1.0000 0.03860  0.99480  0.04424  Biso   1.000  Cl
  Cl4      1.0000 0.53860  0.50520  0.95576  Biso   1.000  Cl
  Cl5      1.0000 0.46140  0.99480  0.95576  Biso   1.000  Cl
  Cl6      1.0000 0.96140  0.50520  0.04424  Biso   1.000  Cl
  Cl7      1.0000 0.53860  0.49480  0.54424  Biso   1.000  Cl
  Cl8      1.0000 0.03860  0.00520  0.45576  Biso   1.000  Cl
  Cl9      1.0000 0.05420  0.48060  0.45447  Biso   1.000  Cl
  Cl10     1.0000 0.55420  0.01940  0.54553  Biso   1.000  Cl
  Cl11     1.0000 0.94580  0.98060  0.04553  Biso   1.000  Cl
  Cl12     1.0000 0.44580  0.51940  0.95447  Biso   1.000  Cl
  Cl13     1.0000 0.55420  0.98060  0.95447  Biso   1.000  Cl
  Cl14     1.0000 0.05420  0.51940  0.04553  Biso   1.000  Cl
  Cl15     1.0000 0.44580  0.48060  0.54553  Biso   1.000  Cl
  Cl16     1.0000 0.94580  0.01940  0.45447  Biso   1.000  Cl
  N1       1.0000 0.10100  0.23180  0.59245  Biso   1.000  N
  N2       1.0000 0.60100  0.26820  0.40755  Biso   1.000  N
  N3       1.0000 0.89900  0.73180  0.90755  Biso   1.000  N
  N4       1.0000 0.39900  0.76820  0.09245  Biso   1.000  N
  N5       1.0000 0.60100  0.73180  0.09245  Biso   1.000  N
  N6       1.0000 0.10100  0.76820  0.90755  Biso   1.000  N
  N7       1.0000 0.39900  0.23180  0.40755  Biso   1.000  N
  N8       1.0000 0.89900  0.26820  0.59245  Biso   1.000  N
  C1       1.0000 0.15930  0.22120  0.65945  Biso   1.000  C
  C2       1.0000 0.65930  0.27880  0.34055  Biso   1.000  C
  C3       1.0000 0.84070  0.72120  0.84055  Biso   1.000  C
  C4       1.0000 0.34070  0.77880  0.15945  Biso   1.000  C
  C5       1.0000 0.65930  0.72120  0.15945  Biso   1.000  C
  C6       1.0000 0.15930  0.77880  0.84055  Biso   1.000  C
  C7       1.0000 0.34070  0.22120  0.34055  Biso   1.000  C
  C8       1.0000 0.84070  0.27880  0.65945  Biso   1.000  C
  N9       1.0000 0.00000  0.25000  0.70301  Biso   1.000  N
  N10      1.0000 0.50000  0.25000  0.29699  Biso   1.000  N
  N11      1.0000 0.00000  0.75000  0.79699  Biso   1.000  N
  N12      1.0000 0.50000  0.75000  0.20301  Biso   1.000  N
  C9       1.0000 0.00000  0.25000  0.77971  Biso   1.000  C
  C10      1.0000 0.50000  0.25000  0.22029  Biso   1.000  C
  C11      1.0000 0.00000  0.75000  0.72029  Biso   1.000  C
  C12      1.0000 0.50000  0.75000  0.27971  Biso   1.000  C
  N13      1.0000 0.15610  0.30940  0.81631  Biso   1.000  N
  N14      1.0000 0.65610  0.19060  0.18369  Biso   1.000  N
  N15      1.0000 0.84390  0.80940  0.68369  Biso   1.000  N
  N16      1.0000 0.34390  0.69060  0.31631  Biso   1.000  N
  N17      1.0000 0.65610  0.80940  0.31631  Biso   1.000  N
  N18      1.0000 0.15610  0.69060  0.68369  Biso   1.000  N
  N19      1.0000 0.34390  0.30940  0.18369  Biso   1.000  N
  N20      1.0000 0.84390  0.19060  0.81631  Biso   1.000  N
  C13      1.0000 0.09010  0.28400  0.88439  Biso   1.000  C
  C14      1.0000 0.59010  0.21600  0.11561  Biso   1.000  C
  C15      1.0000 0.90990  0.78400  0.61561  Biso   1.000  C
  C16      1.0000 0.40990  0.71600  0.38439  Biso   1.000  C
  C17      1.0000 0.59010  0.78400  0.38439  Biso   1.000  C
  C18      1.0000 0.09010  0.71600  0.61561  Biso   1.000  C
  C19      1.0000 0.40990  0.28400  0.11561  Biso   1.000  C
  C20      1.0000 0.90990  0.21600  0.88439  Biso   1.000  C
  O1       1.0000 0.01700  0.00000  0.25000  Biso   1.000  O
  O2       1.0000 0.51700  0.50000  0.75000  Biso   1.000  O
  O3       1.0000 0.98300  0.50000  0.25000  Biso   1.000  O
  O4       1.0000 0.48300  0.00000  0.75000  Biso   1.000  O
  H1       1.0000 0.28300  0.19500  0.67570  Biso   1.000  H
  H2       1.0000 0.78300  0.30500  0.32430  Biso   1.000  H
  H3       1.0000 0.71700  0.69500  0.82430  Biso   1.000  H
  H4       1.0000 0.21700  0.80500  0.17570  Biso   1.000  H
  H5       1.0000 0.78300  0.69500  0.17570  Biso   1.000  H
  H6       1.0000 0.28300  0.80500  0.82430  Biso   1.000  H
  H7       1.0000 0.21700  0.19500  0.32430  Biso   1.000  H
  H8       1.0000 0.71700  0.30500  0.67570  Biso   1.000  H
  H9       1.0000 0.15600  0.32000  0.92360  Biso   1.000  H
  H10      1.0000 0.65600  0.18000  0.07640  Biso   1.000  H
  H11      1.0000 0.84400  0.82000  0.57640  Biso   1.000  H
  H12      1.0000 0.34400  0.68000  0.42360  Biso   1.000  H
  H13      1.0000 0.65600  0.82000  0.42360  Biso   1.000  H
  H14      1.0000 0.15600  0.68000  0.57640  Biso   1.000  H
  H15      1.0000 0.34400  0.32000  0.07640  Biso   1.000  H
  H16      1.0000 0.84400  0.18000  0.92360  Biso   1.000  H
  H17      1.0000 0.95000  0.05300  0.21960  Biso   1.000  H
  H18      1.0000 0.45000  0.44700  0.78040  Biso   1.000  H
  H19      1.0000 0.05000  0.55300  0.28040  Biso   1.000  H
  H20      1.0000 0.55000  0.94700  0.71960  Biso   1.000  H
  H21      1.0000 0.45000  0.55300  0.71960  Biso   1.000  H
  H22      1.0000 0.95000  0.94700  0.28040  Biso   1.000  H
  H23      1.0000 0.55000  0.05300  0.78040  Biso   1.000  H
  H24      1.0000 0.05000  0.44700  0.21960  Biso   1.000  H
