data_image0
_cell_length_a       7.167
_cell_length_b       7.774
_cell_length_c       14.374
_cell_angle_alpha    99.15
_cell_angle_beta     90.572
_cell_angle_gamma    103.139

_symmetry_space_group_name_H-M    "P 1"
_symmetry_int_tables_number       1

loop_
  _symmetry_equiv_pos_as_xyz
  'x, y, z'

loop_
  _atom_site_label
  _atom_site_occupancy
  _atom_site_fract_x
  _atom_site_fract_y
  _atom_site_fract_z
  _atom_site_thermal_displace_type
  _atom_site_B_iso_or_equiv
  _atom_site_type_symbol
  C1       1.0000 0.44770  0.86010  0.10160  Biso   1.000  C
  C2       1.0000 0.55230  0.13990  0.89840  Biso   1.000  C
  O1       1.0000 0.82490  0.08970  0.34314  Biso   1.000  O
  O2       1.0000 0.17510  0.91030  0.65686  Biso   1.000  O
  I1       1.0000 0.02016  0.21711  0.10191  Biso   1.000  I
  I2       1.0000 0.97984  0.78289  0.89809  Biso   1.000  I
  Cu1      1.0000 0.60760  0.12199  0.26783  Biso   1.000  Cu
  Cu2      1.0000 0.39240  0.87801  0.73217  Biso   1.000  Cu
  S1       1.0000 0.22873  0.86144  0.37415  Biso   1.000  S
  S2       1.0000 0.77127  0.13856  0.62585  Biso   1.000  S
  C3       1.0000 0.57370  0.69890  0.43510  Biso   1.000  C
  C4       1.0000 0.42630  0.30110  0.56490  Biso   1.000  C
  C5       1.0000 0.51810  0.58260  0.03610  Biso   1.000  C
  C6       1.0000 0.48190  0.41740  0.96390  Biso   1.000  C
  O3       1.0000 0.40410  0.99880  0.37330  Biso   1.000  O
  O4       1.0000 0.59590  0.00120  0.62670  Biso   1.000  O
  C7       1.0000 0.35990  0.32490  0.23770  Biso   1.000  C
  C8       1.0000 0.64010  0.67510  0.76230  Biso   1.000  C
  O5       1.0000 0.07370  0.88030  0.31330  Biso   1.000  O
  O6       1.0000 0.92630  0.11970  0.68670  Biso   1.000  O
  C9       1.0000 0.75090  0.46840  0.40930  Biso   1.000  C
  C10      1.0000 0.24910  0.53160  0.59070  Biso   1.000  C
  O7       1.0000 0.41010  0.18280  0.19707  Biso   1.000  O
  O8       1.0000 0.58990  0.81720  0.80293  Biso   1.000  O
  O9       1.0000 0.17380  0.84510  0.46980  Biso   1.000  O
  O10      1.0000 0.82620  0.15490  0.53020  Biso   1.000  O
  C11      1.0000 0.47820  0.43780  0.31530  Biso   1.000  C
  C12      1.0000 0.52180  0.56220  0.68470  Biso   1.000  C
  C13      1.0000 0.16280  0.54550  0.25350  Biso   1.000  C
  C14      1.0000 0.83720  0.45450  0.74650  Biso   1.000  C
  C15      1.0000 0.65040  0.61520  0.10860  Biso   1.000  C
  C16      1.0000 0.34960  0.38480  0.89140  Biso   1.000  C
  C17      1.0000 0.44290  0.60100  0.35980  Biso   1.000  C
  C18      1.0000 0.55710  0.39900  0.64020  Biso   1.000  C
  N1       1.0000 0.58070  0.89440  0.17150  Biso   1.000  N
  N2       1.0000 0.41930  0.10560  0.82850  Biso   1.000  N
  C19      1.0000 0.28080  0.65450  0.32560  Biso   1.000  C
  C20      1.0000 0.71920  0.34550  0.67440  Biso   1.000  C
  C21      1.0000 0.72630  0.63280  0.45820  Biso   1.000  C
  C22      1.0000 0.27370  0.36720  0.54180  Biso   1.000  C
  N3       1.0000 0.63030  0.37290  0.34050  Biso   1.000  N
  N4       1.0000 0.36970  0.62710  0.65950  Biso   1.000  N
  C23      1.0000 0.20090  0.38180  0.21100  Biso   1.000  C
  C24      1.0000 0.79910  0.61820  0.78900  Biso   1.000  C
  C25      1.0000 0.67670  0.77100  0.17450  Biso   1.000  C
  C26      1.0000 0.32330  0.22900  0.82550  Biso   1.000  C
  C27      1.0000 0.43180  0.72130  0.02660  Biso   1.000  C
  C28      1.0000 0.56820  0.27870  0.97340  Biso   1.000  C
  H1       1.0000 0.85100  0.42700  0.42400  Biso   1.000  H
  H2       1.0000 0.14900  0.57300  0.57600  Biso   1.000  H
  H3       1.0000 0.55200  0.79900  0.46200  Biso   1.000  H
  H4       1.0000 0.44800  0.20100  0.53800  Biso   1.000  H
  H5       1.0000 0.06700  0.59100  0.23800  Biso   1.000  H
  H6       1.0000 0.93300  0.40900  0.76200  Biso   1.000  H
  H7       1.0000 0.81900  0.68900  0.49900  Biso   1.000  H
  H8       1.0000 0.18100  0.31100  0.50100  Biso   1.000  H
  H9       1.0000 0.73000  0.52800  0.11900  Biso   1.000  H
  H10      1.0000 0.27000  0.47200  0.88100  Biso   1.000  H
  H11      1.0000 0.75800  0.80000  0.22500  Biso   1.000  H
  H12      1.0000 0.24200  0.20000  0.77500  Biso   1.000  H
  H13      1.0000 0.41300  0.95600  0.08200  Biso   1.000  H
  H14      1.0000 0.58700  0.04400  0.91800  Biso   1.000  H
  H15      1.0000 0.36700  0.67700  0.06100  Biso   1.000  H
  H16      1.0000 0.63300  0.32300  0.93900  Biso   1.000  H
