data_image0
_cell_length_a       7.663
_cell_length_b       29.474
_cell_length_c       9.7421
_cell_angle_alpha    90
_cell_angle_beta     101.823
_cell_angle_gamma    90

_symmetry_space_group_name_H-M    "P 1"
_symmetry_int_tables_number       1

loop_
  _symmetry_equiv_pos_as_xyz
  'x, y, z'

loop_
  _atom_site_label
  _atom_site_occupancy
  _atom_site_fract_x
  _atom_site_fract_y
  _atom_site_fract_z
  _atom_site_thermal_displace_type
  _atom_site_B_iso_or_equiv
  _atom_site_type_symbol
  Mo1      1.0000 0.27613  0.48097  0.97780  Biso   1.000  Mo
  Mo2      1.0000 0.72387  0.98097  0.52220  Biso   1.000  Mo
  Mo3      1.0000 0.72387  0.51903  0.02220  Biso   1.000  Mo
  Mo4      1.0000 0.27613  0.01903  0.47780  Biso   1.000  Mo
  Mo5      1.0000 0.47250  0.47050  0.71588  Biso   1.000  Mo
  Mo6      1.0000 0.52750  0.97050  0.78412  Biso   1.000  Mo
  Mo7      1.0000 0.52750  0.52950  0.28412  Biso   1.000  Mo
  Mo8      1.0000 0.47250  0.02950  0.21588  Biso   1.000  Mo
  Mo9      1.0000 0.65016  0.41123  0.00898  Biso   1.000  Mo
  Mo10     1.0000 0.34984  0.91123  0.49102  Biso   1.000  Mo
  Mo11     1.0000 0.34984  0.58877  0.99102  Biso   1.000  Mo
  Mo12     1.0000 0.65016  0.08877  0.50898  Biso   1.000  Mo
  Mo13     1.0000 0.54586  0.57979  0.72831  Biso   1.000  Mo
  Mo14     1.0000 0.45414  0.07979  0.77169  Biso   1.000  Mo
  Mo15     1.0000 0.45414  0.42021  0.27169  Biso   1.000  Mo
  Mo16     1.0000 0.54586  0.92021  0.22831  Biso   1.000  Mo
  Cu1      1.0000 0.97076  0.39458  0.32871  Biso   1.000  Cu
  Cu2      1.0000 0.02924  0.89458  0.17129  Biso   1.000  Cu
  Cu3      1.0000 0.02924  0.60542  0.67129  Biso   1.000  Cu
  Cu4      1.0000 0.97076  0.10542  0.82871  Biso   1.000  Cu
  C1       1.0000 0.04140  0.18531  0.67300  Biso   1.000  C
  C2       1.0000 0.95860  0.68531  0.82700  Biso   1.000  C
  C3       1.0000 0.95860  0.81469  0.32700  Biso   1.000  C
  C4       1.0000 0.04140  0.31469  0.17300  Biso   1.000  C
  H1       1.0000 0.13730  0.16850  0.65590  Biso   1.000  H
  H2       1.0000 0.86270  0.66850  0.84410  Biso   1.000  H
  H3       1.0000 0.86270  0.83150  0.34410  Biso   1.000  H
  H4       1.0000 0.13730  0.33150  0.15590  Biso   1.000  H
  C5       1.0000 0.00300  0.22617  0.60720  Biso   1.000  C
  C6       1.0000 0.99700  0.72617  0.89280  Biso   1.000  C
  C7       1.0000 0.99700  0.77383  0.39280  Biso   1.000  C
  C8       1.0000 0.00300  0.27383  0.10720  Biso   1.000  C
  H5       1.0000 0.07310  0.23720  0.54710  Biso   1.000  H
  H6       1.0000 0.92690  0.73720  0.95290  Biso   1.000  H
  H7       1.0000 0.92690  0.76280  0.45290  Biso   1.000  H
  H8       1.0000 0.07310  0.26280  0.04710  Biso   1.000  H
  C9       1.0000 0.85910  0.25085  0.63100  Biso   1.000  C
  C10      1.0000 0.14090  0.75085  0.86900  Biso   1.000  C
  C11      1.0000 0.14090  0.74915  0.36900  Biso   1.000  C
  C12      1.0000 0.85910  0.24915  0.13100  Biso   1.000  C
  H9       1.0000 0.83160  0.27860  0.58650  Biso   1.000  H
  H10      1.0000 0.16840  0.77860  0.91350  Biso   1.000  H
  H11      1.0000 0.16840  0.72140  0.41350  Biso   1.000  H
  H12      1.0000 0.83160  0.22140  0.08650  Biso   1.000  H
  C13      1.0000 0.75590  0.23440  0.72070  Biso   1.000  C
  C14      1.0000 0.24410  0.73440  0.77930  Biso   1.000  C
  C15      1.0000 0.24410  0.76560  0.27930  Biso   1.000  C
  C16      1.0000 0.75590  0.26560  0.22070  Biso   1.000  C
  C17      1.0000 0.80570  0.19243  0.78420  Biso   1.000  C
  C18      1.0000 0.19430  0.69243  0.71580  Biso   1.000  C
  C19      1.0000 0.19430  0.80757  0.21580  Biso   1.000  C
  C20      1.0000 0.80570  0.30757  0.28420  Biso   1.000  C
  H13      1.0000 0.73840  0.18050  0.84510  Biso   1.000  H
  H14      1.0000 0.26160  0.68050  0.65490  Biso   1.000  H
  H15      1.0000 0.26160  0.81950  0.15490  Biso   1.000  H
  H16      1.0000 0.73840  0.31950  0.34510  Biso   1.000  H
  C21      1.0000 0.59640  0.25573  0.75160  Biso   1.000  C
  C22      1.0000 0.40360  0.75573  0.74840  Biso   1.000  C
  C23      1.0000 0.40360  0.74427  0.24840  Biso   1.000  C
  C24      1.0000 0.59640  0.24427  0.25160  Biso   1.000  C
  C25      1.0000 0.36680  0.29909  0.74990  Biso   1.000  C
  C26      1.0000 0.63320  0.79909  0.75010  Biso   1.000  C
  C27      1.0000 0.63320  0.70091  0.25010  Biso   1.000  C
  C28      1.0000 0.36680  0.20091  0.24990  Biso   1.000  C
  C29      1.0000 0.22950  0.33432  0.71110  Biso   1.000  C
  C30      1.0000 0.77050  0.83432  0.78890  Biso   1.000  C
  C31      1.0000 0.77050  0.66568  0.28890  Biso   1.000  C
  C32      1.0000 0.22950  0.16568  0.21110  Biso   1.000  C
  C33      1.0000 0.16780  0.34551  0.57150  Biso   1.000  C
  C34      1.0000 0.83220  0.84551  0.92850  Biso   1.000  C
  C35      1.0000 0.83220  0.65449  0.42850  Biso   1.000  C
  C36      1.0000 0.16780  0.15449  0.07150  Biso   1.000  C
  H17      1.0000 0.21590  0.33070  0.50350  Biso   1.000  H
  H18      1.0000 0.78410  0.83070  0.99650  Biso   1.000  H
  H19      1.0000 0.78410  0.66930  0.49650  Biso   1.000  H
  H20      1.0000 0.21590  0.16930  0.00350  Biso   1.000  H
  C37      1.0000 0.96940  0.39731  0.62870  Biso   1.000  C
  C38      1.0000 0.03060  0.89731  0.87130  Biso   1.000  C
  C39      1.0000 0.03060  0.60269  0.37130  Biso   1.000  C
  C40      1.0000 0.96940  0.10269  0.12870  Biso   1.000  C
  H21      1.0000 0.88200  0.41920  0.60080  Biso   1.000  H
  H22      1.0000 0.11800  0.91920  0.89920  Biso   1.000  H
  H23      1.0000 0.11800  0.58080  0.39920  Biso   1.000  H
  H24      1.0000 0.88200  0.08080  0.10080  Biso   1.000  H
  C41      1.0000 0.02030  0.38708  0.76970  Biso   1.000  C
  C42      1.0000 0.97970  0.88708  0.73030  Biso   1.000  C
  C43      1.0000 0.97970  0.61292  0.23030  Biso   1.000  C
  C44      1.0000 0.02030  0.11292  0.26970  Biso   1.000  C
  H25      1.0000 0.96550  0.40120  0.83510  Biso   1.000  H
  H26      1.0000 0.03450  0.90120  0.66490  Biso   1.000  H
  H27      1.0000 0.03450  0.59880  0.16490  Biso   1.000  H
  H28      1.0000 0.96550  0.09880  0.33510  Biso   1.000  H
  C45      1.0000 0.15390  0.35558  0.81160  Biso   1.000  C
  C46      1.0000 0.84610  0.85558  0.68840  Biso   1.000  C
  C47      1.0000 0.84610  0.64442  0.18840  Biso   1.000  C
  C48      1.0000 0.15390  0.14442  0.31160  Biso   1.000  C
  H29      1.0000 0.19260  0.34870  0.90610  Biso   1.000  H
  H30      1.0000 0.80740  0.84870  0.59390  Biso   1.000  H
  H31      1.0000 0.80740  0.65130  0.09390  Biso   1.000  H
  H32      1.0000 0.19260  0.15130  0.40610  Biso   1.000  H
  N1       1.0000 0.94410  0.16902  0.76150  Biso   1.000  N
  N2       1.0000 0.05590  0.66902  0.73850  Biso   1.000  N
  N3       1.0000 0.05590  0.83098  0.23850  Biso   1.000  N
  N4       1.0000 0.94410  0.33098  0.26150  Biso   1.000  N
  N5       1.0000 0.50620  0.23907  0.84200  Biso   1.000  N
  N6       1.0000 0.49380  0.73907  0.65800  Biso   1.000  N
  N7       1.0000 0.49380  0.76093  0.15800  Biso   1.000  N
  N8       1.0000 0.50620  0.26093  0.34200  Biso   1.000  N
  N9       1.0000 0.36030  0.26658  0.84140  Biso   1.000  N
  N10      1.0000 0.63970  0.76658  0.65860  Biso   1.000  N
  N11      1.0000 0.63970  0.73342  0.15860  Biso   1.000  N
  N12      1.0000 0.36030  0.23342  0.34140  Biso   1.000  N
  N13      1.0000 0.51180  0.29378  0.69110  Biso   1.000  N
  N14      1.0000 0.48820  0.79378  0.80890  Biso   1.000  N
  N15      1.0000 0.48820  0.70622  0.30890  Biso   1.000  N
  N16      1.0000 0.51180  0.20622  0.19110  Biso   1.000  N
  N17      1.0000 0.57880  0.32362  0.60150  Biso   1.000  N
  N18      1.0000 0.42120  0.82362  0.89850  Biso   1.000  N
  N19      1.0000 0.42120  0.67638  0.39850  Biso   1.000  N
  N20      1.0000 0.57880  0.17638  0.10150  Biso   1.000  N
  H33      1.0000 0.52590  0.34900  0.57760  Biso   1.000  H
  H34      1.0000 0.47410  0.84900  0.92240  Biso   1.000  H
  H35      1.0000 0.47410  0.65100  0.42240  Biso   1.000  H
  H36      1.0000 0.52590  0.15100  0.07760  Biso   1.000  H
  H37      1.0000 0.67260  0.31650  0.57070  Biso   1.000  H
  H38      1.0000 0.32740  0.81650  0.92930  Biso   1.000  H
  H39      1.0000 0.32740  0.68350  0.42930  Biso   1.000  H
  H40      1.0000 0.67260  0.18350  0.07070  Biso   1.000  H
  N21      1.0000 0.04130  0.37681  0.53100  Biso   1.000  N
  N22      1.0000 0.95870  0.87681  0.96900  Biso   1.000  N
  N23      1.0000 0.95870  0.62319  0.46900  Biso   1.000  N
  N24      1.0000 0.04130  0.12319  0.03100  Biso   1.000  N
  O1       1.0000 0.08480  0.48882  0.85790  Biso   1.000  O
  O2       1.0000 0.91520  0.98882  0.64210  Biso   1.000  O
  O3       1.0000 0.91520  0.51118  0.14210  Biso   1.000  O
  O4       1.0000 0.08480  0.01118  0.35790  Biso   1.000  O
  O5       1.0000 0.39810  0.43786  0.87480  Biso   1.000  O
  O6       1.0000 0.60190  0.93786  0.62520  Biso   1.000  O
  O7       1.0000 0.60190  0.56214  0.12520  Biso   1.000  O
  O8       1.0000 0.39810  0.06214  0.37480  Biso   1.000  O
  O9       1.0000 0.44190  0.52517  0.87890  Biso   1.000  O
  O10      1.0000 0.55810  0.02517  0.62110  Biso   1.000  O
  O11      1.0000 0.55810  0.47483  0.12110  Biso   1.000  O
  O12      1.0000 0.44190  0.97483  0.37890  Biso   1.000  O
  O13      1.0000 0.84780  0.40978  0.13490  Biso   1.000  O
  O14      1.0000 0.15220  0.90978  0.36510  Biso   1.000  O
  O15      1.0000 0.15220  0.59022  0.86510  Biso   1.000  O
  O16      1.0000 0.84780  0.09022  0.63490  Biso   1.000  O
  O17      1.0000 0.49300  0.38555  0.11100  Biso   1.000  O
  O18      1.0000 0.50700  0.88555  0.38900  Biso   1.000  O
  O19      1.0000 0.50700  0.61445  0.88900  Biso   1.000  O
  O20      1.0000 0.49300  0.11445  0.61100  Biso   1.000  O
  O21      1.0000 0.66730  0.36926  0.89480  Biso   1.000  O
  O22      1.0000 0.33270  0.86926  0.60520  Biso   1.000  O
  O23      1.0000 0.33270  0.63074  0.10520  Biso   1.000  O
  O24      1.0000 0.66730  0.13074  0.39480  Biso   1.000  O
  O25      1.0000 0.28410  0.53480  0.09220  Biso   1.000  O
  O26      1.0000 0.71590  0.03480  0.40780  Biso   1.000  O
  O27      1.0000 0.71590  0.46520  0.90780  Biso   1.000  O
  O28      1.0000 0.28410  0.96520  0.59220  Biso   1.000  O
  O29      1.0000 0.56460  0.42641  0.64490  Biso   1.000  O
  O30      1.0000 0.43540  0.92641  0.85510  Biso   1.000  O
  O31      1.0000 0.43540  0.57359  0.35510  Biso   1.000  O
  O32      1.0000 0.56460  0.07359  0.14490  Biso   1.000  O
  O33      1.0000 0.26560  0.47677  0.61430  Biso   1.000  O
  O34      1.0000 0.73440  0.97677  0.88570  Biso   1.000  O
  O35      1.0000 0.73440  0.52323  0.38570  Biso   1.000  O
  O36      1.0000 0.26560  0.02323  0.11430  Biso   1.000  O
  O37      1.0000 0.59480  0.52144  0.66160  Biso   1.000  O
  O38      1.0000 0.40520  0.02144  0.83840  Biso   1.000  O
  O39      1.0000 0.40520  0.47856  0.33840  Biso   1.000  O
  O40      1.0000 0.59480  0.97856  0.16160  Biso   1.000  O
  O41      1.0000 0.33940  0.59110  0.63000  Biso   1.000  O
  O42      1.0000 0.66060  0.09110  0.87000  Biso   1.000  O
  O43      1.0000 0.66060  0.40890  0.37000  Biso   1.000  O
  O44      1.0000 0.33940  0.90890  0.13000  Biso   1.000  O
  O45      1.0000 0.68980  0.61417  0.66400  Biso   1.000  O
  O46      1.0000 0.31020  0.11417  0.83600  Biso   1.000  O
  O47      1.0000 0.31020  0.38583  0.33600  Biso   1.000  O
  O48      1.0000 0.68980  0.88583  0.16400  Biso   1.000  O
  O49      1.0000 0.22420  0.44163  0.09660  Biso   1.000  O
  O50      1.0000 0.77580  0.94163  0.40340  Biso   1.000  O
  O51      1.0000 0.77580  0.55837  0.90340  Biso   1.000  O
  O52      1.0000 0.22420  0.05837  0.59660  Biso   1.000  O
  O53      1.0000 0.02240  0.45733  0.37450  Biso   1.000  O
  O54      1.0000 0.97760  0.95733  0.12550  Biso   1.000  O
  O55      1.0000 0.97760  0.54267  0.62550  Biso   1.000  O
  O56      1.0000 0.02240  0.04267  0.87450  Biso   1.000  O
  H41      1.0000 0.11380  0.45910  0.43510  Biso   1.000  H
  H42      1.0000 0.88620  0.95910  0.06490  Biso   1.000  H
  H43      1.0000 0.88620  0.54090  0.56490  Biso   1.000  H
  H44      1.0000 0.11380  0.04090  0.93510  Biso   1.000  H
  H45      1.0000 0.99000  0.47920  0.30520  Biso   1.000  H
  H46      1.0000 0.01000  0.97920  0.19480  Biso   1.000  H
  H47      1.0000 0.01000  0.52080  0.69480  Biso   1.000  H
  H48      1.0000 0.99000  0.02080  0.80520  Biso   1.000  H
