data_image0
_cell_length_a       9.6892
_cell_length_b       9.8474
_cell_length_c       13.533
_cell_angle_alpha    99.395
_cell_angle_beta     109.368
_cell_angle_gamma    101.945

_symmetry_space_group_name_H-M    "P 1"
_symmetry_int_tables_number       1

loop_
  _symmetry_equiv_pos_as_xyz
  'x, y, z'

loop_
  _atom_site_label
  _atom_site_occupancy
  _atom_site_fract_x
  _atom_site_fract_y
  _atom_site_fract_z
  _atom_site_thermal_displace_type
  _atom_site_B_iso_or_equiv
  _atom_site_type_symbol
  Cu1      1.0000 0.59089  0.18133  0.02505  Biso   1.000  Cu
  Cu2      1.0000 0.40911  0.81867  0.97495  Biso   1.000  Cu
  Mo1      1.0000 0.45418  0.69298  0.64056  Biso   1.000  Mo
  Mo2      1.0000 0.54582  0.30702  0.35944  Biso   1.000  Mo
  Mo3      1.0000 0.40530  0.30006  0.55554  Biso   1.000  Mo
  Mo4      1.0000 0.59470  0.69994  0.44446  Biso   1.000  Mo
  Mo5      1.0000 0.67600  0.12113  0.53650  Biso   1.000  Mo
  Mo6      1.0000 0.32400  0.87887  0.46350  Biso   1.000  Mo
  Mo7      1.0000 0.48809  0.09143  0.71241  Biso   1.000  Mo
  Mo8      1.0000 0.51191  0.90857  0.28759  Biso   1.000  Mo
  C1       1.0000 0.65460  0.45160  0.96940  Biso   1.000  C
  C2       1.0000 0.34540  0.54840  0.03060  Biso   1.000  C
  H1       1.0000 0.62700  0.39320  0.90060  Biso   1.000  H
  H2       1.0000 0.37300  0.60680  0.09940  Biso   1.000  H
  C3       1.0000 0.67780  0.59770  0.98130  Biso   1.000  C
  C4       1.0000 0.32220  0.40230  0.01870  Biso   1.000  C
  H3       1.0000 0.66370  0.63600  0.92140  Biso   1.000  H
  H4       1.0000 0.33630  0.36400  0.07860  Biso   1.000  H
  C5       1.0000 0.72250  0.68640  0.08380  Biso   1.000  C
  C6       1.0000 0.27750  0.31360  0.91620  Biso   1.000  C
  C7       1.0000 0.74410  0.62490  0.17100  Biso   1.000  C
  C8       1.0000 0.25590  0.37510  0.82900  Biso   1.000  C
  H5       1.0000 0.77660  0.68150  0.24110  Biso   1.000  H
  H6       1.0000 0.22340  0.31850  0.75890  Biso   1.000  H
  C9       1.0000 0.71620  0.47760  0.15150  Biso   1.000  C
  C10      1.0000 0.28380  0.52240  0.84850  Biso   1.000  C
  H7       1.0000 0.73030  0.43690  0.21020  Biso   1.000  H
  H8       1.0000 0.26970  0.56310  0.78980  Biso   1.000  H
  C11      1.0000 0.74010  0.84110  0.09630  Biso   1.000  C
  C12      1.0000 0.25990  0.15890  0.90370  Biso   1.000  C
  C13      1.0000 0.83740  0.07130  0.15450  Biso   1.000  C
  C14      1.0000 0.16260  0.92870  0.84550  Biso   1.000  C
  C15      1.0000 0.94310  0.21250  0.21970  Biso   1.000  C
  C16      1.0000 0.05690  0.78750  0.78030  Biso   1.000  C
  C17      1.0000 0.01430  0.30420  0.17170  Biso   1.000  C
  C18      1.0000 0.98570  0.69580  0.82830  Biso   1.000  C
  H9       1.0000 0.99410  0.27840  0.09800  Biso   1.000  H
  H10      1.0000 0.00590  0.72160  0.90200  Biso   1.000  H
  C19      1.0000 0.11430  0.43270  0.23530  Biso   1.000  C
  C20      1.0000 0.88570  0.56730  0.76470  Biso   1.000  C
  H11      1.0000 0.16480  0.49430  0.20520  Biso   1.000  H
  H12      1.0000 0.83520  0.50570  0.79480  Biso   1.000  H
  C21      1.0000 0.07070  0.38570  0.38730  Biso   1.000  C
  C22      1.0000 0.92930  0.61430  0.61270  Biso   1.000  C
  H13      1.0000 0.08970  0.41640  0.46050  Biso   1.000  H
  H14      1.0000 0.91030  0.58360  0.53950  Biso   1.000  H
  C23      1.0000 0.97010  0.25220  0.32780  Biso   1.000  C
  C24      1.0000 0.02990  0.74780  0.67220  Biso   1.000  C
  H15      1.0000 0.92270  0.19180  0.36030  Biso   1.000  H
  H16      1.0000 0.07730  0.80820  0.63970  Biso   1.000  H
  N1       1.0000 0.66990  0.39000  0.05250  Biso   1.000  N
  N2       1.0000 0.33010  0.61000  0.94750  Biso   1.000  N
  N3       1.0000 0.63930  0.89900  0.04370  Biso   1.000  N
  N4       1.0000 0.36070  0.10100  0.95630  Biso   1.000  N
  N5       1.0000 0.70270  0.04730  0.07950  Biso   1.000  N
  N6       1.0000 0.29730  0.95270  0.92050  Biso   1.000  N
  N7       1.0000 0.86600  0.94500  0.16680  Biso   1.000  N
  N8       1.0000 0.13400  0.05500  0.83320  Biso   1.000  N
  N9       1.0000 0.99340  0.91900  0.23920  Biso   1.000  N
  N10      1.0000 0.00660  0.08100  0.76080  Biso   1.000  N
  H17      1.0000 0.06800  0.98970  0.28430  Biso   1.000  H
  H18      1.0000 0.93200  0.01030  0.71570  Biso   1.000  H
  H19      1.0000 0.99710  0.83240  0.23860  Biso   1.000  H
  H20      1.0000 0.00290  0.16760  0.76140  Biso   1.000  H
  N11      1.0000 0.14000  0.47010  0.34010  Biso   1.000  N
  N12      1.0000 0.86000  0.52990  0.65990  Biso   1.000  N
  O1       1.0000 0.55680  0.73220  0.77570  Biso   1.000  O
  O2       1.0000 0.44320  0.26780  0.22430  Biso   1.000  O
  O3       1.0000 0.47060  0.49340  0.59820  Biso   1.000  O
  O4       1.0000 0.52940  0.50660  0.40180  Biso   1.000  O
  O5       1.0000 0.26930  0.62640  0.62520  Biso   1.000  O
  O6       1.0000 0.73070  0.37360  0.37480  Biso   1.000  O
  O7       1.0000 0.63820  0.72950  0.58790  Biso   1.000  O
  O8       1.0000 0.36180  0.27050  0.41210  Biso   1.000  O
  O9       1.0000 0.23100  0.25930  0.56050  Biso   1.000  O
  O10      1.0000 0.76900  0.74070  0.43950  Biso   1.000  O
  O11      1.0000 0.52480  0.28230  0.70280  Biso   1.000  O
  O12      1.0000 0.47520  0.71770  0.29720  Biso   1.000  O
  O13      1.0000 0.42090  0.08130  0.53620  Biso   1.000  O
  O14      1.0000 0.57910  0.91870  0.46380  Biso   1.000  O
  O15      1.0000 0.36260  0.69700  0.46040  Biso   1.000  O
  O16      1.0000 0.63740  0.30300  0.53960  Biso   1.000  O
  O17      1.0000 0.45310  0.89010  0.63220  Biso   1.000  O
  O18      1.0000 0.54690  0.10990  0.36780  Biso   1.000  O
  O19      1.0000 0.85200  0.15030  0.53300  Biso   1.000  O
  O20      1.0000 0.14800  0.84970  0.46700  Biso   1.000  O
  O21      1.0000 0.70360  0.10940  0.66880  Biso   1.000  O
  O22      1.0000 0.29640  0.89060  0.33120  Biso   1.000  O
  O23      1.0000 0.60480  0.10430  0.84350  Biso   1.000  O
  O24      1.0000 0.39520  0.89570  0.15650  Biso   1.000  O
  O25      1.0000 0.30950  0.06130  0.71230  Biso   1.000  O
  O26      1.0000 0.69050  0.93870  0.28770  Biso   1.000  O
  O27      1.0000 0.14930  0.04920  0.10470  Biso   1.000  O
  O28      1.0000 0.85070  0.95080  0.89530  Biso   1.000  O
  O29      1.0000 0.91720  0.31060  0.90570  Biso   1.000  O
  O30      1.0000 0.08280  0.68940  0.09430  Biso   1.000  O
  H21      1.0000 0.11990  0.95800  0.08570  Biso   1.000  H
  H22      1.0000 0.88010  0.04200  0.91430  Biso   1.000  H
  H23      1.0000 0.06760  0.05960  0.11130  Biso   1.000  H
  H24      1.0000 0.93240  0.94040  0.88870  Biso   1.000  H
  H25      1.0000 0.83130  0.32340  0.90060  Biso   1.000  H
  H26      1.0000 0.16870  0.67660  0.09940  Biso   1.000  H
  H27      1.0000 0.92890  0.24030  0.86660  Biso   1.000  H
  H28      1.0000 0.07110  0.75970  0.13340  Biso   1.000  H
