data_image0
_cell_length_a       10.9052
_cell_length_b       17.603
_cell_length_c       7.8921
_cell_angle_alpha    90
_cell_angle_beta     92.64
_cell_angle_gamma    90

_symmetry_space_group_name_H-M    "P 1"
_symmetry_int_tables_number       1

loop_
  _symmetry_equiv_pos_as_xyz
  'x, y, z'

loop_
  _atom_site_label
  _atom_site_occupancy
  _atom_site_fract_x
  _atom_site_fract_y
  _atom_site_fract_z
  _atom_site_thermal_displace_type
  _atom_site_B_iso_or_equiv
  _atom_site_type_symbol
  Cu1      1.0000 0.71301  0.37561  0.96547  Biso   1.000  Cu
  Cu2      1.0000 0.28699  0.87561  0.53453  Biso   1.000  Cu
  Cu3      1.0000 0.28699  0.62439  0.03453  Biso   1.000  Cu
  Cu4      1.0000 0.71301  0.12439  0.46547  Biso   1.000  Cu
  Mo1      1.0000 0.80160  0.17520  0.06520  Biso   1.000  Mo
  Mo2      1.0000 0.19840  0.67520  0.43480  Biso   1.000  Mo
  Mo3      1.0000 0.19840  0.82480  0.93480  Biso   1.000  Mo
  Mo4      1.0000 0.80160  0.32480  0.56520  Biso   1.000  Mo
  C1       1.0000 0.85290  0.01060  0.66890  Biso   1.000  C
  C2       1.0000 0.14710  0.51060  0.83110  Biso   1.000  C
  C3       1.0000 0.14710  0.98940  0.33110  Biso   1.000  C
  C4       1.0000 0.85290  0.48940  0.16890  Biso   1.000  C
  H1       1.0000 0.77950  0.98370  0.65950  Biso   1.000  H
  H2       1.0000 0.22050  0.48370  0.84050  Biso   1.000  H
  H3       1.0000 0.22050  0.01630  0.34050  Biso   1.000  H
  H4       1.0000 0.77950  0.51630  0.15950  Biso   1.000  H
  C5       1.0000 0.95260  0.97850  0.75850  Biso   1.000  C
  C6       1.0000 0.04740  0.47850  0.74150  Biso   1.000  C
  C7       1.0000 0.04740  0.02150  0.24150  Biso   1.000  C
  C8       1.0000 0.95260  0.52150  0.25850  Biso   1.000  C
  H5       1.0000 0.94630  0.93090  0.80890  Biso   1.000  H
  H6       1.0000 0.05370  0.43090  0.69110  Biso   1.000  H
  H7       1.0000 0.05370  0.06910  0.19110  Biso   1.000  H
  H8       1.0000 0.94630  0.56910  0.30890  Biso   1.000  H
  C9       1.0000 0.06180  0.01880  0.77120  Biso   1.000  C
  C10      1.0000 0.93820  0.51880  0.72880  Biso   1.000  C
  C11      1.0000 0.93820  0.98120  0.22880  Biso   1.000  C
  C12      1.0000 0.06180  0.48120  0.27120  Biso   1.000  C
  H9       1.0000 0.12950  0.99920  0.83230  Biso   1.000  H
  H10      1.0000 0.87050  0.49920  0.66770  Biso   1.000  H
  H11      1.0000 0.87050  0.00080  0.16770  Biso   1.000  H
  H12      1.0000 0.12950  0.50080  0.33230  Biso   1.000  H
  C13      1.0000 0.06880  0.08870  0.69170  Biso   1.000  C
  C14      1.0000 0.93120  0.58870  0.80830  Biso   1.000  C
  C15      1.0000 0.93120  0.91130  0.30830  Biso   1.000  C
  C16      1.0000 0.06880  0.41130  0.19170  Biso   1.000  C
  C17      1.0000 0.96590  0.11760  0.60490  Biso   1.000  C
  C18      1.0000 0.03410  0.61760  0.89510  Biso   1.000  C
  C19      1.0000 0.03410  0.88240  0.39510  Biso   1.000  C
  C20      1.0000 0.96590  0.38240  0.10490  Biso   1.000  C
  H13      1.0000 0.97080  0.16460  0.55190  Biso   1.000  H
  H14      1.0000 0.02920  0.66460  0.94810  Biso   1.000  H
  H15      1.0000 0.02920  0.83540  0.44810  Biso   1.000  H
  H16      1.0000 0.97080  0.33540  0.05190  Biso   1.000  H
  C21      1.0000 0.18550  0.12850  0.69300  Biso   1.000  C
  C22      1.0000 0.81450  0.62850  0.80700  Biso   1.000  C
  C23      1.0000 0.81450  0.87150  0.30700  Biso   1.000  C
  C24      1.0000 0.18550  0.37150  0.19300  Biso   1.000  C
  C25      1.0000 0.32590  0.21760  0.70000  Biso   1.000  C
  C26      1.0000 0.67410  0.71760  0.80000  Biso   1.000  C
  C27      1.0000 0.67410  0.78240  0.30000  Biso   1.000  C
  C28      1.0000 0.32590  0.28240  0.20000  Biso   1.000  C
  C29      1.0000 0.38520  0.29180  0.71010  Biso   1.000  C
  C30      1.0000 0.61480  0.79180  0.78990  Biso   1.000  C
  C31      1.0000 0.61480  0.70820  0.28990  Biso   1.000  C
  C32      1.0000 0.38520  0.20820  0.21010  Biso   1.000  C
  C33      1.0000 0.33950  0.35580  0.62760  Biso   1.000  C
  C34      1.0000 0.66050  0.85580  0.87240  Biso   1.000  C
  C35      1.0000 0.66050  0.64420  0.37240  Biso   1.000  C
  C36      1.0000 0.33950  0.14420  0.12760  Biso   1.000  C
  H17      1.0000 0.26490  0.35340  0.56590  Biso   1.000  H
  H18      1.0000 0.73510  0.85340  0.93410  Biso   1.000  H
  H19      1.0000 0.73510  0.64660  0.43410  Biso   1.000  H
  H20      1.0000 0.26490  0.14660  0.06590  Biso   1.000  H
  C37      1.0000 0.40320  0.42240  0.63620  Biso   1.000  C
  C38      1.0000 0.59680  0.92240  0.86380  Biso   1.000  C
  C39      1.0000 0.59680  0.57760  0.36380  Biso   1.000  C
  C40      1.0000 0.40320  0.07760  0.13620  Biso   1.000  C
  H21      1.0000 0.37440  0.46500  0.57710  Biso   1.000  H
  H22      1.0000 0.62560  0.96500  0.92290  Biso   1.000  H
  H23      1.0000 0.62560  0.53500  0.42290  Biso   1.000  H
  H24      1.0000 0.37440  0.03500  0.07710  Biso   1.000  H
  C41      1.0000 0.51130  0.42560  0.73430  Biso   1.000  C
  C42      1.0000 0.48870  0.92560  0.76570  Biso   1.000  C
  C43      1.0000 0.48870  0.57440  0.26570  Biso   1.000  C
  C44      1.0000 0.51130  0.07440  0.23430  Biso   1.000  C
  H25      1.0000 0.55300  0.47160  0.74410  Biso   1.000  H
  H26      1.0000 0.44700  0.97160  0.75590  Biso   1.000  H
  H27      1.0000 0.44700  0.52840  0.25590  Biso   1.000  H
  H28      1.0000 0.55300  0.02840  0.24410  Biso   1.000  H
  C45      1.0000 0.49700  0.29880  0.80190  Biso   1.000  C
  C46      1.0000 0.50300  0.79880  0.69810  Biso   1.000  C
  C47      1.0000 0.50300  0.70120  0.19810  Biso   1.000  C
  C48      1.0000 0.49700  0.20120  0.30190  Biso   1.000  C
  H29      1.0000 0.53040  0.25610  0.85570  Biso   1.000  H
  H30      1.0000 0.46960  0.75610  0.64430  Biso   1.000  H
  H31      1.0000 0.46960  0.74390  0.14430  Biso   1.000  H
  H32      1.0000 0.53040  0.24390  0.35570  Biso   1.000  H
  N1       1.0000 0.85930  0.07940  0.59530  Biso   1.000  N
  N2       1.0000 0.14070  0.57940  0.90470  Biso   1.000  N
  N3       1.0000 0.14070  0.92060  0.40470  Biso   1.000  N
  N4       1.0000 0.85930  0.42060  0.09530  Biso   1.000  N
  N5       1.0000 0.29200  0.09510  0.67480  Biso   1.000  N
  N6       1.0000 0.70800  0.59510  0.82520  Biso   1.000  N
  N7       1.0000 0.70800  0.90490  0.32520  Biso   1.000  N
  N8       1.0000 0.29200  0.40490  0.17480  Biso   1.000  N
  N9       1.0000 0.20270  0.20540  0.71020  Biso   1.000  N
  N10      1.0000 0.79730  0.70540  0.78980  Biso   1.000  N
  N11      1.0000 0.79730  0.79460  0.28980  Biso   1.000  N
  N12      1.0000 0.20270  0.29460  0.21020  Biso   1.000  N
  N13      1.0000 0.38050  0.15160  0.67690  Biso   1.000  N
  N14      1.0000 0.61950  0.65160  0.82310  Biso   1.000  N
  N15      1.0000 0.61950  0.84840  0.32310  Biso   1.000  N
  N16      1.0000 0.38050  0.34840  0.17690  Biso   1.000  N
  N17      1.0000 0.55820  0.36470  0.81580  Biso   1.000  N
  N18      1.0000 0.44180  0.86470  0.68420  Biso   1.000  N
  N19      1.0000 0.44180  0.63530  0.18420  Biso   1.000  N
  N20      1.0000 0.55820  0.13530  0.31580  Biso   1.000  N
  O1       1.0000 0.71850  0.25950  0.05490  Biso   1.000  O
  O2       1.0000 0.28150  0.75950  0.44510  Biso   1.000  O
  O3       1.0000 0.28150  0.74050  0.94510  Biso   1.000  O
  O4       1.0000 0.71850  0.24050  0.55490  Biso   1.000  O
  O5       1.0000 0.72370  0.10560  0.94500  Biso   1.000  O
  O6       1.0000 0.27630  0.60560  0.55500  Biso   1.000  O
  O7       1.0000 0.27630  0.89440  0.05500  Biso   1.000  O
  O8       1.0000 0.72370  0.39440  0.44500  Biso   1.000  O
  O9       1.0000 0.81660  0.14290  0.27960  Biso   1.000  O
  O10      1.0000 0.18340  0.64290  0.22040  Biso   1.000  O
  O11      1.0000 0.18340  0.85710  0.72040  Biso   1.000  O
  O12      1.0000 0.81660  0.35710  0.77960  Biso   1.000  O
  O13      1.0000 0.95010  0.18980  0.99240  Biso   1.000  O
  O14      1.0000 0.04990  0.68980  0.50760  Biso   1.000  O
  O15      1.0000 0.04990  0.81020  0.00760  Biso   1.000  O
  O16      1.0000 0.95010  0.31020  0.49240  Biso   1.000  O
  O17      1.0000 0.60960  0.41040  0.14740  Biso   1.000  O
  O18      1.0000 0.39040  0.91040  0.35260  Biso   1.000  O
  O19      1.0000 0.39040  0.58960  0.85260  Biso   1.000  O
  O20      1.0000 0.60960  0.08960  0.64740  Biso   1.000  O
  N21      1.0000 0.11740  0.26050  0.76210  Biso   1.000  N
  N22      1.0000 0.88260  0.76050  0.73790  Biso   1.000  N
  N23      1.0000 0.88260  0.73950  0.23790  Biso   1.000  N
  N24      1.0000 0.11740  0.23950  0.26210  Biso   1.000  N
  H33      1.0000 0.14210  0.30540  0.79010  Biso   1.000  H
  H34      1.0000 0.85790  0.80540  0.70990  Biso   1.000  H
  H35      1.0000 0.85790  0.69460  0.20990  Biso   1.000  H
  H36      1.0000 0.14210  0.19460  0.29010  Biso   1.000  H
  H37      1.0000 0.04090  0.24910  0.76570  Biso   1.000  H
  H38      1.0000 0.95910  0.74910  0.73430  Biso   1.000  H
  H39      1.0000 0.95910  0.75090  0.23430  Biso   1.000  H
  H40      1.0000 0.04090  0.25090  0.26570  Biso   1.000  H
  H41      1.0000 0.55900  0.38500  0.18000  Biso   1.000  H
  H42      1.0000 0.44100  0.88500  0.32000  Biso   1.000  H
  H43      1.0000 0.44100  0.61500  0.82000  Biso   1.000  H
  H44      1.0000 0.55900  0.11500  0.68000  Biso   1.000  H
  H45      1.0000 0.64400  0.40300  0.25000  Biso   1.000  H
  H46      1.0000 0.35600  0.90300  0.25000  Biso   1.000  H
  H47      1.0000 0.35600  0.59700  0.75000  Biso   1.000  H
  H48      1.0000 0.64400  0.09700  0.75000  Biso   1.000  H
