data_image0
_cell_length_a       23.144
_cell_length_b       10.6601
_cell_length_c       13.4363
_cell_angle_alpha    90
_cell_angle_beta     93.123
_cell_angle_gamma    90

_symmetry_space_group_name_H-M    "P 1"
_symmetry_int_tables_number       1

loop_
  _symmetry_equiv_pos_as_xyz
  'x, y, z'

loop_
  _atom_site_label
  _atom_site_occupancy
  _atom_site_fract_x
  _atom_site_fract_y
  _atom_site_fract_z
  _atom_site_thermal_displace_type
  _atom_site_B_iso_or_equiv
  _atom_site_type_symbol
  Cu1      1.0000 0.65704  0.71099  0.09216  Biso   1.000  Cu
  Cu2      1.0000 0.34296  0.71099  0.40784  Biso   1.000  Cu
  Cu3      1.0000 0.15704  0.21099  0.09216  Biso   1.000  Cu
  Cu4      1.0000 0.84296  0.21099  0.40784  Biso   1.000  Cu
  Cu5      1.0000 0.34296  0.28901  0.90784  Biso   1.000  Cu
  Cu6      1.0000 0.65704  0.28901  0.59216  Biso   1.000  Cu
  Cu7      1.0000 0.84296  0.78901  0.90784  Biso   1.000  Cu
  Cu8      1.0000 0.15704  0.78901  0.59216  Biso   1.000  Cu
  O1       1.0000 0.80052  0.64242  0.95907  Biso   1.000  O
  O2       1.0000 0.19948  0.64242  0.54093  Biso   1.000  O
  O3       1.0000 0.30052  0.14242  0.95907  Biso   1.000  O
  O4       1.0000 0.69948  0.14242  0.54093  Biso   1.000  O
  O5       1.0000 0.19948  0.35758  0.04093  Biso   1.000  O
  O6       1.0000 0.80052  0.35758  0.45907  Biso   1.000  O
  O7       1.0000 0.69948  0.85758  0.04093  Biso   1.000  O
  O8       1.0000 0.30052  0.85758  0.45907  Biso   1.000  O
  O9       1.0000 0.72140  0.61112  0.04393  Biso   1.000  O
  O10      1.0000 0.27860  0.61112  0.45607  Biso   1.000  O
  O11      1.0000 0.22140  0.11112  0.04393  Biso   1.000  O
  O12      1.0000 0.77860  0.11112  0.45607  Biso   1.000  O
  O13      1.0000 0.27860  0.38888  0.95607  Biso   1.000  O
  O14      1.0000 0.72140  0.38888  0.54393  Biso   1.000  O
  O15      1.0000 0.77860  0.88888  0.95607  Biso   1.000  O
  O16      1.0000 0.22140  0.88888  0.54393  Biso   1.000  O
  N1       1.0000 0.60805  0.55890  0.10980  Biso   1.000  N
  N2       1.0000 0.39195  0.55890  0.39020  Biso   1.000  N
  N3       1.0000 0.10805  0.05890  0.10980  Biso   1.000  N
  N4       1.0000 0.89195  0.05890  0.39020  Biso   1.000  N
  N5       1.0000 0.39195  0.44110  0.89020  Biso   1.000  N
  N6       1.0000 0.60805  0.44110  0.60980  Biso   1.000  N
  N7       1.0000 0.89195  0.94110  0.89020  Biso   1.000  N
  N8       1.0000 0.10805  0.94110  0.60980  Biso   1.000  N
  N9       1.0000 0.58248  0.80060  0.10925  Biso   1.000  N
  N10      1.0000 0.41752  0.80060  0.39075  Biso   1.000  N
  N11      1.0000 0.08248  0.30060  0.10925  Biso   1.000  N
  N12      1.0000 0.91752  0.30060  0.39075  Biso   1.000  N
  N13      1.0000 0.41752  0.19940  0.89075  Biso   1.000  N
  N14      1.0000 0.58248  0.19940  0.60925  Biso   1.000  N
  N15      1.0000 0.91752  0.69940  0.89075  Biso   1.000  N
  N16      1.0000 0.08248  0.69940  0.60925  Biso   1.000  N
  N17      1.0000 0.69495  0.72970  0.24808  Biso   1.000  N
  N18      1.0000 0.30505  0.72970  0.25192  Biso   1.000  N
  N19      1.0000 0.19495  0.22970  0.24808  Biso   1.000  N
  N20      1.0000 0.80505  0.22970  0.25192  Biso   1.000  N
  N21      1.0000 0.30505  0.27030  0.75192  Biso   1.000  N
  N22      1.0000 0.69495  0.27030  0.74808  Biso   1.000  N
  N23      1.0000 0.80505  0.77030  0.75192  Biso   1.000  N
  N24      1.0000 0.19495  0.77030  0.74808  Biso   1.000  N
  C1       1.0000 0.62314  0.43830  0.11600  Biso   1.000  C
  C2       1.0000 0.37686  0.43830  0.38400  Biso   1.000  C
  C3       1.0000 0.12314  0.93830  0.11600  Biso   1.000  C
  C4       1.0000 0.87686  0.93830  0.38400  Biso   1.000  C
  C5       1.0000 0.37686  0.56170  0.88400  Biso   1.000  C
  C6       1.0000 0.62314  0.56170  0.61600  Biso   1.000  C
  C7       1.0000 0.87686  0.06170  0.88400  Biso   1.000  C
  C8       1.0000 0.12314  0.06170  0.61600  Biso   1.000  C
  H1       1.0000 0.66200  0.41700  0.11270  Biso   1.000  H
  H2       1.0000 0.33800  0.41700  0.38730  Biso   1.000  H
  H3       1.0000 0.16200  0.91700  0.11270  Biso   1.000  H
  H4       1.0000 0.83800  0.91700  0.38730  Biso   1.000  H
  H5       1.0000 0.33800  0.58300  0.88730  Biso   1.000  H
  H6       1.0000 0.66200  0.58300  0.61270  Biso   1.000  H
  H7       1.0000 0.83800  0.08300  0.88730  Biso   1.000  H
  H8       1.0000 0.16200  0.08300  0.61270  Biso   1.000  H
  C9       1.0000 0.58297  0.34340  0.12740  Biso   1.000  C
  C10      1.0000 0.41703  0.34340  0.37260  Biso   1.000  C
  C11      1.0000 0.08297  0.84340  0.12740  Biso   1.000  C
  C12      1.0000 0.91703  0.84340  0.37260  Biso   1.000  C
  C13      1.0000 0.41703  0.65660  0.87260  Biso   1.000  C
  C14      1.0000 0.58297  0.65660  0.62740  Biso   1.000  C
  C15      1.0000 0.91703  0.15660  0.87260  Biso   1.000  C
  C16      1.0000 0.08297  0.15660  0.62740  Biso   1.000  C
  H9       1.0000 0.59510  0.26040  0.13290  Biso   1.000  H
  H10      1.0000 0.40490  0.26040  0.36710  Biso   1.000  H
  H11      1.0000 0.09510  0.76040  0.13290  Biso   1.000  H
  H12      1.0000 0.90490  0.76040  0.36710  Biso   1.000  H
  H13      1.0000 0.40490  0.73960  0.86710  Biso   1.000  H
  H14      1.0000 0.59510  0.73960  0.63290  Biso   1.000  H
  H15      1.0000 0.90490  0.23960  0.86710  Biso   1.000  H
  H16      1.0000 0.09510  0.23960  0.63290  Biso   1.000  H
  C17      1.0000 0.52592  0.37200  0.13040  Biso   1.000  C
  C18      1.0000 0.47408  0.37200  0.36960  Biso   1.000  C
  C19      1.0000 0.02592  0.87200  0.13040  Biso   1.000  C
  C20      1.0000 0.97408  0.87200  0.36960  Biso   1.000  C
  C21      1.0000 0.47408  0.62800  0.86960  Biso   1.000  C
  C22      1.0000 0.52592  0.62800  0.63040  Biso   1.000  C
  C23      1.0000 0.97408  0.12800  0.86960  Biso   1.000  C
  C24      1.0000 0.02592  0.12800  0.63040  Biso   1.000  C
  H17      1.0000 0.49880  0.30850  0.13670  Biso   1.000  H
  H18      1.0000 0.50120  0.30850  0.36330  Biso   1.000  H
  H19      1.0000 0.99880  0.80850  0.13670  Biso   1.000  H
  H20      1.0000 0.00120  0.80850  0.36330  Biso   1.000  H
  H21      1.0000 0.50120  0.69150  0.86330  Biso   1.000  H
  H22      1.0000 0.49880  0.69150  0.63670  Biso   1.000  H
  H23      1.0000 0.00120  0.19150  0.86330  Biso   1.000  H
  H24      1.0000 0.99880  0.19150  0.63670  Biso   1.000  H
  C25      1.0000 0.50796  0.49760  0.12410  Biso   1.000  C
  C26      1.0000 0.49204  0.49760  0.37590  Biso   1.000  C
  C27      1.0000 0.00796  0.99760  0.12410  Biso   1.000  C
  C28      1.0000 0.99204  0.99760  0.37590  Biso   1.000  C
  C29      1.0000 0.49204  0.50240  0.87590  Biso   1.000  C
  C30      1.0000 0.50796  0.50240  0.62410  Biso   1.000  C
  C31      1.0000 0.99204  0.00240  0.87590  Biso   1.000  C
  C32      1.0000 0.00796  0.00240  0.62410  Biso   1.000  C
  C33      1.0000 0.44965  0.53900  0.12850  Biso   1.000  C
  C34      1.0000 0.55035  0.53900  0.37150  Biso   1.000  C
  C35      1.0000 0.94965  0.03900  0.12850  Biso   1.000  C
  C36      1.0000 0.05035  0.03900  0.37150  Biso   1.000  C
  C37      1.0000 0.55035  0.46100  0.87150  Biso   1.000  C
  C38      1.0000 0.44965  0.46100  0.62850  Biso   1.000  C
  C39      1.0000 0.05035  0.96100  0.87150  Biso   1.000  C
  C40      1.0000 0.94965  0.96100  0.62850  Biso   1.000  C
  H25      1.0000 0.42030  0.48010  0.13280  Biso   1.000  H
  H26      1.0000 0.57970  0.48010  0.36720  Biso   1.000  H
  H27      1.0000 0.92030  0.98010  0.13280  Biso   1.000  H
  H28      1.0000 0.07970  0.98010  0.36720  Biso   1.000  H
  H29      1.0000 0.57970  0.51990  0.86720  Biso   1.000  H
  H30      1.0000 0.42030  0.51990  0.63280  Biso   1.000  H
  H31      1.0000 0.07970  0.01990  0.86720  Biso   1.000  H
  H32      1.0000 0.92030  0.01990  0.63280  Biso   1.000  H
  C41      1.0000 0.43622  0.66290  0.12650  Biso   1.000  C
  C42      1.0000 0.56378  0.66290  0.37350  Biso   1.000  C
  C43      1.0000 0.93622  0.16290  0.12650  Biso   1.000  C
  C44      1.0000 0.06378  0.16290  0.37350  Biso   1.000  C
  C45      1.0000 0.56378  0.33710  0.87350  Biso   1.000  C
  C46      1.0000 0.43622  0.33710  0.62650  Biso   1.000  C
  C47      1.0000 0.06378  0.83710  0.87350  Biso   1.000  C
  C48      1.0000 0.93622  0.83710  0.62650  Biso   1.000  C
  H33      1.0000 0.39770  0.68710  0.12860  Biso   1.000  H
  H34      1.0000 0.60230  0.68710  0.37140  Biso   1.000  H
  H35      1.0000 0.89770  0.18710  0.12860  Biso   1.000  H
  H36      1.0000 0.10230  0.18710  0.37140  Biso   1.000  H
  H37      1.0000 0.60230  0.31290  0.87140  Biso   1.000  H
  H38      1.0000 0.39770  0.31290  0.62860  Biso   1.000  H
  H39      1.0000 0.10230  0.81290  0.87140  Biso   1.000  H
  H40      1.0000 0.89770  0.81290  0.62860  Biso   1.000  H
  C49      1.0000 0.47998  0.75740  0.12130  Biso   1.000  C
  C50      1.0000 0.52002  0.75740  0.37870  Biso   1.000  C
  C51      1.0000 0.97998  0.25740  0.12130  Biso   1.000  C
  C52      1.0000 0.02002  0.25740  0.37870  Biso   1.000  C
  C53      1.0000 0.52002  0.24260  0.87870  Biso   1.000  C
  C54      1.0000 0.47998  0.24260  0.62130  Biso   1.000  C
  C55      1.0000 0.02002  0.74260  0.87870  Biso   1.000  C
  C56      1.0000 0.97998  0.74260  0.62130  Biso   1.000  C
  C57      1.0000 0.47039  0.88780  0.12380  Biso   1.000  C
  C58      1.0000 0.52961  0.88780  0.37620  Biso   1.000  C
  C59      1.0000 0.97039  0.38780  0.12380  Biso   1.000  C
  C60      1.0000 0.02961  0.38780  0.37620  Biso   1.000  C
  C61      1.0000 0.52961  0.11220  0.87620  Biso   1.000  C
  C62      1.0000 0.47039  0.11220  0.62380  Biso   1.000  C
  C63      1.0000 0.02961  0.61220  0.87620  Biso   1.000  C
  C64      1.0000 0.97039  0.61220  0.62380  Biso   1.000  C
  H41      1.0000 0.43290  0.91840  0.12760  Biso   1.000  H
  H42      1.0000 0.56710  0.91840  0.37240  Biso   1.000  H
  H43      1.0000 0.93290  0.41840  0.12760  Biso   1.000  H
  H44      1.0000 0.06710  0.41840  0.37240  Biso   1.000  H
  H45      1.0000 0.56710  0.08160  0.87240  Biso   1.000  H
  H46      1.0000 0.43290  0.08160  0.62760  Biso   1.000  H
  H47      1.0000 0.06710  0.58160  0.87240  Biso   1.000  H
  H48      1.0000 0.93290  0.58160  0.62760  Biso   1.000  H
  C65      1.0000 0.51543  0.96900  0.12070  Biso   1.000  C
  C66      1.0000 0.48457  0.96900  0.37930  Biso   1.000  C
  C67      1.0000 0.01543  0.46900  0.12070  Biso   1.000  C
  C68      1.0000 0.98457  0.46900  0.37930  Biso   1.000  C
  C69      1.0000 0.48457  0.03100  0.87930  Biso   1.000  C
  C70      1.0000 0.51543  0.03100  0.62070  Biso   1.000  C
  C71      1.0000 0.98457  0.53100  0.87930  Biso   1.000  C
  C72      1.0000 0.01543  0.53100  0.62070  Biso   1.000  C
  H49      1.0000 0.50910  0.05510  0.12400  Biso   1.000  H
  H50      1.0000 0.49090  0.05510  0.37600  Biso   1.000  H
  H51      1.0000 0.00910  0.55510  0.12400  Biso   1.000  H
  H52      1.0000 0.99090  0.55510  0.37600  Biso   1.000  H
  H53      1.0000 0.49090  0.94490  0.87600  Biso   1.000  H
  H54      1.0000 0.50910  0.94490  0.62400  Biso   1.000  H
  H55      1.0000 0.99090  0.44490  0.87600  Biso   1.000  H
  H56      1.0000 0.00910  0.44490  0.62400  Biso   1.000  H
  C73      1.0000 0.57110  0.92230  0.11240  Biso   1.000  C
  C74      1.0000 0.42890  0.92230  0.38760  Biso   1.000  C
  C75      1.0000 0.07110  0.42230  0.11240  Biso   1.000  C
  C76      1.0000 0.92890  0.42230  0.38760  Biso   1.000  C
  C77      1.0000 0.42890  0.07770  0.88760  Biso   1.000  C
  C78      1.0000 0.57110  0.07770  0.61240  Biso   1.000  C
  C79      1.0000 0.92890  0.57770  0.88760  Biso   1.000  C
  C80      1.0000 0.07110  0.57770  0.61240  Biso   1.000  C
  H57      1.0000 0.60160  0.97880  0.10900  Biso   1.000  H
  H58      1.0000 0.39840  0.97880  0.39100  Biso   1.000  H
  H59      1.0000 0.10160  0.47880  0.10900  Biso   1.000  H
  H60      1.0000 0.89840  0.47880  0.39100  Biso   1.000  H
  H61      1.0000 0.39840  0.02120  0.89100  Biso   1.000  H
  H62      1.0000 0.60160  0.02120  0.60900  Biso   1.000  H
  H63      1.0000 0.89840  0.52120  0.89100  Biso   1.000  H
  H64      1.0000 0.10160  0.52120  0.60900  Biso   1.000  H
  C81      1.0000 0.53727  0.71920  0.11430  Biso   1.000  C
  C82      1.0000 0.46273  0.71920  0.38570  Biso   1.000  C
  C83      1.0000 0.03727  0.21920  0.11430  Biso   1.000  C
  C84      1.0000 0.96273  0.21920  0.38570  Biso   1.000  C
  C85      1.0000 0.46273  0.28080  0.88570  Biso   1.000  C
  C86      1.0000 0.53727  0.28080  0.61430  Biso   1.000  C
  C87      1.0000 0.96273  0.78080  0.88570  Biso   1.000  C
  C88      1.0000 0.03727  0.78080  0.61430  Biso   1.000  C
  C89      1.0000 0.55134  0.58840  0.11540  Biso   1.000  C
  C90      1.0000 0.44866  0.58840  0.38460  Biso   1.000  C
  C91      1.0000 0.05134  0.08840  0.11540  Biso   1.000  C
  C92      1.0000 0.94866  0.08840  0.38460  Biso   1.000  C
  C93      1.0000 0.44866  0.41160  0.88460  Biso   1.000  C
  C94      1.0000 0.55134  0.41160  0.61540  Biso   1.000  C
  C95      1.0000 0.94866  0.91160  0.88460  Biso   1.000  C
  C96      1.0000 0.05134  0.91160  0.61540  Biso   1.000  C
  C97      1.0000 0.69255  0.83600  0.30000  Biso   1.000  C
  C98      1.0000 0.30745  0.83600  0.20000  Biso   1.000  C
  C99      1.0000 0.19255  0.33600  0.30000  Biso   1.000  C
  C100     1.0000 0.80745  0.33600  0.20000  Biso   1.000  C
  C101     1.0000 0.30745  0.16400  0.70000  Biso   1.000  C
  C102     1.0000 0.69255  0.16400  0.80000  Biso   1.000  C
  C103     1.0000 0.80745  0.66400  0.70000  Biso   1.000  C
  C104     1.0000 0.19255  0.66400  0.80000  Biso   1.000  C
  H65      1.0000 0.67610  0.90610  0.26840  Biso   1.000  H
  H66      1.0000 0.32390  0.90610  0.23160  Biso   1.000  H
  H67      1.0000 0.17610  0.40610  0.26840  Biso   1.000  H
  H68      1.0000 0.82390  0.40610  0.23160  Biso   1.000  H
  H69      1.0000 0.32390  0.09390  0.73160  Biso   1.000  H
  H70      1.0000 0.67610  0.09390  0.76840  Biso   1.000  H
  H71      1.0000 0.82390  0.59390  0.73160  Biso   1.000  H
  H72      1.0000 0.17610  0.59390  0.76840  Biso   1.000  H
  C105     1.0000 0.71296  0.84790  0.39770  Biso   1.000  C
  C106     1.0000 0.28704  0.84790  0.10230  Biso   1.000  C
  C107     1.0000 0.21296  0.34790  0.39770  Biso   1.000  C
  C108     1.0000 0.78704  0.34790  0.10230  Biso   1.000  C
  C109     1.0000 0.28704  0.15210  0.60230  Biso   1.000  C
  C110     1.0000 0.71296  0.15210  0.89770  Biso   1.000  C
  C111     1.0000 0.78704  0.65210  0.60230  Biso   1.000  C
  C112     1.0000 0.21296  0.65210  0.89770  Biso   1.000  C
  H73      1.0000 0.70960  0.92420  0.43050  Biso   1.000  H
  H74      1.0000 0.29040  0.92420  0.06950  Biso   1.000  H
  H75      1.0000 0.20960  0.42420  0.43050  Biso   1.000  H
  H76      1.0000 0.79040  0.42420  0.06950  Biso   1.000  H
  H77      1.0000 0.29040  0.07580  0.56950  Biso   1.000  H
  H78      1.0000 0.70960  0.07580  0.93050  Biso   1.000  H
  H79      1.0000 0.79040  0.57580  0.56950  Biso   1.000  H
  H80      1.0000 0.20960  0.57580  0.93050  Biso   1.000  H
  C113     1.0000 0.73854  0.74600  0.44740  Biso   1.000  C
  C114     1.0000 0.26146  0.74600  0.05260  Biso   1.000  C
  C115     1.0000 0.23854  0.24600  0.44740  Biso   1.000  C
  C116     1.0000 0.76146  0.24600  0.05260  Biso   1.000  C
  C117     1.0000 0.26146  0.25400  0.55260  Biso   1.000  C
  C118     1.0000 0.73854  0.25400  0.94740  Biso   1.000  C
  C119     1.0000 0.76146  0.75400  0.55260  Biso   1.000  C
  C120     1.0000 0.23854  0.75400  0.94740  Biso   1.000  C
  C121     1.0000 0.74170  0.63630  0.39230  Biso   1.000  C
  C122     1.0000 0.25830  0.63630  0.10770  Biso   1.000  C
  C123     1.0000 0.24170  0.13630  0.39230  Biso   1.000  C
  C124     1.0000 0.75830  0.13630  0.10770  Biso   1.000  C
  C125     1.0000 0.25830  0.36370  0.60770  Biso   1.000  C
  C126     1.0000 0.74170  0.36370  0.89230  Biso   1.000  C
  C127     1.0000 0.75830  0.86370  0.60770  Biso   1.000  C
  C128     1.0000 0.24170  0.86370  0.89230  Biso   1.000  C
  H81      1.0000 0.75890  0.56510  0.42100  Biso   1.000  H
  H82      1.0000 0.24110  0.56510  0.07900  Biso   1.000  H
  H83      1.0000 0.25890  0.06510  0.42100  Biso   1.000  H
  H84      1.0000 0.74110  0.06510  0.07900  Biso   1.000  H
  H85      1.0000 0.24110  0.43490  0.57900  Biso   1.000  H
  H86      1.0000 0.75890  0.43490  0.92100  Biso   1.000  H
  H87      1.0000 0.74110  0.93490  0.57900  Biso   1.000  H
  H88      1.0000 0.25890  0.93490  0.92100  Biso   1.000  H
  C129     1.0000 0.71932  0.63280  0.29520  Biso   1.000  C
  C130     1.0000 0.28068  0.63280  0.20480  Biso   1.000  C
  C131     1.0000 0.21932  0.13280  0.29520  Biso   1.000  C
  C132     1.0000 0.78068  0.13280  0.20480  Biso   1.000  C
  C133     1.0000 0.28068  0.36720  0.70480  Biso   1.000  C
  C134     1.0000 0.71932  0.36720  0.79520  Biso   1.000  C
  C135     1.0000 0.78068  0.86720  0.70480  Biso   1.000  C
  C136     1.0000 0.21932  0.86720  0.79520  Biso   1.000  C
  H89      1.0000 0.72150  0.55750  0.26060  Biso   1.000  H
  H90      1.0000 0.27850  0.55750  0.23940  Biso   1.000  H
  H91      1.0000 0.22150  0.05750  0.26060  Biso   1.000  H
  H92      1.0000 0.77850  0.05750  0.23940  Biso   1.000  H
  H93      1.0000 0.27850  0.44250  0.73940  Biso   1.000  H
  H94      1.0000 0.72150  0.44250  0.76060  Biso   1.000  H
  H95      1.0000 0.77850  0.94250  0.73940  Biso   1.000  H
  H96      1.0000 0.22150  0.94250  0.76060  Biso   1.000  H
  C137     1.0000 0.75642  0.67940  0.00090  Biso   1.000  C
  C138     1.0000 0.24358  0.67940  0.49910  Biso   1.000  C
  C139     1.0000 0.25642  0.17940  0.00090  Biso   1.000  C
  C140     1.0000 0.74358  0.17940  0.49910  Biso   1.000  C
  C141     1.0000 0.24358  0.32060  0.99910  Biso   1.000  C
  C142     1.0000 0.75642  0.32060  0.50090  Biso   1.000  C
  C143     1.0000 0.74358  0.82060  0.99910  Biso   1.000  C
  C144     1.0000 0.25642  0.82060  0.50090  Biso   1.000  C
  N25      1.0000 0.62797  0.20200  0.33460  Biso   1.000  N
  N26      1.0000 0.37203  0.20200  0.16540  Biso   1.000  N
  N27      1.0000 0.12797  0.70200  0.33460  Biso   1.000  N
  N28      1.0000 0.87203  0.70200  0.16540  Biso   1.000  N
  N29      1.0000 0.37203  0.79800  0.66540  Biso   1.000  N
  N30      1.0000 0.62797  0.79800  0.83460  Biso   1.000  N
  N31      1.0000 0.87203  0.29800  0.66540  Biso   1.000  N
  N32      1.0000 0.12797  0.29800  0.83460  Biso   1.000  N
  O17      1.0000 0.66870  0.27120  0.32180  Biso   1.000  O
  O18      1.0000 0.33130  0.27120  0.17820  Biso   1.000  O
  O19      1.0000 0.16870  0.77120  0.32180  Biso   1.000  O
  O20      1.0000 0.83130  0.77120  0.17820  Biso   1.000  O
  O21      1.0000 0.33130  0.72880  0.67820  Biso   1.000  O
  O22      1.0000 0.66870  0.72880  0.82180  Biso   1.000  O
  O23      1.0000 0.83130  0.22880  0.67820  Biso   1.000  O
  O24      1.0000 0.16870  0.22880  0.82180  Biso   1.000  O
  O25      1.0000 0.59580  0.22940  0.39780  Biso   1.000  O
  O26      1.0000 0.40420  0.22940  0.10220  Biso   1.000  O
  O27      1.0000 0.09580  0.72940  0.39780  Biso   1.000  O
  O28      1.0000 0.90420  0.72940  0.10220  Biso   1.000  O
  O29      1.0000 0.40420  0.77060  0.60220  Biso   1.000  O
  O30      1.0000 0.59580  0.77060  0.89780  Biso   1.000  O
  O31      1.0000 0.90420  0.27060  0.60220  Biso   1.000  O
  O32      1.0000 0.09580  0.27060  0.89780  Biso   1.000  O
  O33      1.0000 0.61950  0.11120  0.28320  Biso   1.000  O
  O34      1.0000 0.38050  0.11120  0.21680  Biso   1.000  O
  O35      1.0000 0.11950  0.61120  0.28320  Biso   1.000  O
  O36      1.0000 0.88050  0.61120  0.21680  Biso   1.000  O
  O37      1.0000 0.38050  0.88880  0.71680  Biso   1.000  O
  O38      1.0000 0.61950  0.88880  0.78320  Biso   1.000  O
  O39      1.0000 0.88050  0.38880  0.71680  Biso   1.000  O
  O40      1.0000 0.11950  0.38880  0.78320  Biso   1.000  O
  O41      1.0000 0.64140  0.29710  0.37670  Biso   1.000  O
  O42      1.0000 0.35860  0.29710  0.12330  Biso   1.000  O
  O43      1.0000 0.14140  0.79710  0.37670  Biso   1.000  O
  O44      1.0000 0.85860  0.79710  0.12330  Biso   1.000  O
  O45      1.0000 0.35860  0.70290  0.62330  Biso   1.000  O
  O46      1.0000 0.64140  0.70290  0.87670  Biso   1.000  O
  O47      1.0000 0.85860  0.20290  0.62330  Biso   1.000  O
  O48      1.0000 0.14140  0.20290  0.87670  Biso   1.000  O
  O49      1.0000 0.58000  0.16660  0.35200  Biso   1.000  O
  O50      1.0000 0.42000  0.16660  0.14800  Biso   1.000  O
  O51      1.0000 0.08000  0.66660  0.35200  Biso   1.000  O
  O52      1.0000 0.92000  0.66660  0.14800  Biso   1.000  O
  O53      1.0000 0.42000  0.83340  0.64800  Biso   1.000  O
  O54      1.0000 0.58000  0.83340  0.85200  Biso   1.000  O
  O55      1.0000 0.92000  0.33340  0.64800  Biso   1.000  O
  O56      1.0000 0.08000  0.33340  0.85200  Biso   1.000  O
  O57      1.0000 0.65090  0.13600  0.28050  Biso   1.000  O
  O58      1.0000 0.34910  0.13600  0.21950  Biso   1.000  O
  O59      1.0000 0.15090  0.63600  0.28050  Biso   1.000  O
  O60      1.0000 0.84910  0.63600  0.21950  Biso   1.000  O
  O61      1.0000 0.34910  0.86400  0.71950  Biso   1.000  O
  O62      1.0000 0.65090  0.86400  0.78050  Biso   1.000  O
  O63      1.0000 0.84910  0.36400  0.71950  Biso   1.000  O
  O64      1.0000 0.15090  0.36400  0.78050  Biso   1.000  O
