data_image0
_cell_length_a       11.2478
_cell_length_b       19.5134
_cell_length_c       21.0626
_cell_angle_alpha    90
_cell_angle_beta     93.608
_cell_angle_gamma    90

_symmetry_space_group_name_H-M    "P 1"
_symmetry_int_tables_number       1

loop_
  _symmetry_equiv_pos_as_xyz
  'x, y, z'

loop_
  _atom_site_label
  _atom_site_occupancy
  _atom_site_fract_x
  _atom_site_fract_y
  _atom_site_fract_z
  _atom_site_thermal_displace_type
  _atom_site_B_iso_or_equiv
  _atom_site_type_symbol
  Mo1      1.0000 0.35262  0.23985  0.03060  Biso   1.000  Mo
  Mo2      1.0000 0.35262  0.26015  0.53060  Biso   1.000  Mo
  Mo3      1.0000 0.64738  0.76015  0.96940  Biso   1.000  Mo
  Mo4      1.0000 0.64738  0.73985  0.46940  Biso   1.000  Mo
  Mo5      1.0000 0.34725  0.07775  0.09367  Biso   1.000  Mo
  Mo6      1.0000 0.34725  0.42225  0.59367  Biso   1.000  Mo
  Mo7      1.0000 0.65275  0.92225  0.90633  Biso   1.000  Mo
  Mo8      1.0000 0.65275  0.57775  0.40633  Biso   1.000  Mo
  Mo9      1.0000 0.11701  0.26306  0.25187  Biso   1.000  Mo
  Mo10     1.0000 0.11701  0.23694  0.75187  Biso   1.000  Mo
  Mo11     1.0000 0.88299  0.73694  0.74813  Biso   1.000  Mo
  Mo12     1.0000 0.88299  0.76306  0.24813  Biso   1.000  Mo
  Mo13     1.0000 0.18941  0.34516  0.11834  Biso   1.000  Mo
  Mo14     1.0000 0.18941  0.15484  0.61834  Biso   1.000  Mo
  Mo15     1.0000 0.81059  0.65484  0.88166  Biso   1.000  Mo
  Mo16     1.0000 0.81059  0.84516  0.38166  Biso   1.000  Mo
  Mo17     1.0000 0.23957  0.10595  0.25438  Biso   1.000  Mo
  Mo18     1.0000 0.23957  0.39405  0.75438  Biso   1.000  Mo
  Mo19     1.0000 0.76043  0.89405  0.74562  Biso   1.000  Mo
  Mo20     1.0000 0.76043  0.60595  0.24562  Biso   1.000  Mo
  Cu1      1.0000 0.10279  0.26845  0.92923  Biso   1.000  Cu
  Cu2      1.0000 0.10279  0.23155  0.42923  Biso   1.000  Cu
  Cu3      1.0000 0.89721  0.73155  0.07077  Biso   1.000  Cu
  Cu4      1.0000 0.89721  0.76845  0.57077  Biso   1.000  Cu
  Cu5      1.0000 0.56146  0.17946  0.30721  Biso   1.000  Cu
  Cu6      1.0000 0.56146  0.32054  0.80721  Biso   1.000  Cu
  Cu7      1.0000 0.43854  0.82054  0.69279  Biso   1.000  Cu
  Cu8      1.0000 0.43854  0.67946  0.19279  Biso   1.000  Cu
  P1       1.0000 0.40695  0.23872  0.19082  Biso   1.000  P
  P2       1.0000 0.40695  0.26128  0.69082  Biso   1.000  P
  P3       1.0000 0.59305  0.76128  0.80918  Biso   1.000  P
  P4       1.0000 0.59305  0.73872  0.30918  Biso   1.000  P
  P5       1.0000 0.11043  0.17540  0.11059  Biso   1.000  P
  P6       1.0000 0.11043  0.32460  0.61059  Biso   1.000  P
  P7       1.0000 0.88957  0.82460  0.88941  Biso   1.000  P
  P8       1.0000 0.88957  0.67540  0.38941  Biso   1.000  P
  O1       1.0000 0.15540  0.10870  0.08630  Biso   1.000  O
  O2       1.0000 0.15540  0.39130  0.58630  Biso   1.000  O
  O3       1.0000 0.84460  0.89130  0.91370  Biso   1.000  O
  O4       1.0000 0.84460  0.60870  0.41370  Biso   1.000  O
  O5       1.0000 0.16680  0.23620  0.07860  Biso   1.000  O
  O6       1.0000 0.16680  0.26380  0.57860  Biso   1.000  O
  O7       1.0000 0.83320  0.76380  0.92140  Biso   1.000  O
  O8       1.0000 0.83320  0.73620  0.42140  Biso   1.000  O
  O9       1.0000 0.13710  0.17760  0.18350  Biso   1.000  O
  O10      1.0000 0.13710  0.32240  0.68350  Biso   1.000  O
  O11      1.0000 0.86290  0.82240  0.81650  Biso   1.000  O
  O12      1.0000 0.86290  0.67760  0.31650  Biso   1.000  O
  O13      1.0000 0.29580  0.28330  0.19950  Biso   1.000  O
  O14      1.0000 0.29580  0.21670  0.69950  Biso   1.000  O
  O15      1.0000 0.70420  0.71670  0.80050  Biso   1.000  O
  O16      1.0000 0.70420  0.78330  0.30050  Biso   1.000  O
  O17      1.0000 0.42470  0.18520  0.24300  Biso   1.000  O
  O18      1.0000 0.42470  0.31480  0.74300  Biso   1.000  O
  O19      1.0000 0.57530  0.81480  0.75700  Biso   1.000  O
  O20      1.0000 0.57530  0.68520  0.25700  Biso   1.000  O
  O21      1.0000 0.39840  0.20110  0.12610  Biso   1.000  O
  O22      1.0000 0.39840  0.29890  0.62610  Biso   1.000  O
  O23      1.0000 0.60160  0.79890  0.87390  Biso   1.000  O
  O24      1.0000 0.60160  0.70110  0.37390  Biso   1.000  O
  O25      1.0000 0.26230  0.25630  0.96030  Biso   1.000  O
  O26      1.0000 0.26230  0.24370  0.46030  Biso   1.000  O
  O27      1.0000 0.73770  0.74370  0.03970  Biso   1.000  O
  O28      1.0000 0.73770  0.75630  0.53970  Biso   1.000  O
  O29      1.0000 0.34520  0.14280  0.02480  Biso   1.000  O
  O30      1.0000 0.34520  0.35720  0.52480  Biso   1.000  O
  O31      1.0000 0.65480  0.85720  0.97520  Biso   1.000  O
  O32      1.0000 0.65480  0.64280  0.47520  Biso   1.000  O
  O33      1.0000 0.29860  0.00430  0.05810  Biso   1.000  O
  O34      1.0000 0.29860  0.49570  0.55810  Biso   1.000  O
  O35      1.0000 0.70140  0.99570  0.94190  Biso   1.000  O
  O36      1.0000 0.70140  0.50430  0.44190  Biso   1.000  O
  O37      1.0000 0.30980  0.07200  0.18100  Biso   1.000  O
  O38      1.0000 0.30980  0.42800  0.68100  Biso   1.000  O
  O39      1.0000 0.69020  0.92800  0.81900  Biso   1.000  O
  O40      1.0000 0.69020  0.57200  0.31900  Biso   1.000  O
  O41      1.0000 0.11460  0.05760  0.25780  Biso   1.000  O
  O42      1.0000 0.11460  0.44240  0.75780  Biso   1.000  O
  O43      1.0000 0.88540  0.94240  0.74220  Biso   1.000  O
  O44      1.0000 0.88540  0.55760  0.24220  Biso   1.000  O
  O45      1.0000 0.20410  0.18950  0.29600  Biso   1.000  O
  O46      1.0000 0.20410  0.31050  0.79600  Biso   1.000  O
  O47      1.0000 0.79590  0.81050  0.70400  Biso   1.000  O
  O48      1.0000 0.79590  0.68950  0.20400  Biso   1.000  O
  O49      1.0000 0.97600  0.24310  0.26930  Biso   1.000  O
  O50      1.0000 0.97600  0.25690  0.76930  Biso   1.000  O
  O51      1.0000 0.02400  0.75690  0.73070  Biso   1.000  O
  O52      1.0000 0.02400  0.74310  0.23070  Biso   1.000  O
  O53      1.0000 0.07780  0.31480  0.17510  Biso   1.000  O
  O54      1.0000 0.07780  0.18520  0.67510  Biso   1.000  O
  O55      1.0000 0.92220  0.68520  0.82490  Biso   1.000  O
  O56      1.0000 0.92220  0.81480  0.32490  Biso   1.000  O
  O57      1.0000 0.09530  0.37110  0.05610  Biso   1.000  O
  O58      1.0000 0.09530  0.12890  0.55610  Biso   1.000  O
  O59      1.0000 0.90470  0.62890  0.94390  Biso   1.000  O
  O60      1.0000 0.90470  0.87110  0.44390  Biso   1.000  O
  O61      1.0000 0.33210  0.32330  0.07450  Biso   1.000  O
  O62      1.0000 0.33210  0.17670  0.57450  Biso   1.000  O
  O63      1.0000 0.66790  0.67670  0.92550  Biso   1.000  O
  O64      1.0000 0.66790  0.82330  0.42550  Biso   1.000  O
  O65      1.0000 0.49130  0.25540  0.00750  Biso   1.000  O
  O66      1.0000 0.49130  0.24460  0.50750  Biso   1.000  O
  O67      1.0000 0.50870  0.74460  0.99250  Biso   1.000  O
  O68      1.0000 0.50870  0.75540  0.49250  Biso   1.000  O
  O69      1.0000 0.49640  0.06440  0.10370  Biso   1.000  O
  O70      1.0000 0.49640  0.43560  0.60370  Biso   1.000  O
  O71      1.0000 0.50360  0.93560  0.89630  Biso   1.000  O
  O72      1.0000 0.50360  0.56440  0.39630  Biso   1.000  O
  O73      1.0000 0.33370  0.07040  0.31260  Biso   1.000  O
  O74      1.0000 0.33370  0.42960  0.81260  Biso   1.000  O
  O75      1.0000 0.66630  0.92960  0.68740  Biso   1.000  O
  O76      1.0000 0.66630  0.57040  0.18740  Biso   1.000  O
  O77      1.0000 0.15770  0.32660  0.30480  Biso   1.000  O
  O78      1.0000 0.15770  0.17340  0.80480  Biso   1.000  O
  O79      1.0000 0.84230  0.67340  0.69520  Biso   1.000  O
  O80      1.0000 0.84230  0.82660  0.19520  Biso   1.000  O
  O81      1.0000 0.23930  0.42020  0.15130  Biso   1.000  O
  O82      1.0000 0.23930  0.07980  0.65130  Biso   1.000  O
  O83      1.0000 0.76070  0.57980  0.84870  Biso   1.000  O
  O84      1.0000 0.76070  0.92020  0.34870  Biso   1.000  O
  O85      1.0000 0.50150  0.12350  0.39130  Biso   1.000  O
  O86      1.0000 0.50150  0.37650  0.89130  Biso   1.000  O
  O87      1.0000 0.49850  0.87650  0.60870  Biso   1.000  O
  O88      1.0000 0.49850  0.62350  0.10870  Biso   1.000  O
  O89      1.0000 0.63330  0.00950  0.42120  Biso   1.000  O
  O90      1.0000 0.63330  0.49050  0.92120  Biso   1.000  O
  O91      1.0000 0.36670  0.99050  0.57880  Biso   1.000  O
  O92      1.0000 0.36670  0.50950  0.07880  Biso   1.000  O
  O93      1.0000 0.52330  0.41090  0.03600  Biso   1.000  O
  O94      1.0000 0.52330  0.08910  0.53600  Biso   1.000  O
  O95      1.0000 0.47670  0.58910  0.96400  Biso   1.000  O
  O96      1.0000 0.47670  0.91090  0.46400  Biso   1.000  O
  N1       1.0000 0.53940  0.23160  0.84810  Biso   1.000  N
  N2       1.0000 0.53940  0.26840  0.34810  Biso   1.000  N
  N3       1.0000 0.46060  0.76840  0.15190  Biso   1.000  N
  N4       1.0000 0.46060  0.73160  0.65190  Biso   1.000  N
  N5       1.0000 0.72640  0.30300  0.84260  Biso   1.000  N
  N6       1.0000 0.72640  0.19700  0.34260  Biso   1.000  N
  N7       1.0000 0.27360  0.69700  0.15740  Biso   1.000  N
  N8       1.0000 0.27360  0.80300  0.65740  Biso   1.000  N
  N9       1.0000 0.64330  0.40330  0.77610  Biso   1.000  N
  N10      1.0000 0.64330  0.09670  0.27610  Biso   1.000  N
  N11      1.0000 0.35670  0.59670  0.22390  Biso   1.000  N
  N12      1.0000 0.35670  0.90330  0.72390  Biso   1.000  N
  N13      1.0000 0.10950  0.36950  0.91720  Biso   1.000  N
  N14      1.0000 0.10950  0.13050  0.41720  Biso   1.000  N
  N15      1.0000 0.89050  0.63050  0.08280  Biso   1.000  N
  N16      1.0000 0.89050  0.86950  0.58280  Biso   1.000  N
  N17      1.0000 0.93980  0.28430  0.89620  Biso   1.000  N
  N18      1.0000 0.93980  0.21570  0.39620  Biso   1.000  N
  N19      1.0000 0.06020  0.71570  0.10380  Biso   1.000  N
  N20      1.0000 0.06020  0.78430  0.60380  Biso   1.000  N
  N21      1.0000 0.04280  0.17240  0.92970  Biso   1.000  N
  N22      1.0000 0.04280  0.32760  0.42970  Biso   1.000  N
  N23      1.0000 0.95720  0.82760  0.07030  Biso   1.000  N
  N24      1.0000 0.95720  0.67240  0.57030  Biso   1.000  N
  C1       1.0000 0.43280  0.20170  0.85400  Biso   1.000  C
  C2       1.0000 0.43280  0.29830  0.35400  Biso   1.000  C
  C3       1.0000 0.56720  0.79830  0.14600  Biso   1.000  C
  C4       1.0000 0.56720  0.70170  0.64600  Biso   1.000  C
  H1       1.0000 0.36390  0.22250  0.83390  Biso   1.000  H
  H2       1.0000 0.36390  0.27750  0.33390  Biso   1.000  H
  H3       1.0000 0.63610  0.77750  0.16610  Biso   1.000  H
  H4       1.0000 0.63610  0.72250  0.66610  Biso   1.000  H
  C5       1.0000 0.41950  0.14220  0.88810  Biso   1.000  C
  C6       1.0000 0.41950  0.35780  0.38810  Biso   1.000  C
  C7       1.0000 0.58050  0.85780  0.11190  Biso   1.000  C
  C8       1.0000 0.58050  0.64220  0.61190  Biso   1.000  C
  H5       1.0000 0.34320  0.12180  0.89040  Biso   1.000  H
  H6       1.0000 0.34320  0.37820  0.39040  Biso   1.000  H
  H7       1.0000 0.65680  0.87820  0.10960  Biso   1.000  H
  H8       1.0000 0.65680  0.62180  0.60960  Biso   1.000  H
  C9       1.0000 0.51910  0.11240  0.91900  Biso   1.000  C
  C10      1.0000 0.51910  0.38760  0.41900  Biso   1.000  C
  C11      1.0000 0.48090  0.88760  0.08100  Biso   1.000  C
  C12      1.0000 0.48090  0.61240  0.58100  Biso   1.000  C
  H9       1.0000 0.51190  0.07160  0.94300  Biso   1.000  H
  H10      1.0000 0.51190  0.42840  0.44300  Biso   1.000  H
  H11      1.0000 0.48810  0.92840  0.05700  Biso   1.000  H
  H12      1.0000 0.48810  0.57160  0.55700  Biso   1.000  H
  C13      1.0000 0.62990  0.14340  0.91420  Biso   1.000  C
  C14      1.0000 0.62990  0.35660  0.41420  Biso   1.000  C
  C15      1.0000 0.37010  0.85660  0.08580  Biso   1.000  C
  C16      1.0000 0.37010  0.64340  0.58580  Biso   1.000  C
  H13      1.0000 0.69870  0.12480  0.93640  Biso   1.000  H
  H14      1.0000 0.69870  0.37520  0.43640  Biso   1.000  H
  H15      1.0000 0.30130  0.87520  0.06360  Biso   1.000  H
  H16      1.0000 0.30130  0.62480  0.56360  Biso   1.000  H
  C17      1.0000 0.63900  0.20180  0.87670  Biso   1.000  C
  C18      1.0000 0.63900  0.29820  0.37670  Biso   1.000  C
  C19      1.0000 0.36100  0.79820  0.12330  Biso   1.000  C
  C20      1.0000 0.36100  0.70180  0.62330  Biso   1.000  C
  C21      1.0000 0.74810  0.24230  0.87000  Biso   1.000  C
  C22      1.0000 0.74810  0.25770  0.37000  Biso   1.000  C
  C23      1.0000 0.25190  0.75770  0.13000  Biso   1.000  C
  C24      1.0000 0.25190  0.74230  0.63000  Biso   1.000  C
  C25      1.0000 0.80410  0.35440  0.83810  Biso   1.000  C
  C26      1.0000 0.80410  0.14560  0.33810  Biso   1.000  C
  C27      1.0000 0.19590  0.64560  0.16190  Biso   1.000  C
  C28      1.0000 0.19590  0.85440  0.66190  Biso   1.000  C
  C29      1.0000 0.76160  0.40840  0.79340  Biso   1.000  C
  C30      1.0000 0.76160  0.09160  0.29340  Biso   1.000  C
  C31      1.0000 0.23840  0.59160  0.20660  Biso   1.000  C
  C32      1.0000 0.23840  0.90840  0.70660  Biso   1.000  C
  C33      1.0000 0.83220  0.45740  0.76820  Biso   1.000  C
  C34      1.0000 0.83220  0.04260  0.26820  Biso   1.000  C
  C35      1.0000 0.16780  0.54260  0.23180  Biso   1.000  C
  C36      1.0000 0.16780  0.95740  0.73180  Biso   1.000  C
  H17      1.0000 0.91570  0.45790  0.77860  Biso   1.000  H
  H18      1.0000 0.91570  0.04210  0.27860  Biso   1.000  H
  H19      1.0000 0.08430  0.54210  0.22140  Biso   1.000  H
  H20      1.0000 0.08430  0.95790  0.72140  Biso   1.000  H
  C37      1.0000 0.78000  0.50660  0.72720  Biso   1.000  C
  C38      1.0000 0.78000  0.99340  0.22720  Biso   1.000  C
  C39      1.0000 0.22000  0.49340  0.27280  Biso   1.000  C
  C40      1.0000 0.22000  0.00660  0.77280  Biso   1.000  C
  H21      1.0000 0.82690  0.54150  0.70980  Biso   1.000  H
  H22      1.0000 0.82690  0.95850  0.20980  Biso   1.000  H
  H23      1.0000 0.17310  0.45850  0.29020  Biso   1.000  H
  H24      1.0000 0.17310  0.04150  0.79020  Biso   1.000  H
  C41      1.0000 0.65900  0.50350  0.71220  Biso   1.000  C
  C42      1.0000 0.65900  0.99650  0.21220  Biso   1.000  C
  C43      1.0000 0.34100  0.49650  0.28780  Biso   1.000  C
  C44      1.0000 0.34100  0.00350  0.78780  Biso   1.000  C
  H25      1.0000 0.62080  0.53730  0.68570  Biso   1.000  H
  H26      1.0000 0.62080  0.96270  0.18570  Biso   1.000  H
  H27      1.0000 0.37920  0.46270  0.31430  Biso   1.000  H
  H28      1.0000 0.37920  0.03730  0.81430  Biso   1.000  H
  C45      1.0000 0.59420  0.45050  0.73640  Biso   1.000  C
  C46      1.0000 0.59420  0.04950  0.23640  Biso   1.000  C
  C47      1.0000 0.40580  0.54950  0.26360  Biso   1.000  C
  C48      1.0000 0.40580  0.95050  0.76360  Biso   1.000  C
  H29      1.0000 0.51150  0.44740  0.72440  Biso   1.000  H
  H30      1.0000 0.51150  0.05260  0.22440  Biso   1.000  H
  H31      1.0000 0.48850  0.55260  0.27560  Biso   1.000  H
  H32      1.0000 0.48850  0.94740  0.77560  Biso   1.000  H
  C49      1.0000 0.10780  0.11650  0.94410  Biso   1.000  C
  C50      1.0000 0.10780  0.38350  0.44410  Biso   1.000  C
  C51      1.0000 0.89220  0.88350  0.05590  Biso   1.000  C
  C52      1.0000 0.89220  0.61650  0.55590  Biso   1.000  C
  H33      1.0000 0.18500  0.12190  0.96440  Biso   1.000  H
  H34      1.0000 0.18500  0.37810  0.46440  Biso   1.000  H
  H35      1.0000 0.81500  0.87810  0.03560  Biso   1.000  H
  H36      1.0000 0.81500  0.62190  0.53560  Biso   1.000  H
  C53      1.0000 0.06680  0.05160  0.93060  Biso   1.000  C
  C54      1.0000 0.06680  0.44840  0.43060  Biso   1.000  C
  C55      1.0000 0.93320  0.94840  0.06940  Biso   1.000  C
  C56      1.0000 0.93320  0.55160  0.56940  Biso   1.000  C
  H37      1.0000 0.11350  0.01290  0.94360  Biso   1.000  H
  H38      1.0000 0.11350  0.48710  0.44360  Biso   1.000  H
  H39      1.0000 0.88650  0.98710  0.05640  Biso   1.000  H
  H40      1.0000 0.88650  0.51290  0.55640  Biso   1.000  H
  C57      1.0000 0.95690  0.04250  0.89780  Biso   1.000  C
  C58      1.0000 0.95690  0.45750  0.39780  Biso   1.000  C
  C59      1.0000 0.04310  0.95750  0.10220  Biso   1.000  C
  C60      1.0000 0.04310  0.54250  0.60220  Biso   1.000  C
  H41      1.0000 0.92850  0.99810  0.88640  Biso   1.000  H
  H42      1.0000 0.92850  0.50190  0.38640  Biso   1.000  H
  H43      1.0000 0.07150  0.00190  0.11360  Biso   1.000  H
  H44      1.0000 0.07150  0.49810  0.61360  Biso   1.000  H
  C61      1.0000 0.88990  0.10060  0.88240  Biso   1.000  C
  C62      1.0000 0.88990  0.39940  0.38240  Biso   1.000  C
  C63      1.0000 0.11010  0.89940  0.11760  Biso   1.000  C
  C64      1.0000 0.11010  0.60060  0.61760  Biso   1.000  C
  H45      1.0000 0.81530  0.09620  0.85890  Biso   1.000  H
  H46      1.0000 0.81530  0.40380  0.35890  Biso   1.000  H
  H47      1.0000 0.18470  0.90380  0.14110  Biso   1.000  H
  H48      1.0000 0.18470  0.59620  0.64110  Biso   1.000  H
  C65      1.0000 0.93030  0.16350  0.90040  Biso   1.000  C
  C66      1.0000 0.93030  0.33650  0.40040  Biso   1.000  C
  C67      1.0000 0.06970  0.83650  0.09960  Biso   1.000  C
  C68      1.0000 0.06970  0.66350  0.59960  Biso   1.000  C
  C69      1.0000 0.86790  0.22890  0.88940  Biso   1.000  C
  C70      1.0000 0.86790  0.27110  0.38940  Biso   1.000  C
  C71      1.0000 0.13210  0.77110  0.11060  Biso   1.000  C
  C72      1.0000 0.13210  0.72890  0.61060  Biso   1.000  C
  C73      1.0000 0.91250  0.34760  0.87580  Biso   1.000  C
  C74      1.0000 0.91250  0.15240  0.37580  Biso   1.000  C
  C75      1.0000 0.08750  0.65240  0.12420  Biso   1.000  C
  C76      1.0000 0.08750  0.84760  0.62420  Biso   1.000  C
  C77      1.0000 0.00450  0.39820  0.89650  Biso   1.000  C
  C78      1.0000 0.00450  0.10180  0.39650  Biso   1.000  C
  C79      1.0000 0.99550  0.60180  0.10350  Biso   1.000  C
  C80      1.0000 0.99550  0.89820  0.60350  Biso   1.000  C
  C81      1.0000 0.98780  0.46810  0.89830  Biso   1.000  C
  C82      1.0000 0.98780  0.03190  0.39830  Biso   1.000  C
  C83      1.0000 0.01220  0.53190  0.10170  Biso   1.000  C
  C84      1.0000 0.01220  0.96810  0.60170  Biso   1.000  C
  H49      1.0000 0.91230  0.48760  0.88630  Biso   1.000  H
  H50      1.0000 0.91230  0.01240  0.38630  Biso   1.000  H
  H51      1.0000 0.08770  0.51240  0.11370  Biso   1.000  H
  H52      1.0000 0.08770  0.98760  0.61370  Biso   1.000  H
  C85      1.0000 0.08510  0.51020  0.91820  Biso   1.000  C
  C86      1.0000 0.08510  0.98980  0.41820  Biso   1.000  C
  C87      1.0000 0.91490  0.48980  0.08180  Biso   1.000  C
  C88      1.0000 0.91490  0.01020  0.58180  Biso   1.000  C
  H53      1.0000 0.07670  0.55870  0.91930  Biso   1.000  H
  H54      1.0000 0.07670  0.94130  0.41930  Biso   1.000  H
  H55      1.0000 0.92330  0.44130  0.08070  Biso   1.000  H
  H56      1.0000 0.92330  0.05870  0.58070  Biso   1.000  H
  C89      1.0000 0.19310  0.47980  0.93610  Biso   1.000  C
  C90      1.0000 0.19310  0.02020  0.43610  Biso   1.000  C
  C91      1.0000 0.80690  0.52020  0.06390  Biso   1.000  C
  C92      1.0000 0.80690  0.97980  0.56390  Biso   1.000  C
  H57      1.0000 0.26090  0.50700  0.94810  Biso   1.000  H
  H58      1.0000 0.26090  0.99300  0.44810  Biso   1.000  H
  H59      1.0000 0.73910  0.49300  0.05190  Biso   1.000  H
  H60      1.0000 0.73910  0.00700  0.55190  Biso   1.000  H
  C93      1.0000 0.20070  0.40960  0.93630  Biso   1.000  C
  C94      1.0000 0.20070  0.09040  0.43630  Biso   1.000  C
  C95      1.0000 0.79930  0.59040  0.06370  Biso   1.000  C
  C96      1.0000 0.79930  0.90960  0.56370  Biso   1.000  C
  H61      1.0000 0.27380  0.38870  0.95070  Biso   1.000  H
  H62      1.0000 0.27380  0.11130  0.45070  Biso   1.000  H
  H63      1.0000 0.72620  0.61130  0.04930  Biso   1.000  H
  H64      1.0000 0.72620  0.88870  0.54930  Biso   1.000  H
  C97      1.0000 0.95410  0.17880  0.09500  Biso   1.000  C
  C98      1.0000 0.95410  0.32120  0.59500  Biso   1.000  C
  C99      1.0000 0.04590  0.82120  0.90500  Biso   1.000  C
  C100     1.0000 0.04590  0.67880  0.40500  Biso   1.000  C
  C101     1.0000 0.89620  0.23160  0.05980  Biso   1.000  C
  C102     1.0000 0.89620  0.26840  0.55980  Biso   1.000  C
  C103     1.0000 0.10380  0.76840  0.94020  Biso   1.000  C
  C104     1.0000 0.10380  0.73160  0.44020  Biso   1.000  C
  H65      1.0000 0.94020  0.27020  0.04680  Biso   1.000  H
  H66      1.0000 0.94020  0.22980  0.54680  Biso   1.000  H
  H67      1.0000 0.05980  0.72980  0.95320  Biso   1.000  H
  H68      1.0000 0.05980  0.77020  0.45320  Biso   1.000  H
  C105     1.0000 0.77390  0.22730  0.04420  Biso   1.000  C
  C106     1.0000 0.77390  0.27270  0.54420  Biso   1.000  C
  C107     1.0000 0.22610  0.77270  0.95580  Biso   1.000  C
  C108     1.0000 0.22610  0.72730  0.45580  Biso   1.000  C
  H69      1.0000 0.73510  0.26270  0.01980  Biso   1.000  H
  H70      1.0000 0.73510  0.23730  0.51980  Biso   1.000  H
  H71      1.0000 0.26490  0.73730  0.98020  Biso   1.000  H
  H72      1.0000 0.26490  0.76270  0.48020  Biso   1.000  H
  C109     1.0000 0.70920  0.17200  0.06370  Biso   1.000  C
  C110     1.0000 0.70920  0.32800  0.56370  Biso   1.000  C
  C111     1.0000 0.29080  0.82800  0.93630  Biso   1.000  C
  C112     1.0000 0.29080  0.67200  0.43630  Biso   1.000  C
  H73      1.0000 0.62600  0.16950  0.05300  Biso   1.000  H
  H74      1.0000 0.62600  0.33050  0.55300  Biso   1.000  H
  H75      1.0000 0.37400  0.83050  0.94700  Biso   1.000  H
  H76      1.0000 0.37400  0.66950  0.44700  Biso   1.000  H
  C113     1.0000 0.76560  0.12000  0.09920  Biso   1.000  C
  C114     1.0000 0.76560  0.38000  0.59920  Biso   1.000  C
  C115     1.0000 0.23440  0.88000  0.90080  Biso   1.000  C
  C116     1.0000 0.23440  0.62000  0.40080  Biso   1.000  C
  H77      1.0000 0.72130  0.08180  0.11250  Biso   1.000  H
  H78      1.0000 0.72130  0.41820  0.61250  Biso   1.000  H
  H79      1.0000 0.27870  0.91820  0.88750  Biso   1.000  H
  H80      1.0000 0.27870  0.58180  0.38750  Biso   1.000  H
  C117     1.0000 0.88610  0.12420  0.11480  Biso   1.000  C
  C118     1.0000 0.88610  0.37580  0.61480  Biso   1.000  C
  C119     1.0000 0.11390  0.87580  0.88520  Biso   1.000  C
  C120     1.0000 0.11390  0.62420  0.38520  Biso   1.000  C
  H81      1.0000 0.92380  0.08890  0.13980  Biso   1.000  H
  H82      1.0000 0.92380  0.41110  0.63980  Biso   1.000  H
  H83      1.0000 0.07620  0.91110  0.86020  Biso   1.000  H
  H84      1.0000 0.07620  0.58890  0.36020  Biso   1.000  H
  C121     1.0000 0.53340  0.29650  0.19560  Biso   1.000  C
  C122     1.0000 0.53340  0.20350  0.69560  Biso   1.000  C
  C123     1.0000 0.46660  0.70350  0.80440  Biso   1.000  C
  C124     1.0000 0.46660  0.79650  0.30440  Biso   1.000  C
  C125     1.0000 0.64690  0.26970  0.18870  Biso   1.000  C
  C126     1.0000 0.64690  0.23030  0.68870  Biso   1.000  C
  C127     1.0000 0.35310  0.73030  0.81130  Biso   1.000  C
  C128     1.0000 0.35310  0.76970  0.31130  Biso   1.000  C
  H85      1.0000 0.65730  0.22260  0.17930  Biso   1.000  H
  H86      1.0000 0.65730  0.27740  0.67930  Biso   1.000  H
  H87      1.0000 0.34270  0.77740  0.82070  Biso   1.000  H
  H88      1.0000 0.34270  0.72260  0.32070  Biso   1.000  H
  C129     1.0000 0.74650  0.31420  0.19620  Biso   1.000  C
  C130     1.0000 0.74650  0.18580  0.69620  Biso   1.000  C
  C131     1.0000 0.25350  0.68580  0.80380  Biso   1.000  C
  C132     1.0000 0.25350  0.81420  0.30380  Biso   1.000  C
  H89      1.0000 0.82440  0.29680  0.19190  Biso   1.000  H
  H90      1.0000 0.82440  0.20320  0.69190  Biso   1.000  H
  H91      1.0000 0.17560  0.70320  0.80810  Biso   1.000  H
  H92      1.0000 0.17560  0.79680  0.30810  Biso   1.000  H
  C133     1.0000 0.73050  0.38200  0.20960  Biso   1.000  C
  C134     1.0000 0.73050  0.11800  0.70960  Biso   1.000  C
  C135     1.0000 0.26950  0.61800  0.79040  Biso   1.000  C
  C136     1.0000 0.26950  0.88200  0.29040  Biso   1.000  C
  H93      1.0000 0.79720  0.41190  0.21410  Biso   1.000  H
  H94      1.0000 0.79720  0.08810  0.71410  Biso   1.000  H
  H95      1.0000 0.20280  0.58810  0.78590  Biso   1.000  H
  H96      1.0000 0.20280  0.91190  0.28590  Biso   1.000  H
  C137     1.0000 0.61770  0.40700  0.21650  Biso   1.000  C
  C138     1.0000 0.61770  0.09300  0.71650  Biso   1.000  C
  C139     1.0000 0.38230  0.59300  0.78350  Biso   1.000  C
  C140     1.0000 0.38230  0.90700  0.28350  Biso   1.000  C
  H97      1.0000 0.60730  0.45390  0.22680  Biso   1.000  H
  H98      1.0000 0.60730  0.04610  0.72680  Biso   1.000  H
  H99      1.0000 0.39270  0.54610  0.77320  Biso   1.000  H
  H100     1.0000 0.39270  0.95390  0.27320  Biso   1.000  H
  C141     1.0000 0.51850  0.36450  0.20870  Biso   1.000  C
  C142     1.0000 0.51850  0.13550  0.70870  Biso   1.000  C
  C143     1.0000 0.48150  0.63550  0.79130  Biso   1.000  C
  C144     1.0000 0.48150  0.86450  0.29130  Biso   1.000  C
  H101     1.0000 0.44090  0.38260  0.21250  Biso   1.000  H
  H102     1.0000 0.44090  0.11740  0.71250  Biso   1.000  H
  H103     1.0000 0.55910  0.61740  0.78750  Biso   1.000  H
  H104     1.0000 0.55910  0.88260  0.28750  Biso   1.000  H
