data_image0
_cell_length_a       11.3222
_cell_length_b       18.7673
_cell_length_c       19.4124
_cell_angle_alpha    90
_cell_angle_beta     98.819
_cell_angle_gamma    90

_symmetry_space_group_name_H-M    "P 1"
_symmetry_int_tables_number       1

loop_
  _symmetry_equiv_pos_as_xyz
  'x, y, z'

loop_
  _atom_site_label
  _atom_site_occupancy
  _atom_site_fract_x
  _atom_site_fract_y
  _atom_site_fract_z
  _atom_site_thermal_displace_type
  _atom_site_B_iso_or_equiv
  _atom_site_type_symbol
  Mo1      1.0000 0.13467  0.84051  0.66983  Biso   1.000  Mo
  Mo2      1.0000 0.63467  0.65949  0.16983  Biso   1.000  Mo
  Mo3      1.0000 0.86533  0.15949  0.33017  Biso   1.000  Mo
  Mo4      1.0000 0.36533  0.34051  0.83017  Biso   1.000  Mo
  Mo5      1.0000 0.92161  0.76538  0.54980  Biso   1.000  Mo
  Mo6      1.0000 0.42161  0.73462  0.04980  Biso   1.000  Mo
  Mo7      1.0000 0.07839  0.23462  0.45020  Biso   1.000  Mo
  Mo8      1.0000 0.57839  0.26538  0.95020  Biso   1.000  Mo
  Mo9      1.0000 0.90956  0.61529  0.79315  Biso   1.000  Mo
  Mo10     1.0000 0.40956  0.88471  0.29315  Biso   1.000  Mo
  Mo11     1.0000 0.09044  0.38471  0.20685  Biso   1.000  Mo
  Mo12     1.0000 0.59044  0.11529  0.70685  Biso   1.000  Mo
  Mo13     1.0000 0.79954  0.62258  0.62049  Biso   1.000  Mo
  Mo14     1.0000 0.29954  0.87742  0.12049  Biso   1.000  Mo
  Mo15     1.0000 0.20046  0.37742  0.37951  Biso   1.000  Mo
  Mo16     1.0000 0.70046  0.12258  0.87951  Biso   1.000  Mo
  Mo17     1.0000 0.16444  0.72868  0.82101  Biso   1.000  Mo
  Mo18     1.0000 0.66444  0.77132  0.32101  Biso   1.000  Mo
  Mo19     1.0000 0.83556  0.27132  0.17899  Biso   1.000  Mo
  Mo20     1.0000 0.33556  0.22868  0.67899  Biso   1.000  Mo
  Cu1      1.0000 0.45397  0.67847  0.54884  Biso   1.000  Cu
  Cu2      1.0000 0.95397  0.82153  0.04884  Biso   1.000  Cu
  Cu3      1.0000 0.54603  0.32153  0.45116  Biso   1.000  Cu
  Cu4      1.0000 0.04603  0.17847  0.95116  Biso   1.000  Cu
  Cu5      1.0000 0.02088  0.77372  0.38531  Biso   1.000  Cu
  Cu6      1.0000 0.52088  0.72628  0.88531  Biso   1.000  Cu
  Cu7      1.0000 0.97912  0.22628  0.61469  Biso   1.000  Cu
  Cu8      1.0000 0.47912  0.27372  0.11469  Biso   1.000  Cu
  P1       1.0000 0.87249  0.78488  0.72301  Biso   1.000  P
  P2       1.0000 0.37249  0.71512  0.22301  Biso   1.000  P
  P3       1.0000 0.12751  0.21512  0.27699  Biso   1.000  P
  P4       1.0000 0.62751  0.28488  0.77699  Biso   1.000  P
  P5       1.0000 0.10392  0.64966  0.66235  Biso   1.000  P
  P6       1.0000 0.60392  0.85034  0.16235  Biso   1.000  P
  P7       1.0000 0.89608  0.35034  0.33765  Biso   1.000  P
  P8       1.0000 0.39608  0.14966  0.83765  Biso   1.000  P
  O1       1.0000 0.00600  0.75988  0.48175  Biso   1.000  O
  O2       1.0000 0.50600  0.74012  0.98175  Biso   1.000  O
  O3       1.0000 0.99400  0.24012  0.51825  Biso   1.000  O
  O4       1.0000 0.49400  0.25988  0.01825  Biso   1.000  O
  O5       1.0000 0.65880  0.64705  0.58408  Biso   1.000  O
  O6       1.0000 0.15880  0.85295  0.08408  Biso   1.000  O
  O7       1.0000 0.34120  0.35295  0.41592  Biso   1.000  O
  O8       1.0000 0.84120  0.14705  0.91592  Biso   1.000  O
  O9       1.0000 0.99880  0.84427  0.59724  Biso   1.000  O
  O10      1.0000 0.49880  0.65573  0.09724  Biso   1.000  O
  O11      1.0000 0.00120  0.15573  0.40276  Biso   1.000  O
  O12      1.0000 0.50120  0.34427  0.90276  Biso   1.000  O
  O13      1.0000 0.88460  0.66698  0.55421  Biso   1.000  O
  O14      1.0000 0.38460  0.83302  0.05421  Biso   1.000  O
  O15      1.0000 0.11540  0.33302  0.44579  Biso   1.000  O
  O16      1.0000 0.61540  0.16698  0.94579  Biso   1.000  O
  O17      1.0000 0.78210  0.62030  0.71619  Biso   1.000  O
  O18      1.0000 0.28210  0.87970  0.21619  Biso   1.000  O
  O19      1.0000 0.21790  0.37970  0.28381  Biso   1.000  O
  O20      1.0000 0.71790  0.12030  0.78381  Biso   1.000  O
  O21      1.0000 0.19920  0.79470  0.75417  Biso   1.000  O
  O22      1.0000 0.69920  0.70530  0.25417  Biso   1.000  O
  O23      1.0000 0.80080  0.20530  0.24583  Biso   1.000  O
  O24      1.0000 0.30080  0.29470  0.74583  Biso   1.000  O
  O25      1.0000 0.06350  0.65070  0.82994  Biso   1.000  O
  O26      1.0000 0.56350  0.84930  0.32994  Biso   1.000  O
  O27      1.0000 0.93650  0.34930  0.17006  Biso   1.000  O
  O28      1.0000 0.43650  0.15070  0.67006  Biso   1.000  O
  O29      1.0000 0.30060  0.69866  0.85683  Biso   1.000  O
  O30      1.0000 0.80060  0.80134  0.35683  Biso   1.000  O
  O31      1.0000 0.69940  0.30134  0.14317  Biso   1.000  O
  O32      1.0000 0.19940  0.19866  0.64317  Biso   1.000  O
  O33      1.0000 0.07990  0.72358  0.63334  Biso   1.000  O
  O34      1.0000 0.57990  0.77642  0.13334  Biso   1.000  O
  O35      1.0000 0.92010  0.27642  0.36666  Biso   1.000  O
  O36      1.0000 0.42010  0.22358  0.86666  Biso   1.000  O
  O37      1.0000 0.19250  0.65554  0.72613  Biso   1.000  O
  O38      1.0000 0.69250  0.84446  0.22613  Biso   1.000  O
  O39      1.0000 0.80750  0.34446  0.27387  Biso   1.000  O
  O40      1.0000 0.30750  0.15554  0.77387  Biso   1.000  O
  O41      1.0000 0.98920  0.62246  0.68393  Biso   1.000  O
  O42      1.0000 0.48920  0.87754  0.18393  Biso   1.000  O
  O43      1.0000 0.01080  0.37754  0.31607  Biso   1.000  O
  O44      1.0000 0.51080  0.12246  0.81607  Biso   1.000  O
  O45      1.0000 0.84110  0.75095  0.65193  Biso   1.000  O
  O46      1.0000 0.34110  0.74905  0.15193  Biso   1.000  O
  O47      1.0000 0.15890  0.24905  0.34807  Biso   1.000  O
  O48      1.0000 0.65890  0.25095  0.84807  Biso   1.000  O
  O49      1.0000 0.95450  0.84850  0.71800  Biso   1.000  O
  O50      1.0000 0.45450  0.65150  0.21800  Biso   1.000  O
  O51      1.0000 0.04550  0.15150  0.28200  Biso   1.000  O
  O52      1.0000 0.54550  0.34850  0.78200  Biso   1.000  O
  O53      1.0000 0.94770  0.73300  0.76870  Biso   1.000  O
  O54      1.0000 0.44770  0.76700  0.26870  Biso   1.000  O
  O55      1.0000 0.05230  0.26700  0.23130  Biso   1.000  O
  O56      1.0000 0.55230  0.23300  0.73130  Biso   1.000  O
  O57      1.0000 0.76840  0.80680  0.75040  Biso   1.000  O
  O58      1.0000 0.26840  0.69320  0.25040  Biso   1.000  O
  O59      1.0000 0.23160  0.19320  0.24960  Biso   1.000  O
  O60      1.0000 0.73160  0.30680  0.74960  Biso   1.000  O
  O61      1.0000 0.00510  0.79090  0.73780  Biso   1.000  O
  O62      1.0000 0.50510  0.70910  0.23780  Biso   1.000  O
  O63      1.0000 0.99490  0.20910  0.26220  Biso   1.000  O
  O64      1.0000 0.49490  0.29090  0.76220  Biso   1.000  O
  O65      1.0000 0.83800  0.73300  0.77600  Biso   1.000  O
  O66      1.0000 0.33800  0.76700  0.27600  Biso   1.000  O
  O67      1.0000 0.16200  0.26700  0.22400  Biso   1.000  O
  O68      1.0000 0.66200  0.23300  0.72400  Biso   1.000  O
  O69      1.0000 0.81140  0.84920  0.72360  Biso   1.000  O
  O70      1.0000 0.31140  0.65080  0.22360  Biso   1.000  O
  O71      1.0000 0.18860  0.15080  0.27640  Biso   1.000  O
  O72      1.0000 0.68860  0.34920  0.77640  Biso   1.000  O
  O73      1.0000 0.14320  0.60468  0.61100  Biso   1.000  O
  O74      1.0000 0.64320  0.89532  0.11100  Biso   1.000  O
  O75      1.0000 0.85680  0.39532  0.38900  Biso   1.000  O
  O76      1.0000 0.35680  0.10468  0.88900  Biso   1.000  O
  O77      1.0000 0.24830  0.83005  0.62322  Biso   1.000  O
  O78      1.0000 0.74830  0.66995  0.12322  Biso   1.000  O
  O79      1.0000 0.75170  0.16995  0.37678  Biso   1.000  O
  O80      1.0000 0.25170  0.33005  0.87678  Biso   1.000  O
  O81      1.0000 0.14570  0.92798  0.69259  Biso   1.000  O
  O82      1.0000 0.64570  0.57202  0.19259  Biso   1.000  O
  O83      1.0000 0.85430  0.07202  0.30741  Biso   1.000  O
  O84      1.0000 0.35430  0.42798  0.80741  Biso   1.000  O
  O85      1.0000 0.12760  0.78484  0.88376  Biso   1.000  O
  O86      1.0000 0.62760  0.71516  0.38376  Biso   1.000  O
  O87      1.0000 0.87240  0.21516  0.11624  Biso   1.000  O
  O88      1.0000 0.37240  0.28484  0.61624  Biso   1.000  O
  O89      1.0000 0.83490  0.62650  0.86225  Biso   1.000  O
  O90      1.0000 0.33490  0.87350  0.36225  Biso   1.000  O
  O91      1.0000 0.16510  0.37350  0.13775  Biso   1.000  O
  O92      1.0000 0.66510  0.12650  0.63775  Biso   1.000  O
  O93      1.0000 0.93910  0.52775  0.79573  Biso   1.000  O
  O94      1.0000 0.43910  0.97225  0.29573  Biso   1.000  O
  O95      1.0000 0.06090  0.47225  0.20427  Biso   1.000  O
  O96      1.0000 0.56090  0.02775  0.70427  Biso   1.000  O
  O97      1.0000 0.79160  0.80242  0.51346  Biso   1.000  O
  O98      1.0000 0.29160  0.69758  0.01346  Biso   1.000  O
  O99      1.0000 0.20840  0.19758  0.48654  Biso   1.000  O
  O100     1.0000 0.70840  0.30242  0.98654  Biso   1.000  O
  O101     1.0000 0.80760  0.53486  0.60049  Biso   1.000  O
  O102     1.0000 0.30760  0.96514  0.10049  Biso   1.000  O
  O103     1.0000 0.19240  0.46514  0.39951  Biso   1.000  O
  O104     1.0000 0.69240  0.03486  0.89951  Biso   1.000  O
  O105     1.0000 0.45810  0.65982  0.45036  Biso   1.000  O
  O106     1.0000 0.95810  0.84018  0.95036  Biso   1.000  O
  O107     1.0000 0.54190  0.34018  0.54964  Biso   1.000  O
  O108     1.0000 0.04190  0.15982  0.04964  Biso   1.000  O
  O109     1.0000 0.26180  0.70770  0.53770  Biso   1.000  O
  O110     1.0000 0.76180  0.79230  0.03770  Biso   1.000  O
  O111     1.0000 0.73820  0.29230  0.46230  Biso   1.000  O
  O112     1.0000 0.23820  0.20770  0.96230  Biso   1.000  O
  O113     1.0000 0.24910  0.67210  0.51440  Biso   1.000  O
  O114     1.0000 0.74910  0.82790  0.01440  Biso   1.000  O
  O115     1.0000 0.75090  0.32790  0.48560  Biso   1.000  O
  O116     1.0000 0.25090  0.17210  0.98560  Biso   1.000  O
  O117     1.0000 0.21880  0.75393  0.40192  Biso   1.000  O
  O118     1.0000 0.71880  0.74607  0.90192  Biso   1.000  O
  O119     1.0000 0.78120  0.24607  0.59808  Biso   1.000  O
  O120     1.0000 0.28120  0.25393  0.09808  Biso   1.000  O
  O121     1.0000 0.29350  0.59950  0.35770  Biso   1.000  O
  O122     1.0000 0.79350  0.90050  0.85770  Biso   1.000  O
  O123     1.0000 0.70650  0.40050  0.64230  Biso   1.000  O
  O124     1.0000 0.20650  0.09950  0.14230  Biso   1.000  O
  O125     1.0000 0.25050  0.03050  0.59850  Biso   1.000  O
  O126     1.0000 0.75050  0.46950  0.09850  Biso   1.000  O
  O127     1.0000 0.74950  0.96950  0.40150  Biso   1.000  O
  O128     1.0000 0.24950  0.53050  0.90150  Biso   1.000  O
  N1       1.0000 0.49030  0.82644  0.85532  Biso   1.000  N
  N2       1.0000 0.99030  0.67356  0.35532  Biso   1.000  N
  N3       1.0000 0.50970  0.17356  0.14468  Biso   1.000  N
  N4       1.0000 0.00970  0.32644  0.64468  Biso   1.000  N
  N5       1.0000 0.50900  0.71337  0.78483  Biso   1.000  N
  N6       1.0000 0.00900  0.78663  0.28483  Biso   1.000  N
  N7       1.0000 0.49100  0.28663  0.21517  Biso   1.000  N
  N8       1.0000 0.99100  0.21337  0.71517  Biso   1.000  N
  N9       1.0000 0.54700  0.62145  0.88383  Biso   1.000  N
  N10      1.0000 0.04700  0.87855  0.38383  Biso   1.000  N
  N11      1.0000 0.45300  0.37855  0.11617  Biso   1.000  N
  N12      1.0000 0.95300  0.12145  0.61617  Biso   1.000  N
  N13      1.0000 0.49320  0.78329  0.55204  Biso   1.000  N
  N14      1.0000 0.99320  0.71671  0.05204  Biso   1.000  N
  N15      1.0000 0.50680  0.21671  0.44796  Biso   1.000  N
  N16      1.0000 0.00680  0.28329  0.94796  Biso   1.000  N
  N17      1.0000 0.47420  0.69414  0.64984  Biso   1.000  N
  N18      1.0000 0.97420  0.80586  0.14984  Biso   1.000  N
  N19      1.0000 0.52580  0.30586  0.35016  Biso   1.000  N
  N20      1.0000 0.02580  0.19414  0.85016  Biso   1.000  N
  N21      1.0000 0.42310  0.57875  0.58029  Biso   1.000  N
  N22      1.0000 0.92310  0.92125  0.08029  Biso   1.000  N
  N23      1.0000 0.57690  0.42125  0.41971  Biso   1.000  N
  N24      1.0000 0.07690  0.07875  0.91971  Biso   1.000  N
  C1       1.0000 0.58350  0.58130  0.93950  Biso   1.000  C
  C2       1.0000 0.08350  0.91870  0.43950  Biso   1.000  C
  C3       1.0000 0.41650  0.41870  0.06050  Biso   1.000  C
  C4       1.0000 0.91650  0.08130  0.56050  Biso   1.000  C
  H1       1.0000 0.58070  0.60010  0.98350  Biso   1.000  H
  H2       1.0000 0.08070  0.89990  0.48350  Biso   1.000  H
  H3       1.0000 0.41930  0.39990  0.01650  Biso   1.000  H
  H4       1.0000 0.91930  0.10010  0.51650  Biso   1.000  H
  C5       1.0000 0.62590  0.51190  0.93430  Biso   1.000  C
  C6       1.0000 0.12590  0.98810  0.43430  Biso   1.000  C
  C7       1.0000 0.37410  0.48810  0.06570  Biso   1.000  C
  C8       1.0000 0.87410  0.01190  0.56570  Biso   1.000  C
  H5       1.0000 0.64920  0.48440  0.97390  Biso   1.000  H
  H6       1.0000 0.14920  0.01560  0.47390  Biso   1.000  H
  H7       1.0000 0.35080  0.51560  0.02610  Biso   1.000  H
  H8       1.0000 0.85080  0.98440  0.52610  Biso   1.000  H
  C9       1.0000 0.63230  0.48500  0.86856  Biso   1.000  C
  C10      1.0000 0.13230  0.01500  0.36856  Biso   1.000  C
  C11      1.0000 0.36770  0.51500  0.13144  Biso   1.000  C
  C12      1.0000 0.86770  0.98500  0.63144  Biso   1.000  C
  H9       1.0000 0.66120  0.43930  0.86340  Biso   1.000  H
  H10      1.0000 0.16120  0.06070  0.36340  Biso   1.000  H
  H11      1.0000 0.33880  0.56070  0.13660  Biso   1.000  H
  H12      1.0000 0.83880  0.93930  0.63660  Biso   1.000  H
  C13      1.0000 0.59490  0.52729  0.80996  Biso   1.000  C
  C14      1.0000 0.09490  0.97271  0.30996  Biso   1.000  C
  C15      1.0000 0.40510  0.47271  0.19004  Biso   1.000  C
  C16      1.0000 0.90510  0.02729  0.69004  Biso   1.000  C
  H13      1.0000 0.59990  0.51040  0.76550  Biso   1.000  H
  H14      1.0000 0.09990  0.98960  0.26550  Biso   1.000  H
  H15      1.0000 0.40010  0.48960  0.23450  Biso   1.000  H
  H16      1.0000 0.90010  0.01040  0.73450  Biso   1.000  H
  C17      1.0000 0.55030  0.59450  0.81914  Biso   1.000  C
  C18      1.0000 0.05030  0.90550  0.31914  Biso   1.000  C
  C19      1.0000 0.44970  0.40550  0.18086  Biso   1.000  C
  C20      1.0000 0.94970  0.09450  0.68086  Biso   1.000  C
  C21      1.0000 0.51020  0.64596  0.76209  Biso   1.000  C
  C22      1.0000 0.01020  0.85404  0.26209  Biso   1.000  C
  C23      1.0000 0.48980  0.35404  0.23791  Biso   1.000  C
  C24      1.0000 0.98980  0.14596  0.73791  Biso   1.000  C
  C25      1.0000 0.47440  0.63644  0.69006  Biso   1.000  C
  C26      1.0000 0.97440  0.86356  0.19006  Biso   1.000  C
  C27      1.0000 0.52560  0.36356  0.30994  Biso   1.000  C
  C28      1.0000 0.02560  0.13644  0.80994  Biso   1.000  C
  C29      1.0000 0.49290  0.77182  0.74487  Biso   1.000  C
  C30      1.0000 0.99290  0.72818  0.24487  Biso   1.000  C
  C31      1.0000 0.50710  0.22818  0.25513  Biso   1.000  C
  C32      1.0000 0.00710  0.27182  0.75513  Biso   1.000  C
  C33      1.0000 0.47190  0.83691  0.78467  Biso   1.000  C
  C34      1.0000 0.97190  0.66309  0.28467  Biso   1.000  C
  C35      1.0000 0.52810  0.16309  0.21533  Biso   1.000  C
  C36      1.0000 0.02810  0.33691  0.71533  Biso   1.000  C
  C37      1.0000 0.42910  0.90085  0.75640  Biso   1.000  C
  C38      1.0000 0.92910  0.59915  0.25640  Biso   1.000  C
  C39      1.0000 0.57090  0.09915  0.24360  Biso   1.000  C
  C40      1.0000 0.07090  0.40085  0.74360  Biso   1.000  C
  H17      1.0000 0.41190  0.90660  0.70830  Biso   1.000  H
  H18      1.0000 0.91190  0.59340  0.20830  Biso   1.000  H
  H19      1.0000 0.58810  0.09340  0.29170  Biso   1.000  H
  H20      1.0000 0.08810  0.40660  0.79170  Biso   1.000  H
  C41      1.0000 0.41210  0.95650  0.80070  Biso   1.000  C
  C42      1.0000 0.91210  0.54350  0.30070  Biso   1.000  C
  C43      1.0000 0.58790  0.04350  0.19930  Biso   1.000  C
  C44      1.0000 0.08790  0.45650  0.69930  Biso   1.000  C
  H21      1.0000 0.38340  0.00000  0.78230  Biso   1.000  H
  H22      1.0000 0.88340  0.50000  0.28230  Biso   1.000  H
  H23      1.0000 0.61660  0.00000  0.21770  Biso   1.000  H
  H24      1.0000 0.11660  0.50000  0.71770  Biso   1.000  H
  C45      1.0000 0.47430  0.88040  0.89780  Biso   1.000  C
  C46      1.0000 0.97430  0.61960  0.39780  Biso   1.000  C
  C47      1.0000 0.52570  0.11960  0.10220  Biso   1.000  C
  C48      1.0000 0.02570  0.38040  0.60220  Biso   1.000  C
  H25      1.0000 0.48790  0.87300  0.94570  Biso   1.000  H
  H26      1.0000 0.98790  0.62700  0.44570  Biso   1.000  H
  H27      1.0000 0.51210  0.12700  0.05430  Biso   1.000  H
  H28      1.0000 0.01210  0.37300  0.55430  Biso   1.000  H
  C49      1.0000 0.37980  0.52390  0.54002  Biso   1.000  C
  C50      1.0000 0.87980  0.97610  0.04002  Biso   1.000  C
  C51      1.0000 0.62020  0.47610  0.45998  Biso   1.000  C
  C52      1.0000 0.12020  0.02390  0.95998  Biso   1.000  C
  H29      1.0000 0.37200  0.52900  0.49190  Biso   1.000  H
  H30      1.0000 0.87200  0.97100  0.99190  Biso   1.000  H
  H31      1.0000 0.62800  0.47100  0.50810  Biso   1.000  H
  H32      1.0000 0.12800  0.02900  0.00810  Biso   1.000  H
  C53      1.0000 0.34610  0.46000  0.56690  Biso   1.000  C
  C54      1.0000 0.84610  0.04000  0.06690  Biso   1.000  C
  C55      1.0000 0.65390  0.54000  0.43310  Biso   1.000  C
  C56      1.0000 0.15390  0.96000  0.93310  Biso   1.000  C
  H33      1.0000 0.31930  0.42220  0.53760  Biso   1.000  H
  H34      1.0000 0.81930  0.07780  0.03760  Biso   1.000  H
  H35      1.0000 0.68070  0.57780  0.46240  Biso   1.000  H
  H36      1.0000 0.18070  0.92220  0.96240  Biso   1.000  H
  C57      1.0000 0.35320  0.45370  0.63850  Biso   1.000  C
  C58      1.0000 0.85320  0.04630  0.13850  Biso   1.000  C
  C59      1.0000 0.64680  0.54630  0.36150  Biso   1.000  C
  C60      1.0000 0.14680  0.95370  0.86150  Biso   1.000  C
  H37      1.0000 0.33030  0.41160  0.65800  Biso   1.000  H
  H38      1.0000 0.83030  0.08840  0.15800  Biso   1.000  H
  H39      1.0000 0.66970  0.58840  0.34200  Biso   1.000  H
  H40      1.0000 0.16970  0.91160  0.84200  Biso   1.000  H
  C61      1.0000 0.39500  0.51060  0.68070  Biso   1.000  C
  C62      1.0000 0.89500  0.98940  0.18070  Biso   1.000  C
  C63      1.0000 0.60500  0.48940  0.31930  Biso   1.000  C
  C64      1.0000 0.10500  0.01060  0.81930  Biso   1.000  C
  H41      1.0000 0.39820  0.50760  0.72880  Biso   1.000  H
  H42      1.0000 0.89820  0.99240  0.22880  Biso   1.000  H
  H43      1.0000 0.60180  0.49240  0.27120  Biso   1.000  H
  H44      1.0000 0.10180  0.00760  0.77120  Biso   1.000  H
  C65      1.0000 0.43180  0.57190  0.65071  Biso   1.000  C
  C66      1.0000 0.93180  0.92810  0.15071  Biso   1.000  C
  C67      1.0000 0.56820  0.42810  0.34929  Biso   1.000  C
  C68      1.0000 0.06820  0.07190  0.84929  Biso   1.000  C
  C69      1.0000 0.49410  0.76135  0.67251  Biso   1.000  C
  C70      1.0000 0.99410  0.73865  0.17251  Biso   1.000  C
  C71      1.0000 0.50590  0.23865  0.32749  Biso   1.000  C
  C72      1.0000 0.00590  0.26135  0.82749  Biso   1.000  C
  C73      1.0000 0.56350  0.87890  0.62860  Biso   1.000  C
  C74      1.0000 0.06350  0.62110  0.12860  Biso   1.000  C
  C75      1.0000 0.43650  0.12110  0.37140  Biso   1.000  C
  C76      1.0000 0.93650  0.37890  0.87140  Biso   1.000  C
  H45      1.0000 0.58410  0.89580  0.67380  Biso   1.000  H
  H46      1.0000 0.08410  0.60420  0.17380  Biso   1.000  H
  H47      1.0000 0.41590  0.10420  0.32620  Biso   1.000  H
  H48      1.0000 0.91590  0.39580  0.82620  Biso   1.000  H
  C77      1.0000 0.57980  0.92130  0.57150  Biso   1.000  C
  C78      1.0000 0.07980  0.57870  0.07150  Biso   1.000  C
  C79      1.0000 0.42020  0.07870  0.42850  Biso   1.000  C
  C80      1.0000 0.92020  0.42130  0.92850  Biso   1.000  C
  H49      1.0000 0.60900  0.96750  0.57830  Biso   1.000  H
  H50      1.0000 0.10900  0.53250  0.07830  Biso   1.000  H
  H51      1.0000 0.39100  0.03250  0.42170  Biso   1.000  H
  H52      1.0000 0.89100  0.46750  0.92170  Biso   1.000  H
  C81      1.0000 0.55220  0.89380  0.50520  Biso   1.000  C
  C82      1.0000 0.05220  0.60620  0.00520  Biso   1.000  C
  C83      1.0000 0.44780  0.10620  0.49480  Biso   1.000  C
  C84      1.0000 0.94780  0.39380  0.99480  Biso   1.000  C
  H53      1.0000 0.56040  0.92130  0.46640  Biso   1.000  H
  H54      1.0000 0.06040  0.57870  0.96640  Biso   1.000  H
  H55      1.0000 0.43960  0.07870  0.53360  Biso   1.000  H
  H56      1.0000 0.93960  0.42130  0.03360  Biso   1.000  H
  C85      1.0000 0.51160  0.82330  0.49780  Biso   1.000  C
  C86      1.0000 0.01160  0.67670  0.99780  Biso   1.000  C
  C87      1.0000 0.48840  0.17670  0.50220  Biso   1.000  C
  C88      1.0000 0.98840  0.32330  0.00220  Biso   1.000  C
  H57      1.0000 0.49680  0.80360  0.45340  Biso   1.000  H
  H58      1.0000 0.99680  0.69640  0.95340  Biso   1.000  H
  H59      1.0000 0.50320  0.19640  0.54660  Biso   1.000  H
  H60      1.0000 0.00320  0.30360  0.04660  Biso   1.000  H
  C89      1.0000 0.51620  0.81141  0.61653  Biso   1.000  C
  C90      1.0000 0.01620  0.68859  0.11653  Biso   1.000  C
  C91      1.0000 0.48380  0.18859  0.38347  Biso   1.000  C
  C92      1.0000 0.98380  0.31141  0.88347  Biso   1.000  C
  C93      1.0000 0.43770  0.94760  0.87190  Biso   1.000  C
  C94      1.0000 0.93770  0.55240  0.37190  Biso   1.000  C
  C95      1.0000 0.56230  0.05240  0.12810  Biso   1.000  C
  C96      1.0000 0.06230  0.44760  0.62810  Biso   1.000  C
  H61      1.0000 0.43080  0.98540  0.90200  Biso   1.000  H
  H62      1.0000 0.93080  0.51460  0.40200  Biso   1.000  H
  H63      1.0000 0.56920  0.01460  0.09800  Biso   1.000  H
  H64      1.0000 0.06920  0.48540  0.59800  Biso   1.000  H
