data_image0
_cell_length_a       11.1221
_cell_length_b       11.1411
_cell_length_c       17.2584
_cell_angle_alpha    90
_cell_angle_beta     99.88
_cell_angle_gamma    90

_symmetry_space_group_name_H-M    "P 1"
_symmetry_int_tables_number       1

loop_
  _symmetry_equiv_pos_as_xyz
  'x, y, z'

loop_
  _atom_site_label
  _atom_site_occupancy
  _atom_site_fract_x
  _atom_site_fract_y
  _atom_site_fract_z
  _atom_site_thermal_displace_type
  _atom_site_B_iso_or_equiv
  _atom_site_type_symbol
  C1       1.0000 0.27880  0.17160  0.08440  Biso   1.000  C
  C2       1.0000 0.22120  0.67160  0.41560  Biso   1.000  C
  C3       1.0000 0.72120  0.82840  0.91560  Biso   1.000  C
  C4       1.0000 0.77880  0.32840  0.58440  Biso   1.000  C
  H1       1.0000 0.34190  0.22030  0.06910  Biso   1.000  H
  H2       1.0000 0.15810  0.72030  0.43090  Biso   1.000  H
  H3       1.0000 0.65810  0.77970  0.93090  Biso   1.000  H
  H4       1.0000 0.84190  0.27970  0.56910  Biso   1.000  H
  H5       1.0000 0.20190  0.21240  0.07150  Biso   1.000  H
  H6       1.0000 0.29810  0.71240  0.42850  Biso   1.000  H
  H7       1.0000 0.79810  0.78760  0.92850  Biso   1.000  H
  H8       1.0000 0.70190  0.28760  0.57150  Biso   1.000  H
  H9       1.0000 0.27460  0.09640  0.05690  Biso   1.000  H
  H10      1.0000 0.22540  0.59640  0.44310  Biso   1.000  H
  H11      1.0000 0.72540  0.90360  0.94310  Biso   1.000  H
  H12      1.0000 0.77460  0.40360  0.55690  Biso   1.000  H
  C5       1.0000 0.32370  0.23760  0.23570  Biso   1.000  C
  C6       1.0000 0.17630  0.73760  0.26430  Biso   1.000  C
  C7       1.0000 0.67630  0.76240  0.76430  Biso   1.000  C
  C8       1.0000 0.82370  0.26240  0.73570  Biso   1.000  C
  H13      1.0000 0.34840  0.19750  0.28510  Biso   1.000  H
  H14      1.0000 0.15160  0.69750  0.21490  Biso   1.000  H
  H15      1.0000 0.65160  0.80250  0.71490  Biso   1.000  H
  H16      1.0000 0.84840  0.30250  0.78510  Biso   1.000  H
  H17      1.0000 0.24830  0.27920  0.23630  Biso   1.000  H
  H18      1.0000 0.25170  0.77920  0.26370  Biso   1.000  H
  H19      1.0000 0.75170  0.72080  0.76370  Biso   1.000  H
  H20      1.0000 0.74830  0.22080  0.73630  Biso   1.000  H
  H21      1.0000 0.38540  0.29410  0.22750  Biso   1.000  H
  H22      1.0000 0.11460  0.79410  0.27250  Biso   1.000  H
  H23      1.0000 0.61460  0.70590  0.77250  Biso   1.000  H
  H24      1.0000 0.88540  0.20590  0.72750  Biso   1.000  H
  C9       1.0000 0.31860  0.03480  0.19300  Biso   1.000  C
  C10      1.0000 0.18140  0.53480  0.30700  Biso   1.000  C
  C11      1.0000 0.68140  0.96520  0.80700  Biso   1.000  C
  C12      1.0000 0.81860  0.46520  0.69300  Biso   1.000  C
  H25      1.0000 0.33530  0.01280  0.24580  Biso   1.000  H
  H26      1.0000 0.16470  0.51280  0.25420  Biso   1.000  H
  H27      1.0000 0.66470  0.98720  0.75420  Biso   1.000  H
  H28      1.0000 0.83530  0.48720  0.74580  Biso   1.000  H
  N1       1.0000 0.30690  0.14910  0.17190  Biso   1.000  N
  N2       1.0000 0.19310  0.64910  0.32810  Biso   1.000  N
  N3       1.0000 0.69310  0.85090  0.82810  Biso   1.000  N
  N4       1.0000 0.80690  0.35090  0.67190  Biso   1.000  N
  O1       1.0000 0.30710  0.96170  0.14270  Biso   1.000  O
  O2       1.0000 0.19290  0.46170  0.35730  Biso   1.000  O
  O3       1.0000 0.69290  0.03830  0.85730  Biso   1.000  O
  O4       1.0000 0.80710  0.53830  0.64270  Biso   1.000  O
  C13      1.0000 0.74560  0.59820  0.08550  Biso   1.000  C
  C14      1.0000 0.75440  0.09820  0.41450  Biso   1.000  C
  C15      1.0000 0.25440  0.40180  0.91450  Biso   1.000  C
  C16      1.0000 0.24560  0.90180  0.58550  Biso   1.000  C
  C17      1.0000 0.67860  0.98660  0.13710  Biso   1.000  C
  C18      1.0000 0.82140  0.48660  0.36290  Biso   1.000  C
  C19      1.0000 0.32140  0.01340  0.86290  Biso   1.000  C
  C20      1.0000 0.17860  0.51340  0.63710  Biso   1.000  C
  H29      1.0000 0.62160  0.96070  0.17040  Biso   1.000  H
  H30      1.0000 0.87840  0.46070  0.32960  Biso   1.000  H
  H31      1.0000 0.37840  0.03930  0.82960  Biso   1.000  H
  H32      1.0000 0.12160  0.53930  0.67040  Biso   1.000  H
  H33      1.0000 0.67220  0.93050  0.09360  Biso   1.000  H
  H34      1.0000 0.82780  0.43050  0.40640  Biso   1.000  H
  H35      1.0000 0.32780  0.06950  0.90640  Biso   1.000  H
  H36      1.0000 0.17220  0.56950  0.59360  Biso   1.000  H
  C21      1.0000 0.25420  0.52710  0.10340  Biso   1.000  C
  C22      1.0000 0.24580  0.02710  0.39660  Biso   1.000  C
  C23      1.0000 0.74580  0.47290  0.89660  Biso   1.000  C
  C24      1.0000 0.75420  0.97290  0.60340  Biso   1.000  C
  C25      1.0000 0.80620  0.97840  0.18410  Biso   1.000  C
  C26      1.0000 0.69380  0.47840  0.31590  Biso   1.000  C
  C27      1.0000 0.19380  0.02160  0.81590  Biso   1.000  C
  C28      1.0000 0.30620  0.52160  0.68410  Biso   1.000  C
  H37      1.0000 0.81560  0.04160  0.22330  Biso   1.000  H
  H38      1.0000 0.68440  0.54160  0.27670  Biso   1.000  H
  H39      1.0000 0.18440  0.95840  0.77670  Biso   1.000  H
  H40      1.0000 0.31560  0.45840  0.72330  Biso   1.000  H
  H41      1.0000 0.81350  0.90250  0.21190  Biso   1.000  H
  H42      1.0000 0.68650  0.40250  0.28810  Biso   1.000  H
  H43      1.0000 0.18650  0.09750  0.78810  Biso   1.000  H
  H44      1.0000 0.31350  0.59750  0.71190  Biso   1.000  H
  C29      1.0000 0.90910  0.98760  0.13990  Biso   1.000  C
  C30      1.0000 0.59090  0.48760  0.36010  Biso   1.000  C
  C31      1.0000 0.09090  0.01240  0.86010  Biso   1.000  C
  C32      1.0000 0.40910  0.51240  0.63990  Biso   1.000  C
  H45      1.0000 0.89530  0.93080  0.09670  Biso   1.000  H
  H46      1.0000 0.60470  0.43080  0.40330  Biso   1.000  H
  H47      1.0000 0.10470  0.06920  0.90330  Biso   1.000  H
  H48      1.0000 0.39530  0.56920  0.59670  Biso   1.000  H
  H49      1.0000 0.98340  0.96370  0.17450  Biso   1.000  H
  H50      1.0000 0.51660  0.46370  0.32550  Biso   1.000  H
  H51      1.0000 0.01660  0.03630  0.82550  Biso   1.000  H
  H52      1.0000 0.48340  0.53630  0.67450  Biso   1.000  H
  C33      1.0000 0.60240  0.32000  0.11920  Biso   1.000  C
  C34      1.0000 0.89760  0.82000  0.38080  Biso   1.000  C
  C35      1.0000 0.39760  0.68000  0.88080  Biso   1.000  C
  C36      1.0000 0.10240  0.18000  0.61920  Biso   1.000  C
  H53      1.0000 0.60500  0.38570  0.15270  Biso   1.000  H
  H54      1.0000 0.89500  0.88570  0.34730  Biso   1.000  H
  H55      1.0000 0.39500  0.61430  0.84730  Biso   1.000  H
  H56      1.0000 0.10500  0.11430  0.65270  Biso   1.000  H
  C37      1.0000 0.63960  0.21140  0.15050  Biso   1.000  C
  C38      1.0000 0.86040  0.71140  0.34950  Biso   1.000  C
  C39      1.0000 0.36040  0.78860  0.84950  Biso   1.000  C
  C40      1.0000 0.13960  0.28860  0.65050  Biso   1.000  C
  H57      1.0000 0.66600  0.20510  0.20450  Biso   1.000  H
  H58      1.0000 0.83400  0.70510  0.29550  Biso   1.000  H
  H59      1.0000 0.33400  0.79490  0.79550  Biso   1.000  H
  H60      1.0000 0.16600  0.29490  0.70450  Biso   1.000  H
  C41      1.0000 0.63910  0.11030  0.10400  Biso   1.000  C
  C42      1.0000 0.86090  0.61030  0.39600  Biso   1.000  C
  C43      1.0000 0.36090  0.88970  0.89600  Biso   1.000  C
  C44      1.0000 0.13910  0.38970  0.60400  Biso   1.000  C
  C45      1.0000 0.59870  0.12770  0.02430  Biso   1.000  C
  C46      1.0000 0.90130  0.62770  0.47570  Biso   1.000  C
  C47      1.0000 0.40130  0.87230  0.97570  Biso   1.000  C
  C48      1.0000 0.09870  0.37230  0.52430  Biso   1.000  C
  H61      1.0000 0.59740  0.06390  0.98940  Biso   1.000  H
  H62      1.0000 0.90260  0.56390  0.51060  Biso   1.000  H
  H63      1.0000 0.40260  0.93610  0.01060  Biso   1.000  H
  H64      1.0000 0.09740  0.43610  0.48940  Biso   1.000  H
  C49      1.0000 0.56060  0.23990  0.99690  Biso   1.000  C
  C50      1.0000 0.93940  0.73990  0.50310  Biso   1.000  C
  C51      1.0000 0.43940  0.76010  0.00310  Biso   1.000  C
  C52      1.0000 0.06060  0.26010  0.49690  Biso   1.000  C
  H65      1.0000 0.53170  0.24870  0.94340  Biso   1.000  H
  H66      1.0000 0.96830  0.74870  0.55660  Biso   1.000  H
  H67      1.0000 0.46830  0.75130  0.05660  Biso   1.000  H
  H68      1.0000 0.03170  0.25130  0.44340  Biso   1.000  H
  C53      1.0000 0.98620  0.31840  0.12270  Biso   1.000  C
  C54      1.0000 0.51380  0.81840  0.37730  Biso   1.000  C
  C55      1.0000 0.01380  0.68160  0.87730  Biso   1.000  C
  C56      1.0000 0.48620  0.18160  0.62270  Biso   1.000  C
  H69      1.0000 0.01360  0.38170  0.15620  Biso   1.000  H
  H70      1.0000 0.48640  0.88170  0.34380  Biso   1.000  H
  H71      1.0000 0.98640  0.61830  0.84380  Biso   1.000  H
  H72      1.0000 0.51360  0.11830  0.65620  Biso   1.000  H
  C57      1.0000 0.96870  0.20820  0.15460  Biso   1.000  C
  C58      1.0000 0.53130  0.70820  0.34540  Biso   1.000  C
  C59      1.0000 0.03130  0.79180  0.84540  Biso   1.000  C
  C60      1.0000 0.46870  0.29180  0.65460  Biso   1.000  C
  H73      1.0000 0.98380  0.19880  0.20890  Biso   1.000  H
  H74      1.0000 0.51620  0.69880  0.29110  Biso   1.000  H
  H75      1.0000 0.01620  0.80120  0.79110  Biso   1.000  H
  H76      1.0000 0.48380  0.30120  0.70890  Biso   1.000  H
  C61      1.0000 0.92890  0.11050  0.10710  Biso   1.000  C
  C62      1.0000 0.57110  0.61050  0.39290  Biso   1.000  C
  C63      1.0000 0.07110  0.88950  0.89290  Biso   1.000  C
  C64      1.0000 0.42890  0.38950  0.60710  Biso   1.000  C
  C65      1.0000 0.90760  0.13150  0.02710  Biso   1.000  C
  C66      1.0000 0.59240  0.63150  0.47290  Biso   1.000  C
  C67      1.0000 0.09240  0.86850  0.97290  Biso   1.000  C
  C68      1.0000 0.40760  0.36850  0.52710  Biso   1.000  C
  H77      1.0000 0.88120  0.06970  0.99210  Biso   1.000  H
  H78      1.0000 0.61880  0.56970  0.50790  Biso   1.000  H
  H79      1.0000 0.11880  0.93030  0.00790  Biso   1.000  H
  H80      1.0000 0.38120  0.43030  0.49210  Biso   1.000  H
  C69      1.0000 0.92590  0.24500  0.99960  Biso   1.000  C
  C70      1.0000 0.57410  0.74500  0.50040  Biso   1.000  C
  C71      1.0000 0.07410  0.75500  0.00040  Biso   1.000  C
  C72      1.0000 0.42590  0.25500  0.49960  Biso   1.000  C
  H81      1.0000 0.90970  0.25750  0.94550  Biso   1.000  H
  H82      1.0000 0.59030  0.75750  0.55450  Biso   1.000  H
  H83      1.0000 0.09030  0.74250  0.05450  Biso   1.000  H
  H84      1.0000 0.40970  0.24250  0.44550  Biso   1.000  H
  Cu1      1.0000 0.50000  0.50000  0.00000  Biso   1.000  Cu
  Cu2      1.0000 0.00000  0.00000  0.50000  Biso   1.000  Cu
  Cu3      1.0000 0.00000  0.50000  0.00000  Biso   1.000  Cu
  Cu4      1.0000 0.50000  0.00000  0.50000  Biso   1.000  Cu
  N5       1.0000 0.64750  0.57440  0.05670  Biso   1.000  N
  N6       1.0000 0.85250  0.07440  0.44330  Biso   1.000  N
  N7       1.0000 0.35250  0.42560  0.94330  Biso   1.000  N
  N8       1.0000 0.14750  0.92560  0.55670  Biso   1.000  N
  N9       1.0000 0.15410  0.51010  0.07260  Biso   1.000  N
  N10      1.0000 0.34590  0.01010  0.42740  Biso   1.000  N
  N11      1.0000 0.84590  0.48990  0.92740  Biso   1.000  N
  N12      1.0000 0.65410  0.98990  0.57260  Biso   1.000  N
  N13      1.0000 0.56240  0.33640  0.04250  Biso   1.000  N
  N14      1.0000 0.93760  0.83640  0.45750  Biso   1.000  N
  N15      1.0000 0.43760  0.66360  0.95750  Biso   1.000  N
  N16      1.0000 0.06240  0.16360  0.54250  Biso   1.000  N
  N17      1.0000 0.96530  0.33780  0.04530  Biso   1.000  N
  N18      1.0000 0.53470  0.83780  0.45470  Biso   1.000  N
  N19      1.0000 0.03470  0.66220  0.95470  Biso   1.000  N
  N20      1.0000 0.46530  0.16220  0.54530  Biso   1.000  N
  S1       1.0000 0.88289  0.63090  0.12823  Biso   1.000  S
  S2       1.0000 0.61711  0.13090  0.37177  Biso   1.000  S
  S3       1.0000 0.11711  0.36910  0.87177  Biso   1.000  S
  S4       1.0000 0.38289  0.86910  0.62823  Biso   1.000  S
  S5       1.0000 0.39300  0.54720  0.14744  Biso   1.000  S
  S6       1.0000 0.10700  0.04720  0.35256  Biso   1.000  S
  S7       1.0000 0.60700  0.45280  0.85256  Biso   1.000  S
  S8       1.0000 0.89300  0.95280  0.64744  Biso   1.000  S
