data_image0
_cell_length_a       18.161
_cell_length_b       11.7536
_cell_length_c       18.51
_cell_angle_alpha    90
_cell_angle_beta     104.804
_cell_angle_gamma    90

_symmetry_space_group_name_H-M    "P 1"
_symmetry_int_tables_number       1

loop_
  _symmetry_equiv_pos_as_xyz
  'x, y, z'

loop_
  _atom_site_label
  _atom_site_occupancy
  _atom_site_fract_x
  _atom_site_fract_y
  _atom_site_fract_z
  _atom_site_thermal_displace_type
  _atom_site_B_iso_or_equiv
  _atom_site_type_symbol
  Cu1      1.0000 0.98853  0.00000  0.19835  Biso   1.000  Cu
  Cu2      1.0000 0.01147  0.00000  0.80165  Biso   1.000  Cu
  Cu3      1.0000 0.48853  0.50000  0.69835  Biso   1.000  Cu
  Cu4      1.0000 0.51147  0.50000  0.30165  Biso   1.000  Cu
  S1       1.0000 0.16770  0.00000  0.19033  Biso   1.000  S
  S2       1.0000 0.83230  0.00000  0.80967  Biso   1.000  S
  S3       1.0000 0.66770  0.50000  0.69033  Biso   1.000  S
  S4       1.0000 0.33230  0.50000  0.30967  Biso   1.000  S
  N1       1.0000 0.03442  0.11114  0.28045  Biso   1.000  N
  N2       1.0000 0.96558  0.11114  0.71955  Biso   1.000  N
  N3       1.0000 0.53442  0.61114  0.78045  Biso   1.000  N
  N4       1.0000 0.46558  0.61114  0.21955  Biso   1.000  N
  N5       1.0000 0.96558  0.88886  0.71955  Biso   1.000  N
  N6       1.0000 0.03442  0.88886  0.28045  Biso   1.000  N
  N7       1.0000 0.46558  0.38886  0.21955  Biso   1.000  N
  N8       1.0000 0.53442  0.38886  0.78045  Biso   1.000  N
  N9       1.0000 0.92651  0.12008  0.13153  Biso   1.000  N
  N10      1.0000 0.07349  0.12008  0.86847  Biso   1.000  N
  N11      1.0000 0.42651  0.62008  0.63153  Biso   1.000  N
  N12      1.0000 0.57349  0.62008  0.36847  Biso   1.000  N
  N13      1.0000 0.07349  0.87992  0.86847  Biso   1.000  N
  N14      1.0000 0.92651  0.87992  0.13153  Biso   1.000  N
  N15      1.0000 0.57349  0.37992  0.36847  Biso   1.000  N
  N16      1.0000 0.42651  0.37992  0.63153  Biso   1.000  N
  O1       1.0000 0.08632  0.00000  0.14189  Biso   1.000  O
  O2       1.0000 0.91368  0.00000  0.85811  Biso   1.000  O
  O3       1.0000 0.58632  0.50000  0.64189  Biso   1.000  O
  O4       1.0000 0.41368  0.50000  0.35811  Biso   1.000  O
  C1       1.0000 0.03752  0.22550  0.27540  Biso   1.000  C
  C2       1.0000 0.96248  0.22550  0.72460  Biso   1.000  C
  C3       1.0000 0.53752  0.72550  0.77540  Biso   1.000  C
  C4       1.0000 0.46248  0.72550  0.22460  Biso   1.000  C
  C5       1.0000 0.96248  0.77450  0.72460  Biso   1.000  C
  C6       1.0000 0.03752  0.77450  0.27540  Biso   1.000  C
  C7       1.0000 0.46248  0.27450  0.22460  Biso   1.000  C
  C8       1.0000 0.53752  0.27450  0.77540  Biso   1.000  C
  H1       1.0000 0.02310  0.25910  0.22840  Biso   1.000  H
  H2       1.0000 0.97690  0.25910  0.77160  Biso   1.000  H
  H3       1.0000 0.52310  0.75910  0.72840  Biso   1.000  H
  H4       1.0000 0.47690  0.75910  0.27160  Biso   1.000  H
  H5       1.0000 0.97690  0.74090  0.77160  Biso   1.000  H
  H6       1.0000 0.02310  0.74090  0.22840  Biso   1.000  H
  H7       1.0000 0.47690  0.24090  0.27160  Biso   1.000  H
  H8       1.0000 0.52310  0.24090  0.72840  Biso   1.000  H
  C9       1.0000 0.06122  0.29440  0.33737  Biso   1.000  C
  C10      1.0000 0.93878  0.29440  0.66263  Biso   1.000  C
  C11      1.0000 0.56122  0.79440  0.83737  Biso   1.000  C
  C12      1.0000 0.43878  0.79440  0.16263  Biso   1.000  C
  C13      1.0000 0.93878  0.70560  0.66263  Biso   1.000  C
  C14      1.0000 0.06122  0.70560  0.33737  Biso   1.000  C
  C15      1.0000 0.43878  0.20560  0.16263  Biso   1.000  C
  C16      1.0000 0.56122  0.20560  0.83737  Biso   1.000  C
  H9       1.0000 0.06310  0.37290  0.33160  Biso   1.000  H
  H10      1.0000 0.93690  0.37290  0.66840  Biso   1.000  H
  H11      1.0000 0.56310  0.87290  0.83160  Biso   1.000  H
  H12      1.0000 0.43690  0.87290  0.16840  Biso   1.000  H
  H13      1.0000 0.93690  0.62710  0.66840  Biso   1.000  H
  H14      1.0000 0.06310  0.62710  0.33160  Biso   1.000  H
  H15      1.0000 0.43690  0.12710  0.16840  Biso   1.000  H
  H16      1.0000 0.56310  0.12710  0.83160  Biso   1.000  H
  C17      1.0000 0.08208  0.24730  0.40788  Biso   1.000  C
  C18      1.0000 0.91792  0.24730  0.59212  Biso   1.000  C
  C19      1.0000 0.58208  0.74730  0.90788  Biso   1.000  C
  C20      1.0000 0.41792  0.74730  0.09212  Biso   1.000  C
  C21      1.0000 0.91792  0.75270  0.59212  Biso   1.000  C
  C22      1.0000 0.08208  0.75270  0.40788  Biso   1.000  C
  C23      1.0000 0.41792  0.25270  0.09212  Biso   1.000  C
  C24      1.0000 0.58208  0.25270  0.90788  Biso   1.000  C
  C25      1.0000 0.08035  0.12880  0.41298  Biso   1.000  C
  C26      1.0000 0.91965  0.12880  0.58702  Biso   1.000  C
  C27      1.0000 0.58035  0.62880  0.91298  Biso   1.000  C
  C28      1.0000 0.41965  0.62880  0.08702  Biso   1.000  C
  C29      1.0000 0.91965  0.87120  0.58702  Biso   1.000  C
  C30      1.0000 0.08035  0.87120  0.41298  Biso   1.000  C
  C31      1.0000 0.41965  0.37120  0.08702  Biso   1.000  C
  C32      1.0000 0.58035  0.37120  0.91298  Biso   1.000  C
  H17      1.0000 0.09470  0.09380  0.45950  Biso   1.000  H
  H18      1.0000 0.90530  0.09380  0.54050  Biso   1.000  H
  H19      1.0000 0.59470  0.59380  0.95950  Biso   1.000  H
  H20      1.0000 0.40530  0.59380  0.04050  Biso   1.000  H
  H21      1.0000 0.90530  0.90620  0.54050  Biso   1.000  H
  H22      1.0000 0.09470  0.90620  0.45950  Biso   1.000  H
  H23      1.0000 0.40530  0.40620  0.04050  Biso   1.000  H
  H24      1.0000 0.59470  0.40620  0.95950  Biso   1.000  H
  C33      1.0000 0.05739  0.06320  0.34909  Biso   1.000  C
  C34      1.0000 0.94261  0.06320  0.65091  Biso   1.000  C
  C35      1.0000 0.55739  0.56320  0.84909  Biso   1.000  C
  C36      1.0000 0.44261  0.56320  0.15091  Biso   1.000  C
  C37      1.0000 0.94261  0.93680  0.65091  Biso   1.000  C
  C38      1.0000 0.05739  0.93680  0.34909  Biso   1.000  C
  C39      1.0000 0.44261  0.43680  0.15091  Biso   1.000  C
  C40      1.0000 0.55739  0.43680  0.84909  Biso   1.000  C
  C41      1.0000 0.10510  0.32030  0.47720  Biso   1.000  C
  C42      1.0000 0.89490  0.32030  0.52280  Biso   1.000  C
  C43      1.0000 0.60510  0.82030  0.97720  Biso   1.000  C
  C44      1.0000 0.39490  0.82030  0.02280  Biso   1.000  C
  C45      1.0000 0.89490  0.67970  0.52280  Biso   1.000  C
  C46      1.0000 0.10510  0.67970  0.47720  Biso   1.000  C
  C47      1.0000 0.39490  0.17970  0.02280  Biso   1.000  C
  C48      1.0000 0.60510  0.17970  0.97720  Biso   1.000  C
  H25      1.0000 0.10420  0.27540  0.52030  Biso   1.000  H
  H26      1.0000 0.89580  0.27540  0.47970  Biso   1.000  H
  H27      1.0000 0.60420  0.77540  0.02030  Biso   1.000  H
  H28      1.0000 0.39580  0.77540  0.97970  Biso   1.000  H
  H29      1.0000 0.89580  0.72460  0.47970  Biso   1.000  H
  H30      1.0000 0.10420  0.72460  0.52030  Biso   1.000  H
  H31      1.0000 0.39580  0.22460  0.97970  Biso   1.000  H
  H32      1.0000 0.60420  0.22460  0.02030  Biso   1.000  H
  H33      1.0000 0.07010  0.38270  0.47320  Biso   1.000  H
  H34      1.0000 0.92990  0.38270  0.52680  Biso   1.000  H
  H35      1.0000 0.57010  0.88270  0.97320  Biso   1.000  H
  H36      1.0000 0.42990  0.88270  0.02680  Biso   1.000  H
  H37      1.0000 0.92990  0.61730  0.52680  Biso   1.000  H
  H38      1.0000 0.07010  0.61730  0.47320  Biso   1.000  H
  H39      1.0000 0.42990  0.11730  0.02680  Biso   1.000  H
  H40      1.0000 0.57010  0.11730  0.97320  Biso   1.000  H
  H41      1.0000 0.15560  0.34930  0.48220  Biso   1.000  H
  H42      1.0000 0.84440  0.34930  0.51780  Biso   1.000  H
  H43      1.0000 0.65560  0.84930  0.98220  Biso   1.000  H
  H44      1.0000 0.34440  0.84930  0.01780  Biso   1.000  H
  H45      1.0000 0.84440  0.65070  0.51780  Biso   1.000  H
  H46      1.0000 0.15560  0.65070  0.48220  Biso   1.000  H
  H47      1.0000 0.34440  0.15070  0.01780  Biso   1.000  H
  H48      1.0000 0.65560  0.15070  0.98220  Biso   1.000  H
  C49      1.0000 0.86084  0.15670  0.14270  Biso   1.000  C
  C50      1.0000 0.13916  0.15670  0.85730  Biso   1.000  C
  C51      1.0000 0.36084  0.65670  0.64270  Biso   1.000  C
  C52      1.0000 0.63916  0.65670  0.35730  Biso   1.000  C
  C53      1.0000 0.13916  0.84330  0.85730  Biso   1.000  C
  C54      1.0000 0.86084  0.84330  0.14270  Biso   1.000  C
  C55      1.0000 0.63916  0.34330  0.35730  Biso   1.000  C
  C56      1.0000 0.36084  0.34330  0.64270  Biso   1.000  C
  H49      1.0000 0.84360  0.12430  0.18120  Biso   1.000  H
  H50      1.0000 0.15640  0.12430  0.81880  Biso   1.000  H
  H51      1.0000 0.34360  0.62430  0.68120  Biso   1.000  H
  H52      1.0000 0.65640  0.62430  0.31880  Biso   1.000  H
  H53      1.0000 0.15640  0.87570  0.81880  Biso   1.000  H
  H54      1.0000 0.84360  0.87570  0.18120  Biso   1.000  H
  H55      1.0000 0.65640  0.37570  0.31880  Biso   1.000  H
  H56      1.0000 0.34360  0.37570  0.68120  Biso   1.000  H
  C57      1.0000 0.81733  0.24040  0.09997  Biso   1.000  C
  C58      1.0000 0.18267  0.24040  0.90003  Biso   1.000  C
  C59      1.0000 0.31733  0.74040  0.59997  Biso   1.000  C
  C60      1.0000 0.68267  0.74040  0.40003  Biso   1.000  C
  C61      1.0000 0.18267  0.75960  0.90003  Biso   1.000  C
  C62      1.0000 0.81733  0.75960  0.09997  Biso   1.000  C
  C63      1.0000 0.68267  0.25960  0.40003  Biso   1.000  C
  C64      1.0000 0.31733  0.25960  0.59997  Biso   1.000  C
  H57      1.0000 0.77210  0.26350  0.11030  Biso   1.000  H
  H58      1.0000 0.22790  0.26350  0.88970  Biso   1.000  H
  H59      1.0000 0.27210  0.76350  0.61030  Biso   1.000  H
  H60      1.0000 0.72790  0.76350  0.38970  Biso   1.000  H
  H61      1.0000 0.22790  0.73650  0.88970  Biso   1.000  H
  H62      1.0000 0.77210  0.73650  0.11030  Biso   1.000  H
  H63      1.0000 0.72790  0.23650  0.38970  Biso   1.000  H
  H64      1.0000 0.27210  0.23650  0.61030  Biso   1.000  H
  C65      1.0000 0.84082  0.29040  0.04145  Biso   1.000  C
  C66      1.0000 0.15918  0.29040  0.95855  Biso   1.000  C
  C67      1.0000 0.34082  0.79040  0.54145  Biso   1.000  C
  C68      1.0000 0.65918  0.79040  0.45855  Biso   1.000  C
  C69      1.0000 0.15918  0.70960  0.95855  Biso   1.000  C
  C70      1.0000 0.84082  0.70960  0.04145  Biso   1.000  C
  C71      1.0000 0.65918  0.20960  0.45855  Biso   1.000  C
  C72      1.0000 0.34082  0.20960  0.54145  Biso   1.000  C
  C73      1.0000 0.90829  0.24990  0.02934  Biso   1.000  C
  C74      1.0000 0.09171  0.24990  0.97066  Biso   1.000  C
  C75      1.0000 0.40829  0.74990  0.52934  Biso   1.000  C
  C76      1.0000 0.59171  0.74990  0.47066  Biso   1.000  C
  C77      1.0000 0.09171  0.75010  0.97066  Biso   1.000  C
  C78      1.0000 0.90829  0.75010  0.02934  Biso   1.000  C
  C79      1.0000 0.59171  0.25010  0.47066  Biso   1.000  C
  C80      1.0000 0.40829  0.25010  0.52934  Biso   1.000  C
  H65      1.0000 0.92620  0.27970  0.99050  Biso   1.000  H
  H66      1.0000 0.07380  0.27970  0.00950  Biso   1.000  H
  H67      1.0000 0.42620  0.77970  0.49050  Biso   1.000  H
  H68      1.0000 0.57380  0.77970  0.50950  Biso   1.000  H
  H69      1.0000 0.07380  0.72030  0.00950  Biso   1.000  H
  H70      1.0000 0.92620  0.72030  0.99050  Biso   1.000  H
  H71      1.0000 0.57380  0.22030  0.50950  Biso   1.000  H
  H72      1.0000 0.42620  0.22030  0.49050  Biso   1.000  H
  C81      1.0000 0.94905  0.16610  0.07426  Biso   1.000  C
  C82      1.0000 0.05095  0.16610  0.92574  Biso   1.000  C
  C83      1.0000 0.44905  0.66610  0.57426  Biso   1.000  C
  C84      1.0000 0.55095  0.66610  0.42574  Biso   1.000  C
  C85      1.0000 0.05095  0.83390  0.92574  Biso   1.000  C
  C86      1.0000 0.94905  0.83390  0.07426  Biso   1.000  C
  C87      1.0000 0.55095  0.33390  0.42574  Biso   1.000  C
  C88      1.0000 0.44905  0.33390  0.57426  Biso   1.000  C
  H73      1.0000 0.99400  0.14030  0.06460  Biso   1.000  H
  H74      1.0000 0.00600  0.14030  0.93540  Biso   1.000  H
  H75      1.0000 0.49400  0.64030  0.56460  Biso   1.000  H
  H76      1.0000 0.50600  0.64030  0.43540  Biso   1.000  H
  H77      1.0000 0.00600  0.85970  0.93540  Biso   1.000  H
  H78      1.0000 0.99400  0.85970  0.06460  Biso   1.000  H
  H79      1.0000 0.50600  0.35970  0.43540  Biso   1.000  H
  H80      1.0000 0.49400  0.35970  0.56460  Biso   1.000  H
  C89      1.0000 0.80000  0.39080  0.99886  Biso   1.000  C
  C90      1.0000 0.20000  0.39080  0.00114  Biso   1.000  C
  C91      1.0000 0.30000  0.89080  0.49886  Biso   1.000  C
  C92      1.0000 0.70000  0.89080  0.50114  Biso   1.000  C
  C93      1.0000 0.20000  0.60920  0.00114  Biso   1.000  C
  C94      1.0000 0.80000  0.60920  0.99886  Biso   1.000  C
  C95      1.0000 0.70000  0.10920  0.50114  Biso   1.000  C
  C96      1.0000 0.30000  0.10920  0.49886  Biso   1.000  C
  H81      1.0000 0.74690  0.38990  0.99990  Biso   1.000  H
  H82      1.0000 0.25310  0.38990  0.00010  Biso   1.000  H
  H83      1.0000 0.24690  0.88990  0.49990  Biso   1.000  H
  H84      1.0000 0.75310  0.88990  0.50010  Biso   1.000  H
  H85      1.0000 0.25310  0.61010  0.00010  Biso   1.000  H
  H86      1.0000 0.74690  0.61010  0.99990  Biso   1.000  H
  H87      1.0000 0.75310  0.11010  0.50010  Biso   1.000  H
  H88      1.0000 0.24690  0.11010  0.49990  Biso   1.000  H
  H89      1.0000 0.80240  0.38700  0.94720  Biso   1.000  H
  H90      1.0000 0.19760  0.38700  0.05280  Biso   1.000  H
  H91      1.0000 0.30240  0.88700  0.44720  Biso   1.000  H
  H92      1.0000 0.69760  0.88700  0.55280  Biso   1.000  H
  H93      1.0000 0.19760  0.61300  0.05280  Biso   1.000  H
  H94      1.0000 0.80240  0.61300  0.94720  Biso   1.000  H
  H95      1.0000 0.69760  0.11300  0.55280  Biso   1.000  H
  H96      1.0000 0.30240  0.11300  0.44720  Biso   1.000  H
  C97      1.0000 0.21220  0.11490  0.16180  Biso   1.000  C
  C98      1.0000 0.78780  0.11490  0.83820  Biso   1.000  C
  C99      1.0000 0.71220  0.61490  0.66180  Biso   1.000  C
  C100     1.0000 0.28780  0.61490  0.33820  Biso   1.000  C
  C101     1.0000 0.78780  0.88510  0.83820  Biso   1.000  C
  C102     1.0000 0.21220  0.88510  0.16180  Biso   1.000  C
  C103     1.0000 0.28780  0.38510  0.33820  Biso   1.000  C
  C104     1.0000 0.71220  0.38510  0.66180  Biso   1.000  C
  H97      1.0000 0.26410  0.11860  0.19090  Biso   1.000  H
  H98      1.0000 0.73590  0.11860  0.80910  Biso   1.000  H
  H99      1.0000 0.76410  0.61860  0.69090  Biso   1.000  H
  H100     1.0000 0.23590  0.61860  0.30910  Biso   1.000  H
  H101     1.0000 0.73590  0.88140  0.80910  Biso   1.000  H
  H102     1.0000 0.26410  0.88140  0.19090  Biso   1.000  H
  H103     1.0000 0.23590  0.38140  0.30910  Biso   1.000  H
  H104     1.0000 0.76410  0.38140  0.69090  Biso   1.000  H
  H105     1.0000 0.18620  0.18360  0.16860  Biso   1.000  H
  H106     1.0000 0.81380  0.18360  0.83140  Biso   1.000  H
  H107     1.0000 0.68620  0.68360  0.66860  Biso   1.000  H
  H108     1.0000 0.31380  0.68360  0.33140  Biso   1.000  H
  H109     1.0000 0.81380  0.81640  0.83140  Biso   1.000  H
  H110     1.0000 0.18620  0.81640  0.16860  Biso   1.000  H
  H111     1.0000 0.31380  0.31640  0.33140  Biso   1.000  H
  H112     1.0000 0.68620  0.31640  0.66860  Biso   1.000  H
  H113     1.0000 0.21100  0.10640  0.10990  Biso   1.000  H
  H114     1.0000 0.78900  0.10640  0.89010  Biso   1.000  H
  H115     1.0000 0.71100  0.60640  0.60990  Biso   1.000  H
  H116     1.0000 0.28900  0.60640  0.39010  Biso   1.000  H
  H117     1.0000 0.78900  0.89360  0.89010  Biso   1.000  H
  H118     1.0000 0.21100  0.89360  0.10990  Biso   1.000  H
  H119     1.0000 0.28900  0.39360  0.39010  Biso   1.000  H
  H120     1.0000 0.71100  0.39360  0.60990  Biso   1.000  H
  C105     1.0000 0.83820  0.50000  0.03510  Biso   1.000  C
  C106     1.0000 0.16180  0.50000  0.96490  Biso   1.000  C
  C107     1.0000 0.33820  0.00000  0.53510  Biso   1.000  C
  C108     1.0000 0.66180  0.00000  0.46490  Biso   1.000  C
  H121     1.0000 0.89090  0.50000  0.03260  Biso   1.000  H
  H122     1.0000 0.10910  0.50000  0.96740  Biso   1.000  H
  H123     1.0000 0.39090  0.00000  0.53260  Biso   1.000  H
  H124     1.0000 0.60910  0.00000  0.46740  Biso   1.000  H
  H125     1.0000 0.83800  0.50000  0.08750  Biso   1.000  H
  H126     1.0000 0.16200  0.50000  0.91250  Biso   1.000  H
  H127     1.0000 0.33800  0.00000  0.58750  Biso   1.000  H
  H128     1.0000 0.66200  0.00000  0.41250  Biso   1.000  H
  Cl1      1.0000 0.85487  0.00000  0.35798  Biso   1.000  Cl
  Cl2      1.0000 0.14513  0.00000  0.64202  Biso   1.000  Cl
  Cl3      1.0000 0.35487  0.50000  0.85798  Biso   1.000  Cl
  Cl4      1.0000 0.64513  0.50000  0.14202  Biso   1.000  Cl
  O5       1.0000 0.91900  0.00000  0.41830  Biso   1.000  O
  O6       1.0000 0.08100  0.00000  0.58170  Biso   1.000  O
  O7       1.0000 0.41900  0.50000  0.91830  Biso   1.000  O
  O8       1.0000 0.58100  0.50000  0.08170  Biso   1.000  O
  O9       1.0000 0.81850  0.10220  0.35720  Biso   1.000  O
  O10      1.0000 0.18150  0.10220  0.64280  Biso   1.000  O
  O11      1.0000 0.31850  0.60220  0.85720  Biso   1.000  O
  O12      1.0000 0.68150  0.60220  0.14280  Biso   1.000  O
  O13      1.0000 0.18150  0.89780  0.64280  Biso   1.000  O
  O14      1.0000 0.81850  0.89780  0.35720  Biso   1.000  O
  O15      1.0000 0.68150  0.39780  0.14280  Biso   1.000  O
  O16      1.0000 0.31850  0.39780  0.85720  Biso   1.000  O
  O17      1.0000 0.87470  0.00000  0.29220  Biso   1.000  O
  O18      1.0000 0.12530  0.00000  0.70780  Biso   1.000  O
  O19      1.0000 0.37470  0.50000  0.79220  Biso   1.000  O
  O20      1.0000 0.62530  0.50000  0.20780  Biso   1.000  O
  O21      1.0000 0.78360  0.00000  0.36710  Biso   1.000  O
  O22      1.0000 0.21640  0.00000  0.63290  Biso   1.000  O
  O23      1.0000 0.28360  0.50000  0.86710  Biso   1.000  O
  O24      1.0000 0.71640  0.50000  0.13290  Biso   1.000  O
  O25      1.0000 0.89570  0.08280  0.40320  Biso   1.000  O
  O26      1.0000 0.10430  0.08280  0.59680  Biso   1.000  O
  O27      1.0000 0.39570  0.58280  0.90320  Biso   1.000  O
  O28      1.0000 0.60430  0.58280  0.09680  Biso   1.000  O
  O29      1.0000 0.10430  0.91720  0.59680  Biso   1.000  O
  O30      1.0000 0.89570  0.91720  0.40320  Biso   1.000  O
  O31      1.0000 0.60430  0.41720  0.09680  Biso   1.000  O
  O32      1.0000 0.39570  0.41720  0.90320  Biso   1.000  O
  Cl5      1.0000 0.07931  0.50000  0.16425  Biso   1.000  Cl
  Cl6      1.0000 0.92069  0.50000  0.83575  Biso   1.000  Cl
  Cl7      1.0000 0.57931  0.00000  0.66425  Biso   1.000  Cl
  Cl8      1.0000 0.42069  0.00000  0.33575  Biso   1.000  Cl
  O33      1.0000 0.04850  0.50000  0.08550  Biso   1.000  O
  O34      1.0000 0.95150  0.50000  0.91450  Biso   1.000  O
  O35      1.0000 0.54850  0.00000  0.58550  Biso   1.000  O
  O36      1.0000 0.45150  0.00000  0.41450  Biso   1.000  O
  O37      1.0000 0.12780  0.41100  0.17680  Biso   1.000  O
  O38      1.0000 0.87220  0.41100  0.82320  Biso   1.000  O
  O39      1.0000 0.62780  0.91100  0.67680  Biso   1.000  O
  O40      1.0000 0.37220  0.91100  0.32320  Biso   1.000  O
  O41      1.0000 0.87220  0.58900  0.82320  Biso   1.000  O
  O42      1.0000 0.12780  0.58900  0.17680  Biso   1.000  O
  O43      1.0000 0.37220  0.08900  0.32320  Biso   1.000  O
  O44      1.0000 0.62780  0.08900  0.67680  Biso   1.000  O
  O45      1.0000 0.01550  0.50000  0.19720  Biso   1.000  O
  O46      1.0000 0.98450  0.50000  0.80280  Biso   1.000  O
  O47      1.0000 0.51550  0.00000  0.69720  Biso   1.000  O
  O48      1.0000 0.48450  0.00000  0.30280  Biso   1.000  O
  O49      1.0000 0.07560  0.39890  0.12730  Biso   1.000  O
  O50      1.0000 0.92440  0.39890  0.87270  Biso   1.000  O
  O51      1.0000 0.57560  0.89890  0.62730  Biso   1.000  O
  O52      1.0000 0.42440  0.89890  0.37270  Biso   1.000  O
  O53      1.0000 0.92440  0.60110  0.87270  Biso   1.000  O
  O54      1.0000 0.07560  0.60110  0.12730  Biso   1.000  O
  O55      1.0000 0.42440  0.10110  0.37270  Biso   1.000  O
  O56      1.0000 0.57560  0.10110  0.62730  Biso   1.000  O
  O57      1.0000 0.13280  0.50000  0.23460  Biso   1.000  O
  O58      1.0000 0.86720  0.50000  0.76540  Biso   1.000  O
  O59      1.0000 0.63280  0.00000  0.73460  Biso   1.000  O
  O60      1.0000 0.36720  0.00000  0.26540  Biso   1.000  O
  S5       1.0000 0.13017  0.50000  0.64972  Biso   1.000  S
  S6       1.0000 0.86983  0.50000  0.35028  Biso   1.000  S
  S7       1.0000 0.63017  0.00000  0.14972  Biso   1.000  S
  S8       1.0000 0.36983  0.00000  0.85028  Biso   1.000  S
  O61      1.0000 0.04930  0.50000  0.60710  Biso   1.000  O
  O62      1.0000 0.95070  0.50000  0.39290  Biso   1.000  O
  O63      1.0000 0.54930  0.00000  0.10710  Biso   1.000  O
  O64      1.0000 0.45070  0.00000  0.89290  Biso   1.000  O
  C109     1.0000 0.14500  0.61510  0.71410  Biso   1.000  C
  C110     1.0000 0.85500  0.61510  0.28590  Biso   1.000  C
  C111     1.0000 0.64500  0.11510  0.21410  Biso   1.000  C
  C112     1.0000 0.35500  0.11510  0.78590  Biso   1.000  C
  C113     1.0000 0.85500  0.38490  0.28590  Biso   1.000  C
  C114     1.0000 0.14500  0.38490  0.71410  Biso   1.000  C
  C115     1.0000 0.35500  0.88490  0.78590  Biso   1.000  C
  C116     1.0000 0.64500  0.88490  0.21410  Biso   1.000  C
  H129     1.0000 0.10330  0.61910  0.73710  Biso   1.000  H
  H130     1.0000 0.89670  0.61910  0.26290  Biso   1.000  H
  H131     1.0000 0.60330  0.11910  0.23710  Biso   1.000  H
  H132     1.0000 0.39670  0.11910  0.76290  Biso   1.000  H
  H133     1.0000 0.89670  0.38090  0.26290  Biso   1.000  H
  H134     1.0000 0.10330  0.38090  0.73710  Biso   1.000  H
  H135     1.0000 0.39670  0.88090  0.76290  Biso   1.000  H
  H136     1.0000 0.60330  0.88090  0.23710  Biso   1.000  H
  H137     1.0000 0.14810  0.68490  0.68820  Biso   1.000  H
  H138     1.0000 0.85190  0.68490  0.31180  Biso   1.000  H
  H139     1.0000 0.64810  0.18490  0.18820  Biso   1.000  H
  H140     1.0000 0.35190  0.18490  0.81180  Biso   1.000  H
  H141     1.0000 0.85190  0.31510  0.31180  Biso   1.000  H
  H142     1.0000 0.14810  0.31510  0.68820  Biso   1.000  H
  H143     1.0000 0.35190  0.81510  0.81180  Biso   1.000  H
  H144     1.0000 0.64810  0.81510  0.18820  Biso   1.000  H
  H145     1.0000 0.19160  0.60340  0.75190  Biso   1.000  H
  H146     1.0000 0.80840  0.60340  0.24810  Biso   1.000  H
  H147     1.0000 0.69160  0.10340  0.25190  Biso   1.000  H
  H148     1.0000 0.30840  0.10340  0.74810  Biso   1.000  H
  H149     1.0000 0.80840  0.39660  0.24810  Biso   1.000  H
  H150     1.0000 0.19160  0.39660  0.75190  Biso   1.000  H
  H151     1.0000 0.30840  0.89660  0.74810  Biso   1.000  H
  H152     1.0000 0.69160  0.89660  0.25190  Biso   1.000  H
  O65      1.0000 0.19500  0.50000  0.61790  Biso   1.000  O
  O66      1.0000 0.80500  0.50000  0.38210  Biso   1.000  O
  O67      1.0000 0.69500  0.00000  0.11790  Biso   1.000  O
  O68      1.0000 0.30500  0.00000  0.88210  Biso   1.000  O
