data_image0
_cell_length_a       12.2633
_cell_length_b       17.5472
_cell_length_c       15.7535
_cell_angle_alpha    90
_cell_angle_beta     91.167
_cell_angle_gamma    90

_symmetry_space_group_name_H-M    "P 1"
_symmetry_int_tables_number       1

loop_
  _symmetry_equiv_pos_as_xyz
  'x, y, z'

loop_
  _atom_site_label
  _atom_site_occupancy
  _atom_site_fract_x
  _atom_site_fract_y
  _atom_site_fract_z
  _atom_site_thermal_displace_type
  _atom_site_B_iso_or_equiv
  _atom_site_type_symbol
  Cu1      1.0000 0.57700  0.73634  0.14395  Biso   1.000  Cu
  Cu2      1.0000 0.42300  0.23634  0.35605  Biso   1.000  Cu
  Cu3      1.0000 0.42300  0.26366  0.85605  Biso   1.000  Cu
  Cu4      1.0000 0.57700  0.76366  0.64395  Biso   1.000  Cu
  S1       1.0000 0.13742  0.78164  0.20597  Biso   1.000  S
  S2       1.0000 0.86258  0.28164  0.29403  Biso   1.000  S
  S3       1.0000 0.86258  0.21836  0.79403  Biso   1.000  S
  S4       1.0000 0.13742  0.71836  0.70597  Biso   1.000  S
  S5       1.0000 0.93924  0.72331  0.52734  Biso   1.000  S
  S6       1.0000 0.06076  0.22331  0.97266  Biso   1.000  S
  S7       1.0000 0.06076  0.27669  0.47266  Biso   1.000  S
  S8       1.0000 0.93924  0.77669  0.02734  Biso   1.000  S
  O1       1.0000 0.43980  0.71387  0.19919  Biso   1.000  O
  O2       1.0000 0.56020  0.21387  0.30081  Biso   1.000  O
  O3       1.0000 0.56020  0.28613  0.80081  Biso   1.000  O
  O4       1.0000 0.43980  0.78613  0.69919  Biso   1.000  O
  O5       1.0000 0.36150  0.81988  0.14880  Biso   1.000  O
  O6       1.0000 0.63850  0.31988  0.35120  Biso   1.000  O
  O7       1.0000 0.63850  0.18012  0.85120  Biso   1.000  O
  O8       1.0000 0.36150  0.68012  0.64880  Biso   1.000  O
  O9       1.0000 0.71370  0.74430  0.58620  Biso   1.000  O
  O10      1.0000 0.28630  0.24430  0.91380  Biso   1.000  O
  O11      1.0000 0.28630  0.25570  0.41380  Biso   1.000  O
  O12      1.0000 0.71370  0.75570  0.08620  Biso   1.000  O
  O13      1.0000 0.65120  0.63170  0.54080  Biso   1.000  O
  O14      1.0000 0.34880  0.13170  0.95920  Biso   1.000  O
  O15      1.0000 0.34880  0.36830  0.45920  Biso   1.000  O
  O16      1.0000 0.65120  0.86830  0.04080  Biso   1.000  O
  N1       1.0000 0.50340  0.69530  0.03560  Biso   1.000  N
  N2       1.0000 0.49660  0.19530  0.46440  Biso   1.000  N
  N3       1.0000 0.49660  0.30470  0.96440  Biso   1.000  N
  N4       1.0000 0.50340  0.80470  0.53560  Biso   1.000  N
  N5       1.0000 0.62260  0.80670  0.24110  Biso   1.000  N
  N6       1.0000 0.37740  0.30670  0.25890  Biso   1.000  N
  N7       1.0000 0.37740  0.19330  0.75890  Biso   1.000  N
  N8       1.0000 0.62260  0.69330  0.74110  Biso   1.000  N
  N9       1.0000 0.63940  0.62470  0.19940  Biso   1.000  N
  N10      1.0000 0.36060  0.12470  0.30060  Biso   1.000  N
  N11      1.0000 0.36060  0.37530  0.80060  Biso   1.000  N
  N12      1.0000 0.63940  0.87530  0.69940  Biso   1.000  N
  C1       1.0000 0.48260  0.74090  0.97000  Biso   1.000  C
  C2       1.0000 0.51740  0.24090  0.53000  Biso   1.000  C
  C3       1.0000 0.51740  0.25910  0.03000  Biso   1.000  C
  C4       1.0000 0.48260  0.75910  0.47000  Biso   1.000  C
  H1       1.0000 0.51310  0.79070  0.97060  Biso   1.000  H
  H2       1.0000 0.48690  0.29070  0.52940  Biso   1.000  H
  H3       1.0000 0.48690  0.20930  0.02940  Biso   1.000  H
  H4       1.0000 0.51310  0.70930  0.47060  Biso   1.000  H
  C5       1.0000 0.41860  0.71930  0.90080  Biso   1.000  C
  C6       1.0000 0.58140  0.21930  0.59920  Biso   1.000  C
  C7       1.0000 0.58140  0.28070  0.09920  Biso   1.000  C
  C8       1.0000 0.41860  0.78070  0.40080  Biso   1.000  C
  H5       1.0000 0.40440  0.75420  0.85580  Biso   1.000  H
  H6       1.0000 0.59560  0.25420  0.64420  Biso   1.000  H
  H7       1.0000 0.59560  0.24580  0.14420  Biso   1.000  H
  H8       1.0000 0.40440  0.74580  0.35580  Biso   1.000  H
  C9       1.0000 0.37650  0.64860  0.89780  Biso   1.000  C
  C10      1.0000 0.62350  0.14860  0.60220  Biso   1.000  C
  C11      1.0000 0.62350  0.35140  0.10220  Biso   1.000  C
  C12      1.0000 0.37650  0.85140  0.39780  Biso   1.000  C
  H9       1.0000 0.33120  0.63280  0.85150  Biso   1.000  H
  H10      1.0000 0.66880  0.13280  0.64850  Biso   1.000  H
  H11      1.0000 0.66880  0.36720  0.14850  Biso   1.000  H
  H12      1.0000 0.33120  0.86720  0.35150  Biso   1.000  H
  C13      1.0000 0.40070  0.60010  0.96340  Biso   1.000  C
  C14      1.0000 0.59930  0.10010  0.53660  Biso   1.000  C
  C15      1.0000 0.59930  0.39990  0.03660  Biso   1.000  C
  C16      1.0000 0.40070  0.89990  0.46340  Biso   1.000  C
  H13      1.0000 0.37520  0.54890  0.96160  Biso   1.000  H
  H14      1.0000 0.62480  0.04890  0.53840  Biso   1.000  H
  H15      1.0000 0.62480  0.45110  0.03840  Biso   1.000  H
  H16      1.0000 0.37520  0.95110  0.46160  Biso   1.000  H
  C17      1.0000 0.46190  0.62520  0.03180  Biso   1.000  C
  C18      1.0000 0.53810  0.12520  0.46820  Biso   1.000  C
  C19      1.0000 0.53810  0.37480  0.96820  Biso   1.000  C
  C20      1.0000 0.46190  0.87480  0.53180  Biso   1.000  C
  H17      1.0000 0.47510  0.59140  0.07800  Biso   1.000  H
  H18      1.0000 0.52490  0.09140  0.42200  Biso   1.000  H
  H19      1.0000 0.52490  0.40860  0.92200  Biso   1.000  H
  H20      1.0000 0.47510  0.90860  0.57800  Biso   1.000  H
  C21      1.0000 0.68270  0.78320  0.30840  Biso   1.000  C
  C22      1.0000 0.31730  0.28320  0.19160  Biso   1.000  C
  C23      1.0000 0.31730  0.21680  0.69160  Biso   1.000  C
  C24      1.0000 0.68270  0.71680  0.80840  Biso   1.000  C
  H21      1.0000 0.70620  0.73160  0.31020  Biso   1.000  H
  H22      1.0000 0.29380  0.23160  0.18980  Biso   1.000  H
  H23      1.0000 0.29380  0.26840  0.68980  Biso   1.000  H
  H24      1.0000 0.70620  0.76840  0.81020  Biso   1.000  H
  C25      1.0000 0.71140  0.83030  0.37430  Biso   1.000  C
  C26      1.0000 0.28860  0.33030  0.12570  Biso   1.000  C
  C27      1.0000 0.28860  0.16970  0.62570  Biso   1.000  C
  C28      1.0000 0.71140  0.66970  0.87430  Biso   1.000  C
  H25      1.0000 0.75420  0.81150  0.42070  Biso   1.000  H
  H26      1.0000 0.24580  0.31150  0.07930  Biso   1.000  H
  H27      1.0000 0.24580  0.18850  0.57930  Biso   1.000  H
  H28      1.0000 0.75420  0.68850  0.92070  Biso   1.000  H
  C29      1.0000 0.67810  0.90470  0.37280  Biso   1.000  C
  C30      1.0000 0.32190  0.40470  0.12720  Biso   1.000  C
  C31      1.0000 0.32190  0.09530  0.62720  Biso   1.000  C
  C32      1.0000 0.67810  0.59530  0.87280  Biso   1.000  C
  H29      1.0000 0.69720  0.93840  0.41800  Biso   1.000  H
  H30      1.0000 0.30280  0.43840  0.08200  Biso   1.000  H
  H31      1.0000 0.30280  0.06160  0.58200  Biso   1.000  H
  H32      1.0000 0.69720  0.56160  0.91800  Biso   1.000  H
  C33      1.0000 0.61620  0.92990  0.30430  Biso   1.000  C
  C34      1.0000 0.38380  0.42990  0.19570  Biso   1.000  C
  C35      1.0000 0.38380  0.07010  0.69570  Biso   1.000  C
  C36      1.0000 0.61620  0.57010  0.80430  Biso   1.000  C
  H33      1.0000 0.59210  0.98130  0.30130  Biso   1.000  H
  H34      1.0000 0.40790  0.48130  0.19870  Biso   1.000  H
  H35      1.0000 0.40790  0.01870  0.69870  Biso   1.000  H
  H36      1.0000 0.59210  0.51870  0.80130  Biso   1.000  H
  C37      1.0000 0.59000  0.87910  0.24020  Biso   1.000  C
  C38      1.0000 0.41000  0.37910  0.25980  Biso   1.000  C
  C39      1.0000 0.41000  0.12090  0.75980  Biso   1.000  C
  C40      1.0000 0.59000  0.62090  0.74020  Biso   1.000  C
  H37      1.0000 0.54680  0.89650  0.19340  Biso   1.000  H
  H38      1.0000 0.45320  0.39650  0.30660  Biso   1.000  H
  H39      1.0000 0.45320  0.10350  0.80660  Biso   1.000  H
  H40      1.0000 0.54680  0.60350  0.69340  Biso   1.000  H
  C41      1.0000 0.58560  0.59260  0.26670  Biso   1.000  C
  C42      1.0000 0.41440  0.09260  0.23330  Biso   1.000  C
  C43      1.0000 0.41440  0.40740  0.73330  Biso   1.000  C
  C44      1.0000 0.58560  0.90740  0.76670  Biso   1.000  C
  H41      1.0000 0.52220  0.61760  0.28630  Biso   1.000  H
  H42      1.0000 0.47780  0.11760  0.21370  Biso   1.000  H
  H43      1.0000 0.47780  0.38240  0.71370  Biso   1.000  H
  H44      1.0000 0.52220  0.88240  0.78630  Biso   1.000  H
  C45      1.0000 0.61800  0.52650  0.30740  Biso   1.000  C
  C46      1.0000 0.38200  0.02650  0.19260  Biso   1.000  C
  C47      1.0000 0.38200  0.47350  0.69260  Biso   1.000  C
  C48      1.0000 0.61800  0.97350  0.80740  Biso   1.000  C
  H45      1.0000 0.58090  0.50700  0.35510  Biso   1.000  H
  H46      1.0000 0.41910  0.00700  0.14490  Biso   1.000  H
  H47      1.0000 0.41910  0.49300  0.64490  Biso   1.000  H
  H48      1.0000 0.58090  0.99300  0.85510  Biso   1.000  H
  C49      1.0000 0.70550  0.49140  0.27510  Biso   1.000  C
  C50      1.0000 0.29450  0.99140  0.22490  Biso   1.000  C
  C51      1.0000 0.29450  0.50860  0.72490  Biso   1.000  C
  C52      1.0000 0.70550  0.00860  0.77510  Biso   1.000  C
  H49      1.0000 0.72830  0.44470  0.30050  Biso   1.000  H
  H50      1.0000 0.27170  0.94470  0.19950  Biso   1.000  H
  H51      1.0000 0.27170  0.55530  0.69950  Biso   1.000  H
  H52      1.0000 0.72830  0.05530  0.80050  Biso   1.000  H
  C53      1.0000 0.76420  0.51840  0.20790  Biso   1.000  C
  C54      1.0000 0.23580  0.01840  0.29210  Biso   1.000  C
  C55      1.0000 0.23580  0.48160  0.79210  Biso   1.000  C
  C56      1.0000 0.76420  0.98160  0.70790  Biso   1.000  C
  H53      1.0000 0.82580  0.49200  0.18710  Biso   1.000  H
  H54      1.0000 0.17420  0.99200  0.31290  Biso   1.000  H
  H55      1.0000 0.17420  0.50800  0.81290  Biso   1.000  H
  H56      1.0000 0.82580  0.00800  0.68710  Biso   1.000  H
  C57      1.0000 0.72560  0.59090  0.17030  Biso   1.000  C
  C58      1.0000 0.27440  0.09090  0.32970  Biso   1.000  C
  C59      1.0000 0.27440  0.40910  0.82970  Biso   1.000  C
  C60      1.0000 0.72560  0.90910  0.67030  Biso   1.000  C
  H57      1.0000 0.76380  0.61300  0.12450  Biso   1.000  H
  H58      1.0000 0.23620  0.11300  0.37550  Biso   1.000  H
  H59      1.0000 0.23620  0.38700  0.87550  Biso   1.000  H
  H60      1.0000 0.76380  0.88700  0.62450  Biso   1.000  H
  C61      1.0000 0.35920  0.75730  0.18400  Biso   1.000  C
  C62      1.0000 0.64080  0.25730  0.31600  Biso   1.000  C
  C63      1.0000 0.64080  0.24270  0.81600  Biso   1.000  C
  C64      1.0000 0.35920  0.74270  0.68400  Biso   1.000  C
  C65      1.0000 0.25310  0.72650  0.21270  Biso   1.000  C
  C66      1.0000 0.74690  0.22650  0.28730  Biso   1.000  C
  C67      1.0000 0.74690  0.27350  0.78730  Biso   1.000  C
  C68      1.0000 0.25310  0.77350  0.71270  Biso   1.000  C
  C69      1.0000 0.23050  0.65600  0.24390  Biso   1.000  C
  C70      1.0000 0.76950  0.15600  0.25610  Biso   1.000  C
  C71      1.0000 0.76950  0.34400  0.75610  Biso   1.000  C
  C72      1.0000 0.23050  0.84400  0.74390  Biso   1.000  C
  H61      1.0000 0.28410  0.61740  0.25170  Biso   1.000  H
  H62      1.0000 0.71590  0.11740  0.24830  Biso   1.000  H
  H63      1.0000 0.71590  0.38260  0.74830  Biso   1.000  H
  H64      1.0000 0.28410  0.88260  0.75170  Biso   1.000  H
  C73      1.0000 0.11810  0.64590  0.26370  Biso   1.000  C
  C74      1.0000 0.88190  0.14590  0.23630  Biso   1.000  C
  C75      1.0000 0.88190  0.35410  0.73630  Biso   1.000  C
  C76      1.0000 0.11810  0.85410  0.76370  Biso   1.000  C
  C77      1.0000 0.05810  0.70960  0.24630  Biso   1.000  C
  C78      1.0000 0.94190  0.20960  0.25370  Biso   1.000  C
  C79      1.0000 0.94190  0.29040  0.75370  Biso   1.000  C
  C80      1.0000 0.05810  0.79040  0.74630  Biso   1.000  C
  C81      1.0000 0.93820  0.72190  0.25710  Biso   1.000  C
  C82      1.0000 0.06180  0.22190  0.24290  Biso   1.000  C
  C83      1.0000 0.06180  0.27810  0.74290  Biso   1.000  C
  C84      1.0000 0.93820  0.77810  0.75710  Biso   1.000  C
  H65      1.0000 0.90170  0.67260  0.26260  Biso   1.000  H
  H66      1.0000 0.09830  0.17260  0.23740  Biso   1.000  H
  H67      1.0000 0.09830  0.32740  0.73740  Biso   1.000  H
  H68      1.0000 0.90170  0.82740  0.76260  Biso   1.000  H
  H69      1.0000 0.90810  0.74900  0.20760  Biso   1.000  H
  H70      1.0000 0.09190  0.24900  0.29240  Biso   1.000  H
  H71      1.0000 0.09190  0.25100  0.79240  Biso   1.000  H
  H72      1.0000 0.90810  0.75100  0.70760  Biso   1.000  H
  H73      1.0000 0.92640  0.75230  0.30840  Biso   1.000  H
  H74      1.0000 0.07360  0.25230  0.19160  Biso   1.000  H
  H75      1.0000 0.07360  0.24770  0.69160  Biso   1.000  H
  H76      1.0000 0.92640  0.74770  0.80840  Biso   1.000  H
  C85      1.0000 0.07750  0.57310  0.29610  Biso   1.000  C
  C86      1.0000 0.92250  0.07310  0.20390  Biso   1.000  C
  C87      1.0000 0.92250  0.42690  0.70390  Biso   1.000  C
  C88      1.0000 0.07750  0.92690  0.79610  Biso   1.000  C
  C89      1.0000 0.11620  0.49920  0.25760  Biso   1.000  C
  C90      1.0000 0.88380  0.99920  0.24240  Biso   1.000  C
  C91      1.0000 0.88380  0.50080  0.74240  Biso   1.000  C
  C92      1.0000 0.11620  0.00080  0.75760  Biso   1.000  C
  H77      1.0000 0.10590  0.49980  0.19510  Biso   1.000  H
  H78      1.0000 0.89410  0.99980  0.30490  Biso   1.000  H
  H79      1.0000 0.89410  0.50020  0.80490  Biso   1.000  H
  H80      1.0000 0.10590  0.00020  0.69510  Biso   1.000  H
  H81      1.0000 0.19430  0.49040  0.27150  Biso   1.000  H
  H82      1.0000 0.80570  0.99040  0.22850  Biso   1.000  H
  H83      1.0000 0.80570  0.50960  0.72850  Biso   1.000  H
  H84      1.0000 0.19430  0.00960  0.77150  Biso   1.000  H
  C93      1.0000 0.04700  0.43930  0.29670  Biso   1.000  C
  C94      1.0000 0.95300  0.93930  0.20330  Biso   1.000  C
  C95      1.0000 0.95300  0.56070  0.70330  Biso   1.000  C
  C96      1.0000 0.04700  0.06070  0.79670  Biso   1.000  C
  H85      1.0000 0.09280  0.39600  0.31640  Biso   1.000  H
  H86      1.0000 0.90720  0.89600  0.18360  Biso   1.000  H
  H87      1.0000 0.90720  0.60400  0.68360  Biso   1.000  H
  H88      1.0000 0.09280  0.10400  0.81640  Biso   1.000  H
  H89      1.0000 0.99270  0.41990  0.25460  Biso   1.000  H
  H90      1.0000 0.00730  0.91990  0.24540  Biso   1.000  H
  H91      1.0000 0.00730  0.58010  0.74540  Biso   1.000  H
  H92      1.0000 0.99270  0.08010  0.75460  Biso   1.000  H
  C97      1.0000 0.99000  0.47510  0.37080  Biso   1.000  C
  C98      1.0000 0.01000  0.97510  0.12920  Biso   1.000  C
  C99      1.0000 0.01000  0.52490  0.62920  Biso   1.000  C
  C100     1.0000 0.99000  0.02490  0.87080  Biso   1.000  C
  H93      1.0000 0.02130  0.45650  0.42540  Biso   1.000  H
  H94      1.0000 0.97870  0.95650  0.07460  Biso   1.000  H
  H95      1.0000 0.97870  0.54350  0.57460  Biso   1.000  H
  H96      1.0000 0.02130  0.04350  0.92540  Biso   1.000  H
  H97      1.0000 0.91090  0.46360  0.36870  Biso   1.000  H
  H98      1.0000 0.08910  0.96360  0.13130  Biso   1.000  H
  H99      1.0000 0.08910  0.53640  0.63130  Biso   1.000  H
  H100     1.0000 0.91090  0.03640  0.86870  Biso   1.000  H
  C101     1.0000 0.01000  0.55970  0.36040  Biso   1.000  C
  C102     1.0000 0.99000  0.05970  0.13960  Biso   1.000  C
  C103     1.0000 0.99000  0.44030  0.63960  Biso   1.000  C
  C104     1.0000 0.01000  0.94030  0.86040  Biso   1.000  C
  C105     1.0000 0.96430  0.61500  0.42030  Biso   1.000  C
  C106     1.0000 0.03570  0.11500  0.07970  Biso   1.000  C
  C107     1.0000 0.03570  0.38500  0.57970  Biso   1.000  C
  C108     1.0000 0.96430  0.88500  0.92030  Biso   1.000  C
  C109     1.0000 0.85310  0.61210  0.44760  Biso   1.000  C
  C110     1.0000 0.14690  0.11210  0.05240  Biso   1.000  C
  C111     1.0000 0.14690  0.38790  0.55240  Biso   1.000  C
  C112     1.0000 0.85310  0.88790  0.94760  Biso   1.000  C
  H101     1.0000 0.80210  0.57500  0.42780  Biso   1.000  H
  H102     1.0000 0.19790  0.07500  0.07220  Biso   1.000  H
  H103     1.0000 0.19790  0.42500  0.57220  Biso   1.000  H
  H104     1.0000 0.80210  0.92500  0.92780  Biso   1.000  H
  C113     1.0000 0.82790  0.66720  0.50420  Biso   1.000  C
  C114     1.0000 0.17210  0.16720  0.99580  Biso   1.000  C
  C115     1.0000 0.17210  0.33280  0.49580  Biso   1.000  C
  C116     1.0000 0.82790  0.83280  0.00420  Biso   1.000  C
  C117     1.0000 0.02130  0.67170  0.46030  Biso   1.000  C
  C118     1.0000 0.97870  0.17170  0.03970  Biso   1.000  C
  C119     1.0000 0.97870  0.32830  0.53970  Biso   1.000  C
  C120     1.0000 0.02130  0.82830  0.96030  Biso   1.000  C
  C121     1.0000 0.14050  0.69010  0.45720  Biso   1.000  C
  C122     1.0000 0.85950  0.19010  0.04280  Biso   1.000  C
  C123     1.0000 0.85950  0.30990  0.54280  Biso   1.000  C
  C124     1.0000 0.14050  0.80990  0.95720  Biso   1.000  C
  H105     1.0000 0.18110  0.64430  0.44120  Biso   1.000  H
  H106     1.0000 0.81890  0.14430  0.05880  Biso   1.000  H
  H107     1.0000 0.81890  0.35570  0.55880  Biso   1.000  H
  H108     1.0000 0.18110  0.85570  0.94120  Biso   1.000  H
  H109     1.0000 0.16610  0.70770  0.51310  Biso   1.000  H
  H110     1.0000 0.83390  0.20770  0.98690  Biso   1.000  H
  H111     1.0000 0.83390  0.29230  0.48690  Biso   1.000  H
  H112     1.0000 0.16610  0.79230  0.01310  Biso   1.000  H
  H113     1.0000 0.15210  0.73020  0.41510  Biso   1.000  H
  H114     1.0000 0.84790  0.23020  0.08490  Biso   1.000  H
  H115     1.0000 0.84790  0.26980  0.58490  Biso   1.000  H
  H116     1.0000 0.15210  0.76980  0.91510  Biso   1.000  H
  C125     1.0000 0.72210  0.68140  0.54710  Biso   1.000  C
  C126     1.0000 0.27790  0.18140  0.95290  Biso   1.000  C
  C127     1.0000 0.27790  0.31860  0.45290  Biso   1.000  C
  C128     1.0000 0.72210  0.81860  0.04710  Biso   1.000  C
  O17      1.0000 0.43370  0.58450  0.52410  Biso   1.000  O
  O18      1.0000 0.56630  0.08450  0.97590  Biso   1.000  O
  O19      1.0000 0.56630  0.41550  0.47590  Biso   1.000  O
  O20      1.0000 0.43370  0.91550  0.02410  Biso   1.000  O
  H117     1.0000 0.41000  0.62900  0.55200  Biso   1.000  H
  H118     1.0000 0.59000  0.12900  0.94800  Biso   1.000  H
  H119     1.0000 0.59000  0.37100  0.44800  Biso   1.000  H
  H120     1.0000 0.41000  0.87100  0.05200  Biso   1.000  H
  H121     1.0000 0.51050  0.59100  0.52900  Biso   1.000  H
  H122     1.0000 0.48950  0.09100  0.97100  Biso   1.000  H
  H123     1.0000 0.48950  0.40900  0.47100  Biso   1.000  H
  H124     1.0000 0.51050  0.90900  0.02900  Biso   1.000  H
  O21      1.0000 0.34430  0.52130  0.38140  Biso   1.000  O
  O22      1.0000 0.65570  0.02130  0.11860  Biso   1.000  O
  O23      1.0000 0.65570  0.47870  0.61860  Biso   1.000  O
  O24      1.0000 0.34430  0.97870  0.88140  Biso   1.000  O
  H125     1.0000 0.33700  0.47300  0.41000  Biso   1.000  H
  H126     1.0000 0.66300  0.97300  0.09000  Biso   1.000  H
  H127     1.0000 0.66300  0.52700  0.59000  Biso   1.000  H
  H128     1.0000 0.33700  0.02700  0.91000  Biso   1.000  H
  H129     1.0000 0.38900  0.54200  0.42700  Biso   1.000  H
  H130     1.0000 0.61100  0.04200  0.07300  Biso   1.000  H
  H131     1.0000 0.61100  0.45800  0.57300  Biso   1.000  H
  H132     1.0000 0.38900  0.95800  0.92700  Biso   1.000  H
  O25      1.0000 0.00000  0.50000  0.00000  Biso   1.000  O
  O26      1.0000 0.00000  0.00000  0.50000  Biso   1.000  O
  C129     1.0000 0.99540  0.56950  0.04060  Biso   1.000  C
  C130     1.0000 0.00460  0.06950  0.45940  Biso   1.000  C
  C131     1.0000 0.00460  0.43050  0.95940  Biso   1.000  C
  C132     1.0000 0.99540  0.93050  0.54060  Biso   1.000  C
  H133     1.0000 0.97860  0.56250  0.10130  Biso   1.000  H
  H134     1.0000 0.02140  0.06250  0.39870  Biso   1.000  H
  H135     1.0000 0.02140  0.43750  0.89870  Biso   1.000  H
  H136     1.0000 0.97860  0.93750  0.60130  Biso   1.000  H
  H137     1.0000 0.93830  0.60210  0.01410  Biso   1.000  H
  H138     1.0000 0.06170  0.10210  0.48590  Biso   1.000  H
  H139     1.0000 0.06170  0.39790  0.98590  Biso   1.000  H
  H140     1.0000 0.93830  0.89790  0.51410  Biso   1.000  H
  C133     1.0000 0.10220  0.60400  0.03200  Biso   1.000  C
  C134     1.0000 0.89780  0.10400  0.46800  Biso   1.000  C
  C135     1.0000 0.89780  0.39600  0.96800  Biso   1.000  C
  C136     1.0000 0.10220  0.89600  0.53200  Biso   1.000  C
  H141     1.0000 0.09690  0.65900  0.04110  Biso   1.000  H
  H142     1.0000 0.90310  0.15900  0.45890  Biso   1.000  H
  H143     1.0000 0.90310  0.34100  0.95890  Biso   1.000  H
  H144     1.0000 0.09690  0.84100  0.54110  Biso   1.000  H
  H145     1.0000 0.12870  0.59430  0.97450  Biso   1.000  H
  H146     1.0000 0.87130  0.09430  0.52550  Biso   1.000  H
  H147     1.0000 0.87130  0.40570  0.02550  Biso   1.000  H
  H148     1.0000 0.12870  0.90570  0.47450  Biso   1.000  H
  H149     1.0000 0.15300  0.58180  0.07380  Biso   1.000  H
  H150     1.0000 0.84700  0.08180  0.42620  Biso   1.000  H
  H151     1.0000 0.84700  0.41820  0.92620  Biso   1.000  H
  H152     1.0000 0.15300  0.91820  0.57380  Biso   1.000  H
  C137     1.0000 0.89300  0.47750  0.00800  Biso   1.000  C
  C138     1.0000 0.10700  0.97750  0.49200  Biso   1.000  C
  C139     1.0000 0.10700  0.52250  0.99200  Biso   1.000  C
  C140     1.0000 0.89300  0.02250  0.50800  Biso   1.000  C
  C141     1.0000 0.11000  0.60300  0.01400  Biso   1.000  C
  C142     1.0000 0.89000  0.10300  0.48600  Biso   1.000  C
  C143     1.0000 0.89000  0.39700  0.98600  Biso   1.000  C
  C144     1.0000 0.11000  0.89700  0.51400  Biso   1.000  C
  H153     1.0000 0.18610  0.61900  0.02300  Biso   1.000  H
  H154     1.0000 0.81390  0.11900  0.47700  Biso   1.000  H
  H155     1.0000 0.81390  0.38100  0.97700  Biso   1.000  H
  H156     1.0000 0.18610  0.88100  0.52300  Biso   1.000  H
  H157     1.0000 0.06970  0.61140  0.06630  Biso   1.000  H
  H158     1.0000 0.93030  0.11140  0.43370  Biso   1.000  H
  H159     1.0000 0.93030  0.38860  0.93370  Biso   1.000  H
  H160     1.0000 0.06970  0.88860  0.56630  Biso   1.000  H
  H161     1.0000 0.07680  0.63270  0.96780  Biso   1.000  H
  H162     1.0000 0.92320  0.13270  0.53220  Biso   1.000  H
  H163     1.0000 0.92320  0.36730  0.03220  Biso   1.000  H
  H164     1.0000 0.07680  0.86730  0.46780  Biso   1.000  H
  H165     1.0000 0.84510  0.50710  0.96850  Biso   1.000  H
  H166     1.0000 0.15490  0.00710  0.53150  Biso   1.000  H
  H167     1.0000 0.15490  0.49290  0.03150  Biso   1.000  H
  H168     1.0000 0.84510  0.99290  0.46850  Biso   1.000  H
  H169     1.0000 0.86840  0.48540  0.06640  Biso   1.000  H
  H170     1.0000 0.13160  0.98540  0.43360  Biso   1.000  H
  H171     1.0000 0.13160  0.51460  0.93360  Biso   1.000  H
  H172     1.0000 0.86840  0.01460  0.56640  Biso   1.000  H
