data_image0
_cell_length_a       8.3462
_cell_length_b       17.638
_cell_length_c       26.285
_cell_angle_alpha    90
_cell_angle_beta     95.725
_cell_angle_gamma    90

_symmetry_space_group_name_H-M    "P 1"
_symmetry_int_tables_number       1

loop_
  _symmetry_equiv_pos_as_xyz
  'x, y, z'

loop_
  _atom_site_label
  _atom_site_occupancy
  _atom_site_fract_x
  _atom_site_fract_y
  _atom_site_fract_z
  _atom_site_thermal_displace_type
  _atom_site_B_iso_or_equiv
  _atom_site_type_symbol
  C1       1.0000 0.31020  0.70820  0.77217  Biso   1.000  C
  C2       1.0000 0.68980  0.20820  0.72783  Biso   1.000  C
  C3       1.0000 0.68980  0.29180  0.22783  Biso   1.000  C
  C4       1.0000 0.31020  0.79180  0.27217  Biso   1.000  C
  C5       1.0000 0.37930  0.69570  0.82597  Biso   1.000  C
  C6       1.0000 0.62070  0.19570  0.67403  Biso   1.000  C
  C7       1.0000 0.62070  0.30430  0.17403  Biso   1.000  C
  C8       1.0000 0.37930  0.80430  0.32597  Biso   1.000  C
  C9       1.0000 0.45870  0.63260  0.84468  Biso   1.000  C
  C10      1.0000 0.54130  0.13260  0.65532  Biso   1.000  C
  C11      1.0000 0.54130  0.36740  0.15532  Biso   1.000  C
  C12      1.0000 0.45870  0.86740  0.34468  Biso   1.000  C
  H1       1.0000 0.47340  0.58890  0.82450  Biso   1.000  H
  H2       1.0000 0.52660  0.08890  0.67550  Biso   1.000  H
  H3       1.0000 0.52660  0.41110  0.17550  Biso   1.000  H
  H4       1.0000 0.47340  0.91110  0.32450  Biso   1.000  H
  C13      1.0000 0.51770  0.63810  0.89733  Biso   1.000  C
  C14      1.0000 0.48230  0.13810  0.60267  Biso   1.000  C
  C15      1.0000 0.48230  0.36190  0.10267  Biso   1.000  C
  C16      1.0000 0.51770  0.86190  0.39733  Biso   1.000  C
  C17      1.0000 0.47560  0.70590  0.91809  Biso   1.000  C
  C18      1.0000 0.52440  0.20590  0.58191  Biso   1.000  C
  C19      1.0000 0.52440  0.29410  0.08191  Biso   1.000  C
  C20      1.0000 0.47560  0.79410  0.41809  Biso   1.000  C
  C21      1.0000 0.50690  0.73310  0.97223  Biso   1.000  C
  C22      1.0000 0.49310  0.23310  0.52777  Biso   1.000  C
  C23      1.0000 0.49310  0.26690  0.02777  Biso   1.000  C
  C24      1.0000 0.50690  0.76690  0.47223  Biso   1.000  C
  H5       1.0000 0.53630  0.68990  0.99470  Biso   1.000  H
  H6       1.0000 0.46370  0.18990  0.50530  Biso   1.000  H
  H7       1.0000 0.46370  0.31010  0.00530  Biso   1.000  H
  H8       1.0000 0.53630  0.81010  0.49470  Biso   1.000  H
  H9       1.0000 0.40950  0.75720  0.98270  Biso   1.000  H
  H10      1.0000 0.59050  0.25720  0.51730  Biso   1.000  H
  H11      1.0000 0.59050  0.24280  0.01730  Biso   1.000  H
  H12      1.0000 0.40950  0.74280  0.48270  Biso   1.000  H
  H13      1.0000 0.59520  0.76990  0.97470  Biso   1.000  H
  H14      1.0000 0.40480  0.26990  0.52530  Biso   1.000  H
  H15      1.0000 0.40480  0.23010  0.02530  Biso   1.000  H
  H16      1.0000 0.59520  0.73010  0.47470  Biso   1.000  H
  C25      1.0000 0.60590  0.57540  0.92474  Biso   1.000  C
  C26      1.0000 0.39410  0.07540  0.57526  Biso   1.000  C
  C27      1.0000 0.39410  0.42460  0.07526  Biso   1.000  C
  C28      1.0000 0.60590  0.92460  0.42474  Biso   1.000  C
  C29      1.0000 0.54730  0.49480  0.91511  Biso   1.000  C
  C30      1.0000 0.45270  0.99480  0.58489  Biso   1.000  C
  C31      1.0000 0.45270  0.50520  0.08489  Biso   1.000  C
  C32      1.0000 0.54730  0.00520  0.41511  Biso   1.000  C
  H17      1.0000 0.57060  0.47710  0.88090  Biso   1.000  H
  H18      1.0000 0.42940  0.97710  0.61910  Biso   1.000  H
  H19      1.0000 0.42940  0.52290  0.11910  Biso   1.000  H
  H20      1.0000 0.57060  0.02290  0.38090  Biso   1.000  H
  H21      1.0000 0.43000  0.49090  0.91760  Biso   1.000  H
  H22      1.0000 0.57000  0.99090  0.58240  Biso   1.000  H
  H23      1.0000 0.57000  0.50910  0.08240  Biso   1.000  H
  H24      1.0000 0.43000  0.00910  0.41760  Biso   1.000  H
  C33      1.0000 0.64200  0.44850  0.95736  Biso   1.000  C
  C34      1.0000 0.35800  0.94850  0.54264  Biso   1.000  C
  C35      1.0000 0.35800  0.55150  0.04264  Biso   1.000  C
  C36      1.0000 0.64200  0.05150  0.45736  Biso   1.000  C
  H25      1.0000 0.57430  0.43730  0.98530  Biso   1.000  H
  H26      1.0000 0.42570  0.93730  0.51470  Biso   1.000  H
  H27      1.0000 0.42570  0.56270  0.01470  Biso   1.000  H
  H28      1.0000 0.57430  0.06270  0.48530  Biso   1.000  H
  H29      1.0000 0.67920  0.40000  0.94360  Biso   1.000  H
  H30      1.0000 0.32080  0.90000  0.55640  Biso   1.000  H
  H31      1.0000 0.32080  0.60000  0.05640  Biso   1.000  H
  H32      1.0000 0.67920  0.10000  0.44360  Biso   1.000  H
  C37      1.0000 0.78560  0.49820  0.97677  Biso   1.000  C
  C38      1.0000 0.21440  0.99820  0.52323  Biso   1.000  C
  C39      1.0000 0.21440  0.50180  0.02323  Biso   1.000  C
  C40      1.0000 0.78560  0.00180  0.47677  Biso   1.000  C
  H33      1.0000 0.80250  0.49760  0.01460  Biso   1.000  H
  H34      1.0000 0.19750  0.99760  0.48540  Biso   1.000  H
  H35      1.0000 0.19750  0.50240  0.98540  Biso   1.000  H
  H36      1.0000 0.80250  0.00240  0.51460  Biso   1.000  H
  H37      1.0000 0.88530  0.48060  0.96300  Biso   1.000  H
  H38      1.0000 0.11470  0.98060  0.53700  Biso   1.000  H
  H39      1.0000 0.11470  0.51940  0.03700  Biso   1.000  H
  H40      1.0000 0.88530  0.01940  0.46300  Biso   1.000  H
  C41      1.0000 0.73960  0.57716  0.95714  Biso   1.000  C
  C42      1.0000 0.26040  0.07716  0.54286  Biso   1.000  C
  C43      1.0000 0.26040  0.42284  0.04286  Biso   1.000  C
  C44      1.0000 0.73960  0.92284  0.45714  Biso   1.000  C
  C45      1.0000 0.84390  0.64172  0.97259  Biso   1.000  C
  C46      1.0000 0.15610  0.14172  0.52741  Biso   1.000  C
  C47      1.0000 0.15610  0.35828  0.02741  Biso   1.000  C
  C48      1.0000 0.84390  0.85828  0.47259  Biso   1.000  C
  C49      1.0000 0.90150  0.69480  0.94044  Biso   1.000  C
  C50      1.0000 0.09850  0.19480  0.55956  Biso   1.000  C
  C51      1.0000 0.09850  0.30520  0.05956  Biso   1.000  C
  C52      1.0000 0.90150  0.80520  0.44044  Biso   1.000  C
  C53      1.0000 0.87710  0.70000  0.88364  Biso   1.000  C
  C54      1.0000 0.12290  0.20000  0.61636  Biso   1.000  C
  C55      1.0000 0.12290  0.30000  0.11636  Biso   1.000  C
  C56      1.0000 0.87710  0.80000  0.38364  Biso   1.000  C
  H41      1.0000 0.83210  0.65220  0.86960  Biso   1.000  H
  H42      1.0000 0.16790  0.15220  0.63040  Biso   1.000  H
  H43      1.0000 0.16790  0.34780  0.13040  Biso   1.000  H
  H44      1.0000 0.83210  0.84780  0.36960  Biso   1.000  H
  H45      1.0000 0.98070  0.70960  0.87030  Biso   1.000  H
  H46      1.0000 0.01930  0.20960  0.62970  Biso   1.000  H
  H47      1.0000 0.01930  0.29040  0.12970  Biso   1.000  H
  H48      1.0000 0.98070  0.79040  0.37030  Biso   1.000  H
  H49      1.0000 0.80250  0.74150  0.87370  Biso   1.000  H
  H50      1.0000 0.19750  0.24150  0.62630  Biso   1.000  H
  H51      1.0000 0.19750  0.25850  0.12630  Biso   1.000  H
  H52      1.0000 0.80250  0.75850  0.37370  Biso   1.000  H
  C57      1.0000 0.90340  0.65605  0.02485  Biso   1.000  C
  C58      1.0000 0.09660  0.15605  0.47515  Biso   1.000  C
  C59      1.0000 0.09660  0.34395  0.97515  Biso   1.000  C
  C60      1.0000 0.90340  0.84395  0.52485  Biso   1.000  C
  H53      1.0000 0.87880  0.62450  0.05230  Biso   1.000  H
  H54      1.0000 0.12120  0.12450  0.44770  Biso   1.000  H
  H55      1.0000 0.12120  0.37550  0.94770  Biso   1.000  H
  H56      1.0000 0.87880  0.87550  0.55230  Biso   1.000  H
  C61      1.0000 0.99760  0.71855  0.03161  Biso   1.000  C
  C62      1.0000 0.00240  0.21855  0.46839  Biso   1.000  C
  C63      1.0000 0.00240  0.28145  0.96839  Biso   1.000  C
  C64      1.0000 0.99760  0.78145  0.53161  Biso   1.000  C
  C65      1.0000 0.07840  0.75114  0.07943  Biso   1.000  C
  C66      1.0000 0.92160  0.25114  0.42057  Biso   1.000  C
  C67      1.0000 0.92160  0.24886  0.92057  Biso   1.000  C
  C68      1.0000 0.07840  0.74886  0.57943  Biso   1.000  C
  C69      1.0000 0.07660  0.94880  0.65240  Biso   1.000  C
  C70      1.0000 0.92340  0.44880  0.84760  Biso   1.000  C
  C71      1.0000 0.92340  0.05120  0.34760  Biso   1.000  C
  C72      1.0000 0.07660  0.55120  0.15240  Biso   1.000  C
  H57      1.0000 0.11180  0.92750  0.62230  Biso   1.000  H
  H58      1.0000 0.88820  0.42750  0.87770  Biso   1.000  H
  H59      1.0000 0.88820  0.07250  0.37770  Biso   1.000  H
  H60      1.0000 0.11180  0.57250  0.12230  Biso   1.000  H
  C73      1.0000 0.00590  0.01840  0.64870  Biso   1.000  C
  C74      1.0000 0.99410  0.51840  0.85130  Biso   1.000  C
  C75      1.0000 0.99410  0.98160  0.35130  Biso   1.000  C
  C76      1.0000 0.00590  0.48160  0.14870  Biso   1.000  C
  H61      1.0000 0.99510  0.04510  0.61710  Biso   1.000  H
  H62      1.0000 0.00490  0.54510  0.88290  Biso   1.000  H
  H63      1.0000 0.00490  0.95490  0.38290  Biso   1.000  H
  H64      1.0000 0.99510  0.45490  0.11710  Biso   1.000  H
  C77      1.0000 0.94990  0.04940  0.69220  Biso   1.000  C
  C78      1.0000 0.05010  0.54940  0.80780  Biso   1.000  C
  C79      1.0000 0.05010  0.95060  0.30780  Biso   1.000  C
  C80      1.0000 0.94990  0.45060  0.19220  Biso   1.000  C
  H65      1.0000 0.89770  0.09730  0.69080  Biso   1.000  H
  H66      1.0000 0.10230  0.59730  0.80920  Biso   1.000  H
  H67      1.0000 0.10230  0.90270  0.30920  Biso   1.000  H
  H68      1.0000 0.89770  0.40270  0.19080  Biso   1.000  H
  C81      1.0000 0.97150  0.00910  0.73780  Biso   1.000  C
  C82      1.0000 0.02850  0.50910  0.76220  Biso   1.000  C
  C83      1.0000 0.02850  0.99090  0.26220  Biso   1.000  C
  C84      1.0000 0.97150  0.49090  0.23780  Biso   1.000  C
  H69      1.0000 0.93490  0.02860  0.76830  Biso   1.000  H
  H70      1.0000 0.06510  0.52860  0.73170  Biso   1.000  H
  H71      1.0000 0.06510  0.97140  0.23170  Biso   1.000  H
  H72      1.0000 0.93490  0.47140  0.26830  Biso   1.000  H
  C85      1.0000 0.04880  0.93920  0.73720  Biso   1.000  C
  C86      1.0000 0.95120  0.43920  0.76280  Biso   1.000  C
  C87      1.0000 0.95120  0.06080  0.26280  Biso   1.000  C
  C88      1.0000 0.04880  0.56080  0.23720  Biso   1.000  C
  H73      1.0000 0.06580  0.91210  0.76850  Biso   1.000  H
  H74      1.0000 0.93420  0.41210  0.73150  Biso   1.000  H
  H75      1.0000 0.93420  0.08790  0.23150  Biso   1.000  H
  H76      1.0000 0.06580  0.58790  0.26850  Biso   1.000  H
  C89      1.0000 0.88940  0.74370  0.74612  Biso   1.000  C
  C90      1.0000 0.11060  0.24370  0.75388  Biso   1.000  C
  C91      1.0000 0.11060  0.25630  0.25388  Biso   1.000  C
  C92      1.0000 0.88940  0.75630  0.24612  Biso   1.000  C
  H77      1.0000 0.93270  0.78290  0.76810  Biso   1.000  H
  H78      1.0000 0.06730  0.28290  0.73190  Biso   1.000  H
  H79      1.0000 0.06730  0.21710  0.23190  Biso   1.000  H
  H80      1.0000 0.93270  0.71710  0.26810  Biso   1.000  H
  C93      1.0000 0.74770  0.70940  0.75636  Biso   1.000  C
  C94      1.0000 0.25230  0.20940  0.74364  Biso   1.000  C
  C95      1.0000 0.25230  0.29060  0.24364  Biso   1.000  C
  C96      1.0000 0.74770  0.79060  0.25636  Biso   1.000  C
  H81      1.0000 0.69330  0.72560  0.78450  Biso   1.000  H
  H82      1.0000 0.30670  0.22560  0.71550  Biso   1.000  H
  H83      1.0000 0.30670  0.27440  0.21550  Biso   1.000  H
  H84      1.0000 0.69330  0.77440  0.28450  Biso   1.000  H
  C97      1.0000 0.68600  0.65150  0.72541  Biso   1.000  C
  C98      1.0000 0.31400  0.15150  0.77459  Biso   1.000  C
  C99      1.0000 0.31400  0.34850  0.27459  Biso   1.000  C
  C100     1.0000 0.68600  0.84850  0.22541  Biso   1.000  C
  H85      1.0000 0.58810  0.62730  0.73160  Biso   1.000  H
  H86      1.0000 0.41190  0.12730  0.76840  Biso   1.000  H
  H87      1.0000 0.41190  0.37270  0.26840  Biso   1.000  H
  H88      1.0000 0.58810  0.87270  0.23160  Biso   1.000  H
  C101     1.0000 0.76890  0.62920  0.68514  Biso   1.000  C
  C102     1.0000 0.23110  0.12920  0.81486  Biso   1.000  C
  C103     1.0000 0.23110  0.37080  0.31486  Biso   1.000  C
  C104     1.0000 0.76890  0.87080  0.18514  Biso   1.000  C
  H89      1.0000 0.73040  0.58840  0.66370  Biso   1.000  H
  H90      1.0000 0.26960  0.08840  0.83630  Biso   1.000  H
  H91      1.0000 0.26960  0.41160  0.33630  Biso   1.000  H
  H92      1.0000 0.73040  0.91160  0.16370  Biso   1.000  H
  C105     1.0000 0.90860  0.66690  0.67627  Biso   1.000  C
  C106     1.0000 0.09140  0.16690  0.82373  Biso   1.000  C
  C107     1.0000 0.09140  0.33310  0.32373  Biso   1.000  C
  C108     1.0000 0.90860  0.83310  0.17627  Biso   1.000  C
  H93      1.0000 0.96390  0.65190  0.64800  Biso   1.000  H
  H94      1.0000 0.03610  0.15190  0.85200  Biso   1.000  H
  H95      1.0000 0.03610  0.34810  0.35200  Biso   1.000  H
  H96      1.0000 0.96390  0.84810  0.14800  Biso   1.000  H
  C109     1.0000 0.47570  0.85850  0.69512  Biso   1.000  C
  C110     1.0000 0.52430  0.35850  0.80488  Biso   1.000  C
  C111     1.0000 0.52430  0.14150  0.30488  Biso   1.000  C
  C112     1.0000 0.47570  0.64150  0.19512  Biso   1.000  C
  H97      1.0000 0.42980  0.88510  0.72150  Biso   1.000  H
  H98      1.0000 0.57020  0.38510  0.77850  Biso   1.000  H
  H99      1.0000 0.57020  0.11490  0.27850  Biso   1.000  H
  H100     1.0000 0.42980  0.61490  0.22150  Biso   1.000  H
  C113     1.0000 0.63080  0.87670  0.68436  Biso   1.000  C
  C114     1.0000 0.36920  0.37670  0.81564  Biso   1.000  C
  C115     1.0000 0.36920  0.12330  0.31564  Biso   1.000  C
  C116     1.0000 0.63080  0.62330  0.18436  Biso   1.000  C
  H101     1.0000 0.69010  0.91530  0.70310  Biso   1.000  H
  H102     1.0000 0.30990  0.41530  0.79690  Biso   1.000  H
  H103     1.0000 0.30990  0.08470  0.29690  Biso   1.000  H
  H104     1.0000 0.69010  0.58470  0.20310  Biso   1.000  H
  C117     1.0000 0.69720  0.83790  0.64619  Biso   1.000  C
  C118     1.0000 0.30280  0.33790  0.85381  Biso   1.000  C
  C119     1.0000 0.30280  0.16210  0.35381  Biso   1.000  C
  C120     1.0000 0.69720  0.66210  0.14619  Biso   1.000  C
  H105     1.0000 0.80340  0.84920  0.63850  Biso   1.000  H
  H106     1.0000 0.19660  0.34920  0.86150  Biso   1.000  H
  H107     1.0000 0.19660  0.15080  0.36150  Biso   1.000  H
  H108     1.0000 0.80340  0.65080  0.13850  Biso   1.000  H
  C121     1.0000 0.60990  0.78350  0.61970  Biso   1.000  C
  C122     1.0000 0.39010  0.28350  0.88030  Biso   1.000  C
  C123     1.0000 0.39010  0.21650  0.38030  Biso   1.000  C
  C124     1.0000 0.60990  0.71650  0.11970  Biso   1.000  C
  H109     1.0000 0.65350  0.75660  0.59300  Biso   1.000  H
  H110     1.0000 0.34650  0.25660  0.90700  Biso   1.000  H
  H111     1.0000 0.34650  0.24340  0.40700  Biso   1.000  H
  H112     1.0000 0.65350  0.74340  0.09300  Biso   1.000  H
  C125     1.0000 0.45530  0.76760  0.63234  Biso   1.000  C
  C126     1.0000 0.54470  0.26760  0.86766  Biso   1.000  C
  C127     1.0000 0.54470  0.23240  0.36766  Biso   1.000  C
  C128     1.0000 0.45530  0.73240  0.13234  Biso   1.000  C
  H113     1.0000 0.39460  0.72920  0.61390  Biso   1.000  H
  H114     1.0000 0.60540  0.22920  0.88610  Biso   1.000  H
  H115     1.0000 0.60540  0.27080  0.38610  Biso   1.000  H
  H116     1.0000 0.39460  0.77080  0.11390  Biso   1.000  H
  N1       1.0000 0.10020  0.90780  0.69600  Biso   1.000  N
  N2       1.0000 0.89980  0.40780  0.80400  Biso   1.000  N
  N3       1.0000 0.89980  0.09220  0.30400  Biso   1.000  N
  N4       1.0000 0.10020  0.59220  0.19600  Biso   1.000  N
  N5       1.0000 0.96850  0.72368  0.70614  Biso   1.000  N
  N6       1.0000 0.03150  0.22368  0.79386  Biso   1.000  N
  N7       1.0000 0.03150  0.27632  0.29386  Biso   1.000  N
  N8       1.0000 0.96850  0.77632  0.20614  Biso   1.000  N
  N9       1.0000 0.38930  0.80443  0.66930  Biso   1.000  N
  N10      1.0000 0.61070  0.30443  0.83070  Biso   1.000  N
  N11      1.0000 0.61070  0.19557  0.33070  Biso   1.000  N
  N12      1.0000 0.38930  0.69557  0.16930  Biso   1.000  N
  O1       1.0000 0.25330  0.77517  0.76175  Biso   1.000  O
  O2       1.0000 0.74670  0.27517  0.73825  Biso   1.000  O
  O3       1.0000 0.74670  0.22483  0.23825  Biso   1.000  O
  O4       1.0000 0.25330  0.72483  0.26175  Biso   1.000  O
  O5       1.0000 0.31060  0.65607  0.74117  Biso   1.000  O
  O6       1.0000 0.68940  0.15607  0.75883  Biso   1.000  O
  O7       1.0000 0.68940  0.34393  0.25883  Biso   1.000  O
  O8       1.0000 0.31060  0.84393  0.24117  Biso   1.000  O
  O9       1.0000 0.14360  0.81426  0.07869  Biso   1.000  O
  O10      1.0000 0.85640  0.31426  0.42131  Biso   1.000  O
  O11      1.0000 0.85640  0.18574  0.92131  Biso   1.000  O
  O12      1.0000 0.14360  0.68574  0.57869  Biso   1.000  O
  O13      1.0000 0.07200  0.70896  0.11863  Biso   1.000  O
  O14      1.0000 0.92800  0.20896  0.38137  Biso   1.000  O
  O15      1.0000 0.92800  0.29104  0.88137  Biso   1.000  O
  O16      1.0000 0.07200  0.79104  0.61863  Biso   1.000  O
  S1       1.0000 0.37040  0.76279  0.87290  Biso   1.000  S
  S2       1.0000 0.62960  0.26279  0.62710  Biso   1.000  S
  S3       1.0000 0.62960  0.23721  0.12710  Biso   1.000  S
  S4       1.0000 0.37040  0.73721  0.37290  Biso   1.000  S
  S5       1.0000 0.02022  0.76155  0.97385  Biso   1.000  S
  S6       1.0000 0.97978  0.26155  0.52615  Biso   1.000  S
  S7       1.0000 0.97978  0.23845  0.02615  Biso   1.000  S
  S8       1.0000 0.02022  0.73845  0.47385  Biso   1.000  S
  Cu1      1.0000 0.16783  0.77882  0.68907  Biso   1.000  Cu
  Cu2      1.0000 0.83217  0.27882  0.81093  Biso   1.000  Cu
  Cu3      1.0000 0.83217  0.22118  0.31093  Biso   1.000  Cu
  Cu4      1.0000 0.16783  0.72118  0.18907  Biso   1.000  Cu
  C129     1.0000 0.04600  0.94460  0.67220  Biso   1.000  C
  C130     1.0000 0.95400  0.44460  0.82780  Biso   1.000  C
  C131     1.0000 0.95400  0.05540  0.32780  Biso   1.000  C
  C132     1.0000 0.04600  0.55540  0.17220  Biso   1.000  C
  H117     1.0000 0.06450  0.93040  0.63840  Biso   1.000  H
  H118     1.0000 0.93550  0.43040  0.86160  Biso   1.000  H
  H119     1.0000 0.93550  0.06960  0.36160  Biso   1.000  H
  H120     1.0000 0.06450  0.56960  0.13840  Biso   1.000  H
  C133     1.0000 0.97200  0.01600  0.67840  Biso   1.000  C
  C134     1.0000 0.02800  0.51600  0.82160  Biso   1.000  C
  C135     1.0000 0.02800  0.98400  0.32160  Biso   1.000  C
  C136     1.0000 0.97200  0.48400  0.17840  Biso   1.000  C
  H121     1.0000 0.93930  0.04870  0.65060  Biso   1.000  H
  H122     1.0000 0.06070  0.54870  0.84940  Biso   1.000  H
  H123     1.0000 0.06070  0.95130  0.34940  Biso   1.000  H
  H124     1.0000 0.93930  0.45130  0.15060  Biso   1.000  H
  C137     1.0000 0.95100  0.03380  0.72890  Biso   1.000  C
  C138     1.0000 0.04900  0.53380  0.77110  Biso   1.000  C
  C139     1.0000 0.04900  0.96620  0.27110  Biso   1.000  C
  C140     1.0000 0.95100  0.46620  0.22890  Biso   1.000  C
  H125     1.0000 0.89520  0.07850  0.73670  Biso   1.000  H
  H126     1.0000 0.10480  0.57850  0.76330  Biso   1.000  H
  H127     1.0000 0.10480  0.92150  0.26330  Biso   1.000  H
  H128     1.0000 0.89520  0.42150  0.23670  Biso   1.000  H
  C141     1.0000 0.01300  0.98560  0.76790  Biso   1.000  C
  C142     1.0000 0.98700  0.48560  0.73210  Biso   1.000  C
  C143     1.0000 0.98700  0.01440  0.23210  Biso   1.000  C
  C144     1.0000 0.01300  0.51440  0.26790  Biso   1.000  C
  H129     1.0000 0.00680  0.99910  0.80270  Biso   1.000  H
  H130     1.0000 0.99320  0.49910  0.69730  Biso   1.000  H
  H131     1.0000 0.99320  0.00090  0.19730  Biso   1.000  H
  H132     1.0000 0.00680  0.50090  0.30270  Biso   1.000  H
  C145     1.0000 0.08200  0.92020  0.75630  Biso   1.000  C
  C146     1.0000 0.91800  0.42020  0.74370  Biso   1.000  C
  C147     1.0000 0.91800  0.07980  0.24370  Biso   1.000  C
  C148     1.0000 0.08200  0.57980  0.25630  Biso   1.000  C
  H133     1.0000 0.12620  0.88890  0.78360  Biso   1.000  H
  H134     1.0000 0.87380  0.38890  0.71640  Biso   1.000  H
  H135     1.0000 0.87380  0.11110  0.21640  Biso   1.000  H
  H136     1.0000 0.12620  0.61110  0.28360  Biso   1.000  H
  N13      1.0000 0.09100  0.89700  0.70860  Biso   1.000  N
  N14      1.0000 0.90900  0.39700  0.79140  Biso   1.000  N
  N15      1.0000 0.90900  0.10300  0.29140  Biso   1.000  N
  N16      1.0000 0.09100  0.60300  0.20860  Biso   1.000  N
  N17      1.0000 0.30440  0.93590  0.96360  Biso   1.000  N
  N18      1.0000 0.69560  0.43590  0.53640  Biso   1.000  N
  N19      1.0000 0.69560  0.06410  0.03640  Biso   1.000  N
  N20      1.0000 0.30440  0.56410  0.46360  Biso   1.000  N
  C149     1.0000 0.38940  0.97680  0.92990  Biso   1.000  C
  C150     1.0000 0.61060  0.47680  0.57010  Biso   1.000  C
  C151     1.0000 0.61060  0.02320  0.07010  Biso   1.000  C
  C152     1.0000 0.38940  0.52320  0.42990  Biso   1.000  C
  H137     1.0000 0.45730  0.95120  0.90860  Biso   1.000  H
  H138     1.0000 0.54270  0.45120  0.59140  Biso   1.000  H
  H139     1.0000 0.54270  0.04880  0.09140  Biso   1.000  H
  H140     1.0000 0.45730  0.54880  0.40860  Biso   1.000  H
  C153     1.0000 0.37510  0.05530  0.92750  Biso   1.000  C
  C154     1.0000 0.62490  0.55530  0.57250  Biso   1.000  C
  C155     1.0000 0.62490  0.94470  0.07250  Biso   1.000  C
  C156     1.0000 0.37510  0.44470  0.42750  Biso   1.000  C
  H141     1.0000 0.43320  0.08320  0.90450  Biso   1.000  H
  H142     1.0000 0.56680  0.58320  0.59550  Biso   1.000  H
  H143     1.0000 0.56680  0.91680  0.09550  Biso   1.000  H
  H144     1.0000 0.43320  0.41680  0.40450  Biso   1.000  H
  C157     1.0000 0.27570  0.09280  0.95860  Biso   1.000  C
  C158     1.0000 0.72430  0.59280  0.54140  Biso   1.000  C
  C159     1.0000 0.72430  0.90720  0.04140  Biso   1.000  C
  C160     1.0000 0.27570  0.40720  0.45860  Biso   1.000  C
  H145     1.0000 0.26600  0.14640  0.95690  Biso   1.000  H
  H146     1.0000 0.73400  0.64640  0.54310  Biso   1.000  H
  H147     1.0000 0.73400  0.85360  0.04310  Biso   1.000  H
  H148     1.0000 0.26600  0.35360  0.45690  Biso   1.000  H
  C161     1.0000 0.19070  0.05190  0.99230  Biso   1.000  C
  C162     1.0000 0.80930  0.55190  0.50770  Biso   1.000  C
  C163     1.0000 0.80930  0.94810  0.00770  Biso   1.000  C
  C164     1.0000 0.19070  0.44810  0.49230  Biso   1.000  C
  H149     1.0000 0.12290  0.07750  0.01360  Biso   1.000  H
  H150     1.0000 0.87710  0.57750  0.48640  Biso   1.000  H
  H151     1.0000 0.87710  0.92250  0.98640  Biso   1.000  H
  H152     1.0000 0.12290  0.42250  0.51360  Biso   1.000  H
  C165     1.0000 0.20510  0.97340  0.99480  Biso   1.000  C
  C166     1.0000 0.79490  0.47340  0.50520  Biso   1.000  C
  C167     1.0000 0.79490  0.02660  0.00520  Biso   1.000  C
  C168     1.0000 0.20510  0.52660  0.49480  Biso   1.000  C
  H153     1.0000 0.14700  0.94540  0.01780  Biso   1.000  H
  H154     1.0000 0.85300  0.44540  0.48220  Biso   1.000  H
  H155     1.0000 0.85300  0.05460  0.98220  Biso   1.000  H
  H156     1.0000 0.14700  0.55460  0.51780  Biso   1.000  H
  C169     1.0000 0.34770  0.40900  0.67670  Biso   1.000  C
  C170     1.0000 0.65230  0.90900  0.82330  Biso   1.000  C
  C171     1.0000 0.65230  0.59100  0.32330  Biso   1.000  C
  C172     1.0000 0.34770  0.09100  0.17670  Biso   1.000  C
  H157     1.0000 0.42920  0.37720  0.69300  Biso   1.000  H
  H158     1.0000 0.57080  0.87720  0.80700  Biso   1.000  H
  H159     1.0000 0.57080  0.62280  0.30700  Biso   1.000  H
  H160     1.0000 0.42920  0.12280  0.19300  Biso   1.000  H
  C173     1.0000 0.37540  0.48510  0.67730  Biso   1.000  C
  C174     1.0000 0.62460  0.98510  0.82270  Biso   1.000  C
  C175     1.0000 0.62460  0.51490  0.32270  Biso   1.000  C
  C176     1.0000 0.37540  0.01490  0.17730  Biso   1.000  C
  H161     1.0000 0.46730  0.50480  0.69730  Biso   1.000  H
  H162     1.0000 0.53270  0.00480  0.80270  Biso   1.000  H
  H163     1.0000 0.53270  0.49520  0.30270  Biso   1.000  H
  H164     1.0000 0.46730  0.99520  0.19730  Biso   1.000  H
  C177     1.0000 0.11040  0.42330  0.63140  Biso   1.000  C
  C178     1.0000 0.88960  0.92330  0.86860  Biso   1.000  C
  C179     1.0000 0.88960  0.57670  0.36860  Biso   1.000  C
  C180     1.0000 0.11040  0.07670  0.13140  Biso   1.000  C
  H165     1.0000 0.00940  0.40330  0.61790  Biso   1.000  H
  H166     1.0000 0.99060  0.90330  0.88210  Biso   1.000  H
  H167     1.0000 0.99060  0.59670  0.38210  Biso   1.000  H
  H168     1.0000 0.00940  0.09670  0.11790  Biso   1.000  H
  C181     1.0000 0.14120  0.50180  0.62540  Biso   1.000  C
  C182     1.0000 0.85880  0.00180  0.87460  Biso   1.000  C
  C183     1.0000 0.85880  0.49820  0.37460  Biso   1.000  C
  C184     1.0000 0.14120  0.99820  0.12540  Biso   1.000  C
  H169     1.0000 0.06840  0.53220  0.60420  Biso   1.000  H
  H170     1.0000 0.93160  0.03220  0.89580  Biso   1.000  H
  H171     1.0000 0.93160  0.46780  0.39580  Biso   1.000  H
  H172     1.0000 0.06840  0.96780  0.10420  Biso   1.000  H
  C185     1.0000 0.27410  0.53270  0.65010  Biso   1.000  C
  C186     1.0000 0.72590  0.03270  0.84990  Biso   1.000  C
  C187     1.0000 0.72590  0.46730  0.34990  Biso   1.000  C
  C188     1.0000 0.27410  0.96730  0.15010  Biso   1.000  C
  H173     1.0000 0.29550  0.58550  0.64840  Biso   1.000  H
  H174     1.0000 0.70450  0.08550  0.85160  Biso   1.000  H
  H175     1.0000 0.70450  0.41450  0.35160  Biso   1.000  H
  H176     1.0000 0.29550  0.91450  0.14840  Biso   1.000  H
  N21      1.0000 0.21870  0.37690  0.65550  Biso   1.000  N
  N22      1.0000 0.78130  0.87690  0.84450  Biso   1.000  N
  N23      1.0000 0.78130  0.62310  0.34450  Biso   1.000  N
  N24      1.0000 0.21870  0.12310  0.15550  Biso   1.000  N
