data_image0
_cell_length_a       40.04
_cell_length_b       40.04
_cell_length_c       3.674
_cell_angle_alpha    90
_cell_angle_beta     90
_cell_angle_gamma    120

_symmetry_space_group_name_H-M    "P 1"
_symmetry_int_tables_number       1

loop_
  _symmetry_equiv_pos_as_xyz
  'x, y, z'

loop_
  _atom_site_label
  _atom_site_occupancy
  _atom_site_fract_x
  _atom_site_fract_y
  _atom_site_fract_z
  _atom_site_thermal_displace_type
  _atom_site_B_iso_or_equiv
  _atom_site_type_symbol
  Cu1      1.0000 0.46008  0.47767  0.85105  Biso   1.000  Cu
  Cu2      1.0000 0.52233  0.98241  0.85105  Biso   1.000  Cu
  Cu3      1.0000 0.01759  0.53992  0.85105  Biso   1.000  Cu
  Cu4      1.0000 0.12675  0.81100  0.18438  Biso   1.000  Cu
  Cu5      1.0000 0.18900  0.31574  0.18438  Biso   1.000  Cu
  Cu6      1.0000 0.68426  0.87325  0.18438  Biso   1.000  Cu
  Cu7      1.0000 0.79341  0.14434  0.51772  Biso   1.000  Cu
  Cu8      1.0000 0.85566  0.64908  0.51772  Biso   1.000  Cu
  Cu9      1.0000 0.35092  0.20659  0.51772  Biso   1.000  Cu
  Cu10     1.0000 0.53992  0.52233  0.14895  Biso   1.000  Cu
  Cu11     1.0000 0.47767  0.01759  0.14895  Biso   1.000  Cu
  Cu12     1.0000 0.98241  0.46008  0.14895  Biso   1.000  Cu
  Cu13     1.0000 0.20659  0.85566  0.48228  Biso   1.000  Cu
  Cu14     1.0000 0.14434  0.35092  0.48228  Biso   1.000  Cu
  Cu15     1.0000 0.64908  0.79341  0.48228  Biso   1.000  Cu
  Cu16     1.0000 0.87325  0.18900  0.81562  Biso   1.000  Cu
  Cu17     1.0000 0.81100  0.68426  0.81562  Biso   1.000  Cu
  Cu18     1.0000 0.31574  0.12675  0.81562  Biso   1.000  Cu
  O1       1.0000 0.42271  0.42556  0.86510  Biso   1.000  O
  O2       1.0000 0.57444  0.99715  0.86510  Biso   1.000  O
  O3       1.0000 0.00285  0.57729  0.86510  Biso   1.000  O
  O4       1.0000 0.08938  0.75889  0.19843  Biso   1.000  O
  O5       1.0000 0.24111  0.33048  0.19843  Biso   1.000  O
  O6       1.0000 0.66952  0.91062  0.19843  Biso   1.000  O
  O7       1.0000 0.75604  0.09223  0.53177  Biso   1.000  O
  O8       1.0000 0.90777  0.66382  0.53177  Biso   1.000  O
  O9       1.0000 0.33618  0.24396  0.53177  Biso   1.000  O
  O10      1.0000 0.57729  0.57444  0.13490  Biso   1.000  O
  O11      1.0000 0.42556  0.00285  0.13490  Biso   1.000  O
  O12      1.0000 0.99715  0.42271  0.13490  Biso   1.000  O
  O13      1.0000 0.24396  0.90777  0.46823  Biso   1.000  O
  O14      1.0000 0.09223  0.33618  0.46823  Biso   1.000  O
  O15      1.0000 0.66382  0.75604  0.46823  Biso   1.000  O
  O16      1.0000 0.91062  0.24111  0.80157  Biso   1.000  O
  O17      1.0000 0.75889  0.66952  0.80157  Biso   1.000  O
  O18      1.0000 0.33048  0.08938  0.80157  Biso   1.000  O
  O19      1.0000 0.49598  0.46919  0.14560  Biso   1.000  O
  O20      1.0000 0.53081  0.02679  0.14560  Biso   1.000  O
  O21      1.0000 0.97321  0.50402  0.14560  Biso   1.000  O
  O22      1.0000 0.16265  0.80252  0.47893  Biso   1.000  O
  O23      1.0000 0.19748  0.36012  0.47893  Biso   1.000  O
  O24      1.0000 0.63988  0.83735  0.47893  Biso   1.000  O
  O25      1.0000 0.82931  0.13586  0.81227  Biso   1.000  O
  O26      1.0000 0.86414  0.69346  0.81227  Biso   1.000  O
  O27      1.0000 0.30654  0.17069  0.81227  Biso   1.000  O
  O28      1.0000 0.50402  0.53081  0.85440  Biso   1.000  O
  O29      1.0000 0.46919  0.97321  0.85440  Biso   1.000  O
  O30      1.0000 0.02679  0.49598  0.85440  Biso   1.000  O
  O31      1.0000 0.17069  0.86414  0.18773  Biso   1.000  O
  O32      1.0000 0.13586  0.30654  0.18773  Biso   1.000  O
  O33      1.0000 0.69346  0.82931  0.18773  Biso   1.000  O
  O34      1.0000 0.83735  0.19748  0.52107  Biso   1.000  O
  O35      1.0000 0.80252  0.63988  0.52107  Biso   1.000  O
  O36      1.0000 0.36012  0.16265  0.52107  Biso   1.000  O
  O37      1.0000 0.56206  0.50880  0.53530  Biso   1.000  O
  O38      1.0000 0.49120  0.05326  0.53530  Biso   1.000  O
  O39      1.0000 0.94674  0.43794  0.53530  Biso   1.000  O
  O40      1.0000 0.22873  0.84213  0.86863  Biso   1.000  O
  O41      1.0000 0.15787  0.38659  0.86863  Biso   1.000  O
  O42      1.0000 0.61341  0.77127  0.86863  Biso   1.000  O
  O43      1.0000 0.89539  0.17547  0.20197  Biso   1.000  O
  O44      1.0000 0.82453  0.71993  0.20197  Biso   1.000  O
  O45      1.0000 0.28007  0.10461  0.20197  Biso   1.000  O
  O46      1.0000 0.43794  0.49120  0.46470  Biso   1.000  O
  O47      1.0000 0.50880  0.94674  0.46470  Biso   1.000  O
  O48      1.0000 0.05326  0.56206  0.46470  Biso   1.000  O
  O49      1.0000 0.10461  0.82453  0.79803  Biso   1.000  O
  O50      1.0000 0.17547  0.28007  0.79803  Biso   1.000  O
  O51      1.0000 0.71993  0.89539  0.79803  Biso   1.000  O
  O52      1.0000 0.77127  0.15787  0.13137  Biso   1.000  O
  O53      1.0000 0.84213  0.61341  0.13137  Biso   1.000  O
  O54      1.0000 0.38659  0.22873  0.13137  Biso   1.000  O
  O55      1.0000 0.49598  0.33601  0.44890  Biso   1.000  O
  O56      1.0000 0.66399  0.15997  0.44890  Biso   1.000  O
  O57      1.0000 0.84003  0.50402  0.44890  Biso   1.000  O
  O58      1.0000 0.16265  0.66934  0.78223  Biso   1.000  O
  O59      1.0000 0.33066  0.49330  0.78223  Biso   1.000  O
  O60      1.0000 0.50670  0.83735  0.78223  Biso   1.000  O
  O61      1.0000 0.82931  0.00268  0.11557  Biso   1.000  O
  O62      1.0000 0.99732  0.82664  0.11557  Biso   1.000  O
  O63      1.0000 0.17336  0.17069  0.11557  Biso   1.000  O
  O64      1.0000 0.50402  0.66399  0.55110  Biso   1.000  O
  O65      1.0000 0.33601  0.84003  0.55110  Biso   1.000  O
  O66      1.0000 0.15997  0.49598  0.55110  Biso   1.000  O
  O67      1.0000 0.17069  0.99732  0.88443  Biso   1.000  O
  O68      1.0000 0.00268  0.17336  0.88443  Biso   1.000  O
  O69      1.0000 0.82664  0.82931  0.88443  Biso   1.000  O
  O70      1.0000 0.83735  0.33066  0.21777  Biso   1.000  O
  O71      1.0000 0.66934  0.50670  0.21777  Biso   1.000  O
  O72      1.0000 0.49330  0.16265  0.21777  Biso   1.000  O
  C1       1.0000 0.42680  0.39735  0.99240  Biso   1.000  C
  C2       1.0000 0.60265  0.02945  0.99240  Biso   1.000  C
  C3       1.0000 0.97055  0.57320  0.99240  Biso   1.000  C
  C4       1.0000 0.09347  0.73068  0.32573  Biso   1.000  C
  C5       1.0000 0.26932  0.36278  0.32573  Biso   1.000  C
  C6       1.0000 0.63722  0.90653  0.32573  Biso   1.000  C
  C7       1.0000 0.76013  0.06402  0.65907  Biso   1.000  C
  C8       1.0000 0.93598  0.69612  0.65907  Biso   1.000  C
  C9       1.0000 0.30388  0.23987  0.65907  Biso   1.000  C
  C10      1.0000 0.57320  0.60265  0.00760  Biso   1.000  C
  C11      1.0000 0.39735  0.97055  0.00760  Biso   1.000  C
  C12      1.0000 0.02945  0.42680  0.00760  Biso   1.000  C
  C13      1.0000 0.23987  0.93598  0.34093  Biso   1.000  C
  C14      1.0000 0.06402  0.30388  0.34093  Biso   1.000  C
  C15      1.0000 0.69612  0.76013  0.34093  Biso   1.000  C
  C16      1.0000 0.90653  0.26932  0.67427  Biso   1.000  C
  C17      1.0000 0.73068  0.63722  0.67427  Biso   1.000  C
  C18      1.0000 0.36278  0.09347  0.67427  Biso   1.000  C
  C19      1.0000 0.39364  0.35966  0.95250  Biso   1.000  C
  C20      1.0000 0.64034  0.03398  0.95250  Biso   1.000  C
  C21      1.0000 0.96602  0.60636  0.95250  Biso   1.000  C
  C22      1.0000 0.06031  0.69299  0.28583  Biso   1.000  C
  C23      1.0000 0.30701  0.36731  0.28583  Biso   1.000  C
  C24      1.0000 0.63269  0.93969  0.28583  Biso   1.000  C
  C25      1.0000 0.72697  0.02633  0.61917  Biso   1.000  C
  C26      1.0000 0.97367  0.70065  0.61917  Biso   1.000  C
  C27      1.0000 0.29935  0.27303  0.61917  Biso   1.000  C
  C28      1.0000 0.60636  0.64034  0.04750  Biso   1.000  C
  C29      1.0000 0.35966  0.96602  0.04750  Biso   1.000  C
  C30      1.0000 0.03398  0.39364  0.04750  Biso   1.000  C
  C31      1.0000 0.27303  0.97367  0.38083  Biso   1.000  C
  C32      1.0000 0.02633  0.29935  0.38083  Biso   1.000  C
  C33      1.0000 0.70065  0.72697  0.38083  Biso   1.000  C
  C34      1.0000 0.93969  0.30701  0.71417  Biso   1.000  C
  C35      1.0000 0.69299  0.63269  0.71417  Biso   1.000  C
  C36      1.0000 0.36731  0.06031  0.71417  Biso   1.000  C
  H1       1.0000 0.37130  0.35740  0.85170  Biso   1.000  H
  H2       1.0000 0.64260  0.01390  0.85170  Biso   1.000  H
  H3       1.0000 0.98610  0.62870  0.85170  Biso   1.000  H
  H4       1.0000 0.03797  0.69073  0.18503  Biso   1.000  H
  H5       1.0000 0.30927  0.34723  0.18503  Biso   1.000  H
  H6       1.0000 0.65277  0.96203  0.18503  Biso   1.000  H
  H7       1.0000 0.70463  0.02407  0.51837  Biso   1.000  H
  H8       1.0000 0.97593  0.68057  0.51837  Biso   1.000  H
  H9       1.0000 0.31943  0.29537  0.51837  Biso   1.000  H
  H10      1.0000 0.62870  0.64260  0.14830  Biso   1.000  H
  H11      1.0000 0.35740  0.98610  0.14830  Biso   1.000  H
  H12      1.0000 0.01390  0.37130  0.14830  Biso   1.000  H
  H13      1.0000 0.29537  0.97593  0.48163  Biso   1.000  H
  H14      1.0000 0.02407  0.31943  0.48163  Biso   1.000  H
  H15      1.0000 0.68057  0.70463  0.48163  Biso   1.000  H
  H16      1.0000 0.96203  0.30927  0.81497  Biso   1.000  H
  H17      1.0000 0.69073  0.65277  0.81497  Biso   1.000  H
  H18      1.0000 0.34723  0.03797  0.81497  Biso   1.000  H
  C37      1.0000 0.39391  0.32690  0.05820  Biso   1.000  C
  C38      1.0000 0.67310  0.06701  0.05820  Biso   1.000  C
  C39      1.0000 0.93299  0.60609  0.05820  Biso   1.000  C
  C40      1.0000 0.06058  0.66023  0.39153  Biso   1.000  C
  C41      1.0000 0.33977  0.40034  0.39153  Biso   1.000  C
  C42      1.0000 0.59966  0.93942  0.39153  Biso   1.000  C
  C43      1.0000 0.72724  0.99357  0.72487  Biso   1.000  C
  C44      1.0000 0.00643  0.73368  0.72487  Biso   1.000  C
  C45      1.0000 0.26632  0.27276  0.72487  Biso   1.000  C
  C46      1.0000 0.60609  0.67310  0.94180  Biso   1.000  C
  C47      1.0000 0.32690  0.93299  0.94180  Biso   1.000  C
  C48      1.0000 0.06701  0.39391  0.94180  Biso   1.000  C
  C49      1.0000 0.27276  0.00643  0.27513  Biso   1.000  C
  C50      1.0000 0.99357  0.26632  0.27513  Biso   1.000  C
  C51      1.0000 0.73368  0.72724  0.27513  Biso   1.000  C
  C52      1.0000 0.93942  0.33977  0.60847  Biso   1.000  C
  C53      1.0000 0.66023  0.59966  0.60847  Biso   1.000  C
  C54      1.0000 0.40034  0.06058  0.60847  Biso   1.000  C
  H19      1.0000 0.37190  0.30290  0.02970  Biso   1.000  H
  H20      1.0000 0.69710  0.06900  0.02970  Biso   1.000  H
  H21      1.0000 0.93100  0.62810  0.02970  Biso   1.000  H
  H22      1.0000 0.03857  0.63623  0.36303  Biso   1.000  H
  H23      1.0000 0.36377  0.40233  0.36303  Biso   1.000  H
  H24      1.0000 0.59767  0.96143  0.36303  Biso   1.000  H
  H25      1.0000 0.70523  0.96957  0.69637  Biso   1.000  H
  H26      1.0000 0.03043  0.73567  0.69637  Biso   1.000  H
  H27      1.0000 0.26433  0.29477  0.69637  Biso   1.000  H
  H28      1.0000 0.62810  0.69710  0.97030  Biso   1.000  H
  H29      1.0000 0.30290  0.93100  0.97030  Biso   1.000  H
  H30      1.0000 0.06900  0.37190  0.97030  Biso   1.000  H
  H31      1.0000 0.29477  0.03043  0.30363  Biso   1.000  H
  H32      1.0000 0.96957  0.26433  0.30363  Biso   1.000  H
  H33      1.0000 0.73567  0.70523  0.30363  Biso   1.000  H
  H34      1.0000 0.96143  0.36377  0.63697  Biso   1.000  H
  H35      1.0000 0.63623  0.59767  0.63697  Biso   1.000  H
  H36      1.0000 0.40233  0.03857  0.63697  Biso   1.000  H
  C55      1.0000 0.42754  0.32973  0.21010  Biso   1.000  C
  C56      1.0000 0.67027  0.09781  0.21010  Biso   1.000  C
  C57      1.0000 0.90219  0.57246  0.21010  Biso   1.000  C
  C58      1.0000 0.09421  0.66306  0.54343  Biso   1.000  C
  C59      1.0000 0.33694  0.43114  0.54343  Biso   1.000  C
  C60      1.0000 0.56886  0.90579  0.54343  Biso   1.000  C
  C61      1.0000 0.76087  0.99640  0.87677  Biso   1.000  C
  C62      1.0000 0.00360  0.76448  0.87677  Biso   1.000  C
  C63      1.0000 0.23552  0.23913  0.87677  Biso   1.000  C
  C64      1.0000 0.57246  0.67027  0.78990  Biso   1.000  C
  C65      1.0000 0.32973  0.90219  0.78990  Biso   1.000  C
  C66      1.0000 0.09781  0.42754  0.78990  Biso   1.000  C
  C67      1.0000 0.23913  0.00360  0.12323  Biso   1.000  C
  C68      1.0000 0.99640  0.23552  0.12323  Biso   1.000  C
  C69      1.0000 0.76448  0.76087  0.12323  Biso   1.000  C
  C70      1.0000 0.90579  0.33694  0.45657  Biso   1.000  C
  C71      1.0000 0.66306  0.56886  0.45657  Biso   1.000  C
  C72      1.0000 0.43114  0.09421  0.45657  Biso   1.000  C
  H37      1.0000 0.42780  0.30750  0.27870  Biso   1.000  H
  H38      1.0000 0.69250  0.12030  0.27870  Biso   1.000  H
  H39      1.0000 0.87970  0.57220  0.27870  Biso   1.000  H
  H40      1.0000 0.09447  0.64083  0.61203  Biso   1.000  H
  H41      1.0000 0.35917  0.45363  0.61203  Biso   1.000  H
  H42      1.0000 0.54637  0.90553  0.61203  Biso   1.000  H
  H43      1.0000 0.76113  0.97417  0.94537  Biso   1.000  H
  H44      1.0000 0.02583  0.78697  0.94537  Biso   1.000  H
  H45      1.0000 0.21303  0.23887  0.94537  Biso   1.000  H
  H46      1.0000 0.57220  0.69250  0.72130  Biso   1.000  H
  H47      1.0000 0.30750  0.87970  0.72130  Biso   1.000  H
  H48      1.0000 0.12030  0.42780  0.72130  Biso   1.000  H
  H49      1.0000 0.23887  0.02583  0.05463  Biso   1.000  H
  H50      1.0000 0.97417  0.21303  0.05463  Biso   1.000  H
  H51      1.0000 0.78697  0.76113  0.05463  Biso   1.000  H
  H52      1.0000 0.90553  0.35917  0.38797  Biso   1.000  H
  H53      1.0000 0.64083  0.54637  0.38797  Biso   1.000  H
  H54      1.0000 0.45363  0.09447  0.38797  Biso   1.000  H
  C73      1.0000 0.46002  0.36518  0.25760  Biso   1.000  C
  C74      1.0000 0.63482  0.09484  0.25760  Biso   1.000  C
  C75      1.0000 0.90516  0.53998  0.25760  Biso   1.000  C
  C76      1.0000 0.12669  0.69851  0.59093  Biso   1.000  C
  C77      1.0000 0.30149  0.42817  0.59093  Biso   1.000  C
  C78      1.0000 0.57183  0.87331  0.59093  Biso   1.000  C
  C79      1.0000 0.79335  0.03185  0.92427  Biso   1.000  C
  C80      1.0000 0.96815  0.76151  0.92427  Biso   1.000  C
  C81      1.0000 0.23849  0.20665  0.92427  Biso   1.000  C
  C82      1.0000 0.53998  0.63482  0.74240  Biso   1.000  C
  C83      1.0000 0.36518  0.90516  0.74240  Biso   1.000  C
  C84      1.0000 0.09484  0.46002  0.74240  Biso   1.000  C
  C85      1.0000 0.20665  0.96815  0.07573  Biso   1.000  C
  C86      1.0000 0.03185  0.23849  0.07573  Biso   1.000  C
  C87      1.0000 0.76151  0.79335  0.07573  Biso   1.000  C
  C88      1.0000 0.87331  0.30149  0.40907  Biso   1.000  C
  C89      1.0000 0.69851  0.57183  0.40907  Biso   1.000  C
  C90      1.0000 0.42817  0.12669  0.40907  Biso   1.000  C
  C91      1.0000 0.49471  0.36607  0.40710  Biso   1.000  C
  C92      1.0000 0.63393  0.12864  0.40710  Biso   1.000  C
  C93      1.0000 0.87136  0.50529  0.40710  Biso   1.000  C
  C94      1.0000 0.16138  0.69940  0.74043  Biso   1.000  C
  C95      1.0000 0.30060  0.46197  0.74043  Biso   1.000  C
  C96      1.0000 0.53803  0.83862  0.74043  Biso   1.000  C
  C97      1.0000 0.82804  0.03274  0.07377  Biso   1.000  C
  C98      1.0000 0.96726  0.79531  0.07377  Biso   1.000  C
  C99      1.0000 0.20469  0.17196  0.07377  Biso   1.000  C
  C100     1.0000 0.50529  0.63393  0.59290  Biso   1.000  C
  C101     1.0000 0.36607  0.87136  0.59290  Biso   1.000  C
  C102     1.0000 0.12864  0.49471  0.59290  Biso   1.000  C
  C103     1.0000 0.17196  0.96726  0.92623  Biso   1.000  C
  C104     1.0000 0.03274  0.20469  0.92623  Biso   1.000  C
  C105     1.0000 0.79531  0.82804  0.92623  Biso   1.000  C
  C106     1.0000 0.83862  0.30060  0.25957  Biso   1.000  C
  C107     1.0000 0.69940  0.53803  0.25957  Biso   1.000  C
  C108     1.0000 0.46197  0.16138  0.25957  Biso   1.000  C
  C109     1.0000 0.52785  0.40402  0.50770  Biso   1.000  C
  C110     1.0000 0.59598  0.12383  0.50770  Biso   1.000  C
  C111     1.0000 0.87617  0.47215  0.50770  Biso   1.000  C
  C112     1.0000 0.19452  0.73735  0.84103  Biso   1.000  C
  C113     1.0000 0.26265  0.45716  0.84103  Biso   1.000  C
  C114     1.0000 0.54284  0.80548  0.84103  Biso   1.000  C
  C115     1.0000 0.86118  0.07069  0.17437  Biso   1.000  C
  C116     1.0000 0.92931  0.79050  0.17437  Biso   1.000  C
  C117     1.0000 0.20950  0.13882  0.17437  Biso   1.000  C
  C118     1.0000 0.47215  0.59598  0.49230  Biso   1.000  C
  C119     1.0000 0.40402  0.87617  0.49230  Biso   1.000  C
  C120     1.0000 0.12383  0.52785  0.49230  Biso   1.000  C
  C121     1.0000 0.13882  0.92931  0.82563  Biso   1.000  C
  C122     1.0000 0.07069  0.20950  0.82563  Biso   1.000  C
  C123     1.0000 0.79050  0.86118  0.82563  Biso   1.000  C
  C124     1.0000 0.80548  0.26265  0.15897  Biso   1.000  C
  C125     1.0000 0.73735  0.54284  0.15897  Biso   1.000  C
  C126     1.0000 0.45716  0.19452  0.15897  Biso   1.000  C
  C127     1.0000 0.55876  0.40435  0.68160  Biso   1.000  C
  C128     1.0000 0.59565  0.15441  0.68160  Biso   1.000  C
  C129     1.0000 0.84559  0.44124  0.68160  Biso   1.000  C
  C130     1.0000 0.22543  0.73768  0.01493  Biso   1.000  C
  C131     1.0000 0.26232  0.48774  0.01493  Biso   1.000  C
  C132     1.0000 0.51226  0.77457  0.01493  Biso   1.000  C
  C133     1.0000 0.89209  0.07102  0.34827  Biso   1.000  C
  C134     1.0000 0.92898  0.82108  0.34827  Biso   1.000  C
  C135     1.0000 0.17892  0.10791  0.34827  Biso   1.000  C
  C136     1.0000 0.44124  0.59565  0.31840  Biso   1.000  C
  C137     1.0000 0.40435  0.84559  0.31840  Biso   1.000  C
  C138     1.0000 0.15441  0.55876  0.31840  Biso   1.000  C
  C139     1.0000 0.10791  0.92898  0.65173  Biso   1.000  C
  C140     1.0000 0.07102  0.17892  0.65173  Biso   1.000  C
  C141     1.0000 0.82108  0.89209  0.65173  Biso   1.000  C
  C142     1.0000 0.77457  0.26232  0.98507  Biso   1.000  C
  C143     1.0000 0.73768  0.51226  0.98507  Biso   1.000  C
  C144     1.0000 0.48774  0.22543  0.98507  Biso   1.000  C
  H55      1.0000 0.55880  0.38140  0.72130  Biso   1.000  H
  H56      1.0000 0.61860  0.17740  0.72130  Biso   1.000  H
  H57      1.0000 0.82260  0.44120  0.72130  Biso   1.000  H
  H58      1.0000 0.22547  0.71473  0.05463  Biso   1.000  H
  H59      1.0000 0.28527  0.51073  0.05463  Biso   1.000  H
  H60      1.0000 0.48927  0.77453  0.05463  Biso   1.000  H
  H61      1.0000 0.89213  0.04807  0.38797  Biso   1.000  H
  H62      1.0000 0.95193  0.84407  0.38797  Biso   1.000  H
  H63      1.0000 0.15593  0.10787  0.38797  Biso   1.000  H
  H64      1.0000 0.44120  0.61860  0.27870  Biso   1.000  H
  H65      1.0000 0.38140  0.82260  0.27870  Biso   1.000  H
  H66      1.0000 0.17740  0.55880  0.27870  Biso   1.000  H
  H67      1.0000 0.10787  0.95193  0.61203  Biso   1.000  H
  H68      1.0000 0.04807  0.15593  0.61203  Biso   1.000  H
  H69      1.0000 0.84407  0.89213  0.61203  Biso   1.000  H
  H70      1.0000 0.77453  0.28527  0.94537  Biso   1.000  H
  H71      1.0000 0.71473  0.48927  0.94537  Biso   1.000  H
  H72      1.0000 0.51073  0.22547  0.94537  Biso   1.000  H
  C145     1.0000 0.59029  0.43986  0.79800  Biso   1.000  C
  C146     1.0000 0.56014  0.15043  0.79800  Biso   1.000  C
  C147     1.0000 0.84957  0.40971  0.79800  Biso   1.000  C
  C148     1.0000 0.25696  0.77319  0.13133  Biso   1.000  C
  C149     1.0000 0.22681  0.48376  0.13133  Biso   1.000  C
  C150     1.0000 0.51624  0.74304  0.13133  Biso   1.000  C
  C151     1.0000 0.92362  0.10653  0.46467  Biso   1.000  C
  C152     1.0000 0.89347  0.81710  0.46467  Biso   1.000  C
  C153     1.0000 0.18290  0.07638  0.46467  Biso   1.000  C
  C154     1.0000 0.40971  0.56014  0.20200  Biso   1.000  C
  C155     1.0000 0.43986  0.84957  0.20200  Biso   1.000  C
  C156     1.0000 0.15043  0.59029  0.20200  Biso   1.000  C
  C157     1.0000 0.07638  0.89347  0.53533  Biso   1.000  C
  C158     1.0000 0.10653  0.18290  0.53533  Biso   1.000  C
  C159     1.0000 0.81710  0.92362  0.53533  Biso   1.000  C
  C160     1.0000 0.74304  0.22681  0.86867  Biso   1.000  C
  C161     1.0000 0.77319  0.51624  0.86867  Biso   1.000  C
  C162     1.0000 0.48376  0.25696  0.86867  Biso   1.000  C
  H73      1.0000 0.61130  0.44030  0.91040  Biso   1.000  H
  H74      1.0000 0.55970  0.17100  0.91040  Biso   1.000  H
  H75      1.0000 0.82900  0.38870  0.91040  Biso   1.000  H
  H76      1.0000 0.27797  0.77363  0.24373  Biso   1.000  H
  H77      1.0000 0.22637  0.50433  0.24373  Biso   1.000  H
  H78      1.0000 0.49567  0.72203  0.24373  Biso   1.000  H
  H79      1.0000 0.94463  0.10697  0.57707  Biso   1.000  H
  H80      1.0000 0.89303  0.83767  0.57707  Biso   1.000  H
  H81      1.0000 0.16233  0.05537  0.57707  Biso   1.000  H
  H82      1.0000 0.38870  0.55970  0.08960  Biso   1.000  H
  H83      1.0000 0.44030  0.82900  0.08960  Biso   1.000  H
  H84      1.0000 0.17100  0.61130  0.08960  Biso   1.000  H
  H85      1.0000 0.05537  0.89303  0.42293  Biso   1.000  H
  H86      1.0000 0.10697  0.16233  0.42293  Biso   1.000  H
  H87      1.0000 0.83767  0.94463  0.42293  Biso   1.000  H
  H88      1.0000 0.72203  0.22637  0.75627  Biso   1.000  H
  H89      1.0000 0.77363  0.49567  0.75627  Biso   1.000  H
  H90      1.0000 0.50433  0.27797  0.75627  Biso   1.000  H
  C163     1.0000 0.58993  0.47341  0.74580  Biso   1.000  C
  C164     1.0000 0.52659  0.11652  0.74580  Biso   1.000  C
  C165     1.0000 0.88348  0.41007  0.74580  Biso   1.000  C
  C166     1.0000 0.25660  0.80674  0.07913  Biso   1.000  C
  C167     1.0000 0.19326  0.44985  0.07913  Biso   1.000  C
  C168     1.0000 0.55015  0.74340  0.07913  Biso   1.000  C
  C169     1.0000 0.92326  0.14008  0.41247  Biso   1.000  C
  C170     1.0000 0.85992  0.78319  0.41247  Biso   1.000  C
  C171     1.0000 0.21681  0.07674  0.41247  Biso   1.000  C
  C172     1.0000 0.41007  0.52659  0.25420  Biso   1.000  C
  C173     1.0000 0.47341  0.88348  0.25420  Biso   1.000  C
  C174     1.0000 0.11652  0.58993  0.25420  Biso   1.000  C
  C175     1.0000 0.07674  0.85992  0.58753  Biso   1.000  C
  C176     1.0000 0.14008  0.21681  0.58753  Biso   1.000  C
  C177     1.0000 0.78319  0.92326  0.58753  Biso   1.000  C
  C178     1.0000 0.74340  0.19326  0.92087  Biso   1.000  C
  C179     1.0000 0.80674  0.55015  0.92087  Biso   1.000  C
  C180     1.0000 0.44985  0.25660  0.92087  Biso   1.000  C
  H91      1.0000 0.61040  0.49630  0.83280  Biso   1.000  H
  H92      1.0000 0.50370  0.11410  0.83280  Biso   1.000  H
  H93      1.0000 0.88590  0.38960  0.83280  Biso   1.000  H
  H94      1.0000 0.27707  0.82963  0.16613  Biso   1.000  H
  H95      1.0000 0.17037  0.44743  0.16613  Biso   1.000  H
  H96      1.0000 0.55257  0.72293  0.16613  Biso   1.000  H
  H97      1.0000 0.94373  0.16297  0.49947  Biso   1.000  H
  H98      1.0000 0.83703  0.78077  0.49947  Biso   1.000  H
  H99      1.0000 0.21923  0.05627  0.49947  Biso   1.000  H
  H100     1.0000 0.38960  0.50370  0.16720  Biso   1.000  H
  H101     1.0000 0.49630  0.88590  0.16720  Biso   1.000  H
  H102     1.0000 0.11410  0.61040  0.16720  Biso   1.000  H
  H103     1.0000 0.05627  0.83703  0.50053  Biso   1.000  H
  H104     1.0000 0.16297  0.21923  0.50053  Biso   1.000  H
  H105     1.0000 0.78077  0.94373  0.50053  Biso   1.000  H
  H106     1.0000 0.72293  0.17037  0.83387  Biso   1.000  H
  H107     1.0000 0.82963  0.55257  0.83387  Biso   1.000  H
  H108     1.0000 0.44743  0.27707  0.83387  Biso   1.000  H
  C181     1.0000 0.55920  0.47435  0.56260  Biso   1.000  C
  C182     1.0000 0.52565  0.08485  0.56260  Biso   1.000  C
  C183     1.0000 0.91515  0.44080  0.56260  Biso   1.000  C
  C184     1.0000 0.22587  0.80768  0.89593  Biso   1.000  C
  C185     1.0000 0.19232  0.41818  0.89593  Biso   1.000  C
  C186     1.0000 0.58182  0.77413  0.89593  Biso   1.000  C
  C187     1.0000 0.89253  0.14102  0.22927  Biso   1.000  C
  C188     1.0000 0.85898  0.75152  0.22927  Biso   1.000  C
  C189     1.0000 0.24848  0.10747  0.22927  Biso   1.000  C
  C190     1.0000 0.44080  0.52565  0.43740  Biso   1.000  C
  C191     1.0000 0.47435  0.91515  0.43740  Biso   1.000  C
  C192     1.0000 0.08485  0.55920  0.43740  Biso   1.000  C
  C193     1.0000 0.10747  0.85898  0.77073  Biso   1.000  C
  C194     1.0000 0.14102  0.24848  0.77073  Biso   1.000  C
  C195     1.0000 0.75152  0.89253  0.77073  Biso   1.000  C
  C196     1.0000 0.77413  0.19232  0.10407  Biso   1.000  C
  C197     1.0000 0.80768  0.58182  0.10407  Biso   1.000  C
  C198     1.0000 0.41818  0.22587  0.10407  Biso   1.000  C
  C199     1.0000 0.52721  0.43894  0.43760  Biso   1.000  C
  C200     1.0000 0.56106  0.08827  0.43760  Biso   1.000  C
  C201     1.0000 0.91173  0.47279  0.43760  Biso   1.000  C
  C202     1.0000 0.19388  0.77227  0.77093  Biso   1.000  C
  C203     1.0000 0.22773  0.42160  0.77093  Biso   1.000  C
  C204     1.0000 0.57840  0.80612  0.77093  Biso   1.000  C
  C205     1.0000 0.86054  0.10561  0.10427  Biso   1.000  C
  C206     1.0000 0.89439  0.75494  0.10427  Biso   1.000  C
  C207     1.0000 0.24506  0.13946  0.10427  Biso   1.000  C
  C208     1.0000 0.47279  0.56106  0.56240  Biso   1.000  C
  C209     1.0000 0.43894  0.91173  0.56240  Biso   1.000  C
  C210     1.0000 0.08827  0.52721  0.56240  Biso   1.000  C
  C211     1.0000 0.13946  0.89439  0.89573  Biso   1.000  C
  C212     1.0000 0.10561  0.24506  0.89573  Biso   1.000  C
  C213     1.0000 0.75494  0.86054  0.89573  Biso   1.000  C
  C214     1.0000 0.80612  0.22773  0.22907  Biso   1.000  C
  C215     1.0000 0.77227  0.57840  0.22907  Biso   1.000  C
  C216     1.0000 0.42160  0.19388  0.22907  Biso   1.000  C
  C217     1.0000 0.49468  0.43679  0.24320  Biso   1.000  C
  C218     1.0000 0.56321  0.05789  0.24320  Biso   1.000  C
  C219     1.0000 0.94211  0.50532  0.24320  Biso   1.000  C
  C220     1.0000 0.16135  0.77012  0.57653  Biso   1.000  C
  C221     1.0000 0.22988  0.39122  0.57653  Biso   1.000  C
  C222     1.0000 0.60878  0.83865  0.57653  Biso   1.000  C
  C223     1.0000 0.82801  0.10346  0.90987  Biso   1.000  C
  C224     1.0000 0.89654  0.72456  0.90987  Biso   1.000  C
  C225     1.0000 0.27544  0.17199  0.90987  Biso   1.000  C
  C226     1.0000 0.50532  0.56321  0.75680  Biso   1.000  C
  C227     1.0000 0.43679  0.94211  0.75680  Biso   1.000  C
  C228     1.0000 0.05789  0.49468  0.75680  Biso   1.000  C
  C229     1.0000 0.17199  0.89654  0.09013  Biso   1.000  C
  C230     1.0000 0.10346  0.27544  0.09013  Biso   1.000  C
  C231     1.0000 0.72456  0.82801  0.09013  Biso   1.000  C
  C232     1.0000 0.83865  0.22988  0.42347  Biso   1.000  C
  C233     1.0000 0.77012  0.60878  0.42347  Biso   1.000  C
  C234     1.0000 0.39122  0.16135  0.42347  Biso   1.000  C
  C235     1.0000 0.46084  0.40044  0.16200  Biso   1.000  C
  C236     1.0000 0.59956  0.06040  0.16200  Biso   1.000  C
  C237     1.0000 0.93960  0.53916  0.16200  Biso   1.000  C
  C238     1.0000 0.12751  0.73377  0.49533  Biso   1.000  C
  C239     1.0000 0.26623  0.39373  0.49533  Biso   1.000  C
  C240     1.0000 0.60627  0.87249  0.49533  Biso   1.000  C
  C241     1.0000 0.79417  0.06711  0.82867  Biso   1.000  C
  C242     1.0000 0.93289  0.72707  0.82867  Biso   1.000  C
  C243     1.0000 0.27293  0.20583  0.82867  Biso   1.000  C
  C244     1.0000 0.53916  0.59956  0.83800  Biso   1.000  C
  C245     1.0000 0.40044  0.93960  0.83800  Biso   1.000  C
  C246     1.0000 0.06040  0.46084  0.83800  Biso   1.000  C
  C247     1.0000 0.20583  0.93289  0.17133  Biso   1.000  C
  C248     1.0000 0.06711  0.27293  0.17133  Biso   1.000  C
  C249     1.0000 0.72707  0.79417  0.17133  Biso   1.000  C
  C250     1.0000 0.87249  0.26623  0.50467  Biso   1.000  C
  C251     1.0000 0.73377  0.60627  0.50467  Biso   1.000  C
  C252     1.0000 0.39373  0.12751  0.50467  Biso   1.000  C
