data_image0
_cell_length_a       7.3894
_cell_length_b       12.0161
_cell_length_c       8.7541
_cell_angle_alpha    90
_cell_angle_beta     104.409
_cell_angle_gamma    90

_symmetry_space_group_name_H-M    "P 1"
_symmetry_int_tables_number       1

loop_
  _symmetry_equiv_pos_as_xyz
  'x, y, z'

loop_
  _atom_site_label
  _atom_site_occupancy
  _atom_site_fract_x
  _atom_site_fract_y
  _atom_site_fract_z
  _atom_site_thermal_displace_type
  _atom_site_B_iso_or_equiv
  _atom_site_type_symbol
  Mn1      1.0000 0.00000  0.00000  0.50000  Biso   1.000  Mn
  Mn2      1.0000 0.50000  0.50000  0.50000  Biso   1.000  Mn
  Cu1      1.0000 0.25000  0.75000  0.00000  Biso   1.000  Cu
  Cu2      1.0000 0.75000  0.75000  0.00000  Biso   1.000  Cu
  Cu3      1.0000 0.75000  0.25000  0.00000  Biso   1.000  Cu
  Cu4      1.0000 0.25000  0.25000  0.00000  Biso   1.000  Cu
  C1       1.0000 0.11860  0.85090  0.23630  Biso   1.000  C
  C2       1.0000 0.88140  0.85090  0.76370  Biso   1.000  C
  C3       1.0000 0.61860  0.35090  0.23630  Biso   1.000  C
  C4       1.0000 0.38140  0.35090  0.76370  Biso   1.000  C
  C5       1.0000 0.88140  0.14910  0.76370  Biso   1.000  C
  C6       1.0000 0.11860  0.14910  0.23630  Biso   1.000  C
  C7       1.0000 0.38140  0.64910  0.76370  Biso   1.000  C
  C8       1.0000 0.61860  0.64910  0.23630  Biso   1.000  C
  C9       1.0000 0.18800  0.94250  0.15180  Biso   1.000  C
  C10      1.0000 0.81200  0.94250  0.84820  Biso   1.000  C
  C11      1.0000 0.68800  0.44250  0.15180  Biso   1.000  C
  C12      1.0000 0.31200  0.44250  0.84820  Biso   1.000  C
  C13      1.0000 0.81200  0.05750  0.84820  Biso   1.000  C
  C14      1.0000 0.18800  0.05750  0.15180  Biso   1.000  C
  C15      1.0000 0.31200  0.55750  0.84820  Biso   1.000  C
  C16      1.0000 0.68800  0.55750  0.15180  Biso   1.000  C
  N1       1.0000 0.25300  0.91150  0.02740  Biso   1.000  N
  N2       1.0000 0.74700  0.91150  0.97260  Biso   1.000  N
  N3       1.0000 0.75300  0.41150  0.02740  Biso   1.000  N
  N4       1.0000 0.24700  0.41150  0.97260  Biso   1.000  N
  N5       1.0000 0.74700  0.08850  0.97260  Biso   1.000  N
  N6       1.0000 0.25300  0.08850  0.02740  Biso   1.000  N
  N7       1.0000 0.24700  0.58850  0.97260  Biso   1.000  N
  N8       1.0000 0.75300  0.58850  0.02740  Biso   1.000  N
  N9       1.0000 0.29320  0.00000  0.95140  Biso   1.000  N
  N10      1.0000 0.70680  0.00000  0.04860  Biso   1.000  N
  N11      1.0000 0.79320  0.50000  0.95140  Biso   1.000  N
  N12      1.0000 0.20680  0.50000  0.04860  Biso   1.000  N
  O1       1.0000 0.70820  0.00000  0.37530  Biso   1.000  O
  O2       1.0000 0.29180  0.00000  0.62470  Biso   1.000  O
  O3       1.0000 0.20820  0.50000  0.37530  Biso   1.000  O
  O4       1.0000 0.79180  0.50000  0.62470  Biso   1.000  O
  H1       1.0000 0.65950  0.05910  0.40120  Biso   1.000  H
  H2       1.0000 0.34050  0.05910  0.59880  Biso   1.000  H
  H3       1.0000 0.15950  0.55910  0.40120  Biso   1.000  H
  H4       1.0000 0.84050  0.55910  0.59880  Biso   1.000  H
  H5       1.0000 0.34050  0.94090  0.59880  Biso   1.000  H
  H6       1.0000 0.65950  0.94090  0.40120  Biso   1.000  H
  H7       1.0000 0.84050  0.44090  0.59880  Biso   1.000  H
  H8       1.0000 0.15950  0.44090  0.40120  Biso   1.000  H
  H9       1.0000 0.68980  0.00000  0.27460  Biso   1.000  H
  H10      1.0000 0.31020  0.00000  0.72540  Biso   1.000  H
  H11      1.0000 0.18980  0.50000  0.27460  Biso   1.000  H
  H12      1.0000 0.81020  0.50000  0.72540  Biso   1.000  H
  O5       1.0000 0.12420  0.75470  0.17430  Biso   1.000  O
  O6       1.0000 0.87580  0.75470  0.82570  Biso   1.000  O
  O7       1.0000 0.62420  0.25470  0.17430  Biso   1.000  O
  O8       1.0000 0.37580  0.25470  0.82570  Biso   1.000  O
  O9       1.0000 0.87580  0.24530  0.82570  Biso   1.000  O
  O10      1.0000 0.12420  0.24530  0.17430  Biso   1.000  O
  O11      1.0000 0.37580  0.74530  0.82570  Biso   1.000  O
  O12      1.0000 0.62420  0.74530  0.17430  Biso   1.000  O
  O13      1.0000 0.05270  0.86810  0.35020  Biso   1.000  O
  O14      1.0000 0.94730  0.86810  0.64980  Biso   1.000  O
  O15      1.0000 0.55270  0.36810  0.35020  Biso   1.000  O
  O16      1.0000 0.44730  0.36810  0.64980  Biso   1.000  O
  O17      1.0000 0.94730  0.13190  0.64980  Biso   1.000  O
  O18      1.0000 0.05270  0.13190  0.35020  Biso   1.000  O
  O19      1.0000 0.44730  0.63190  0.64980  Biso   1.000  O
  O20      1.0000 0.55270  0.63190  0.35020  Biso   1.000  O
  O21      1.0000 0.50000  0.85150  0.50000  Biso   1.000  O
  O22      1.0000 0.00000  0.35150  0.50000  Biso   1.000  O
  O23      1.0000 0.50000  0.14850  0.50000  Biso   1.000  O
  O24      1.0000 0.00000  0.64850  0.50000  Biso   1.000  O
  H13      1.0000 0.53130  0.89780  0.43690  Biso   1.000  H
  H14      1.0000 0.46870  0.89780  0.56310  Biso   1.000  H
  H15      1.0000 0.03130  0.39780  0.43690  Biso   1.000  H
  H16      1.0000 0.96870  0.39780  0.56310  Biso   1.000  H
  H17      1.0000 0.46870  0.10220  0.56310  Biso   1.000  H
  H18      1.0000 0.53130  0.10220  0.43690  Biso   1.000  H
  H19      1.0000 0.96870  0.60220  0.56310  Biso   1.000  H
  H20      1.0000 0.03130  0.60220  0.43690  Biso   1.000  H
  H21      1.0000 0.50000  0.78080  0.50000  Biso   1.000  H
  H22      1.0000 0.00000  0.28080  0.50000  Biso   1.000  H
  H23      1.0000 0.50000  0.21920  0.50000  Biso   1.000  H
  H24      1.0000 0.00000  0.71920  0.50000  Biso   1.000  H
