data_image0
_cell_length_a       7.3363
_cell_length_b       12.02
_cell_length_c       8.6697
_cell_angle_alpha    90
_cell_angle_beta     104.213
_cell_angle_gamma    90

_symmetry_space_group_name_H-M    "P 1"
_symmetry_int_tables_number       1

loop_
  _symmetry_equiv_pos_as_xyz
  'x, y, z'

loop_
  _atom_site_label
  _atom_site_occupancy
  _atom_site_fract_x
  _atom_site_fract_y
  _atom_site_fract_z
  _atom_site_thermal_displace_type
  _atom_site_B_iso_or_equiv
  _atom_site_type_symbol
  Fe1      1.0000 0.00000  0.00000  0.50000  Biso   1.000  Fe
  Fe2      1.0000 0.50000  0.50000  0.50000  Biso   1.000  Fe
  Cu1      1.0000 0.25000  0.75000  0.00000  Biso   1.000  Cu
  Cu2      1.0000 0.75000  0.75000  0.00000  Biso   1.000  Cu
  Cu3      1.0000 0.75000  0.25000  0.00000  Biso   1.000  Cu
  Cu4      1.0000 0.25000  0.25000  0.00000  Biso   1.000  Cu
  C1       1.0000 0.11740  0.85110  0.23830  Biso   1.000  C
  C2       1.0000 0.88260  0.85110  0.76170  Biso   1.000  C
  C3       1.0000 0.61740  0.35110  0.23830  Biso   1.000  C
  C4       1.0000 0.38260  0.35110  0.76170  Biso   1.000  C
  C5       1.0000 0.88260  0.14890  0.76170  Biso   1.000  C
  C6       1.0000 0.11740  0.14890  0.23830  Biso   1.000  C
  C7       1.0000 0.38260  0.64890  0.76170  Biso   1.000  C
  C8       1.0000 0.61740  0.64890  0.23830  Biso   1.000  C
  C9       1.0000 0.18750  0.94250  0.15370  Biso   1.000  C
  C10      1.0000 0.81250  0.94250  0.84630  Biso   1.000  C
  C11      1.0000 0.68750  0.44250  0.15370  Biso   1.000  C
  C12      1.0000 0.31250  0.44250  0.84630  Biso   1.000  C
  C13      1.0000 0.81250  0.05750  0.84630  Biso   1.000  C
  C14      1.0000 0.18750  0.05750  0.15370  Biso   1.000  C
  C15      1.0000 0.31250  0.55750  0.84630  Biso   1.000  C
  C16      1.0000 0.68750  0.55750  0.15370  Biso   1.000  C
  N1       1.0000 0.25330  0.91164  0.02730  Biso   1.000  N
  N2       1.0000 0.74670  0.91164  0.97270  Biso   1.000  N
  N3       1.0000 0.75330  0.41164  0.02730  Biso   1.000  N
  N4       1.0000 0.24670  0.41164  0.97270  Biso   1.000  N
  N5       1.0000 0.74670  0.08836  0.97270  Biso   1.000  N
  N6       1.0000 0.25330  0.08836  0.02730  Biso   1.000  N
  N7       1.0000 0.24670  0.58836  0.97270  Biso   1.000  N
  N8       1.0000 0.75330  0.58836  0.02730  Biso   1.000  N
  N9       1.0000 0.29270  0.00000  0.95120  Biso   1.000  N
  N10      1.0000 0.70730  0.00000  0.04880  Biso   1.000  N
  N11      1.0000 0.79270  0.50000  0.95120  Biso   1.000  N
  N12      1.0000 0.20730  0.50000  0.04880  Biso   1.000  N
  O1       1.0000 0.71390  0.00000  0.37940  Biso   1.000  O
  O2       1.0000 0.28610  0.00000  0.62060  Biso   1.000  O
  O3       1.0000 0.21390  0.50000  0.37940  Biso   1.000  O
  O4       1.0000 0.78610  0.50000  0.62060  Biso   1.000  O
  H1       1.0000 0.66520  0.05910  0.40530  Biso   1.000  H
  H2       1.0000 0.33480  0.05910  0.59470  Biso   1.000  H
  H3       1.0000 0.16520  0.55910  0.40530  Biso   1.000  H
  H4       1.0000 0.83480  0.55910  0.59470  Biso   1.000  H
  H5       1.0000 0.33480  0.94090  0.59470  Biso   1.000  H
  H6       1.0000 0.66520  0.94090  0.40530  Biso   1.000  H
  H7       1.0000 0.83480  0.44090  0.59470  Biso   1.000  H
  H8       1.0000 0.16520  0.44090  0.40530  Biso   1.000  H
  H9       1.0000 0.69550  0.00000  0.27870  Biso   1.000  H
  H10      1.0000 0.30450  0.00000  0.72130  Biso   1.000  H
  H11      1.0000 0.19550  0.50000  0.27870  Biso   1.000  H
  H12      1.0000 0.80450  0.50000  0.72130  Biso   1.000  H
  O5       1.0000 0.12350  0.75518  0.17640  Biso   1.000  O
  O6       1.0000 0.87650  0.75518  0.82360  Biso   1.000  O
  O7       1.0000 0.62350  0.25518  0.17640  Biso   1.000  O
  O8       1.0000 0.37650  0.25518  0.82360  Biso   1.000  O
  O9       1.0000 0.87650  0.24482  0.82360  Biso   1.000  O
  O10      1.0000 0.12350  0.24482  0.17640  Biso   1.000  O
  O11      1.0000 0.37650  0.74482  0.82360  Biso   1.000  O
  O12      1.0000 0.62350  0.74482  0.17640  Biso   1.000  O
  O13      1.0000 0.04980  0.86874  0.35370  Biso   1.000  O
  O14      1.0000 0.95020  0.86874  0.64630  Biso   1.000  O
  O15      1.0000 0.54980  0.36874  0.35370  Biso   1.000  O
  O16      1.0000 0.45020  0.36874  0.64630  Biso   1.000  O
  O17      1.0000 0.95020  0.13126  0.64630  Biso   1.000  O
  O18      1.0000 0.04980  0.13126  0.35370  Biso   1.000  O
  O19      1.0000 0.45020  0.63126  0.64630  Biso   1.000  O
  O20      1.0000 0.54980  0.63126  0.35370  Biso   1.000  O
  O21      1.0000 0.50000  0.85090  0.50000  Biso   1.000  O
  O22      1.0000 0.00000  0.35090  0.50000  Biso   1.000  O
  O23      1.0000 0.50000  0.14910  0.50000  Biso   1.000  O
  O24      1.0000 0.00000  0.64910  0.50000  Biso   1.000  O
  H13      1.0000 0.53130  0.89710  0.43690  Biso   1.000  H
  H14      1.0000 0.46870  0.89710  0.56310  Biso   1.000  H
  H15      1.0000 0.03130  0.39710  0.43690  Biso   1.000  H
  H16      1.0000 0.96870  0.39710  0.56310  Biso   1.000  H
  H17      1.0000 0.46870  0.10290  0.56310  Biso   1.000  H
  H18      1.0000 0.53130  0.10290  0.43690  Biso   1.000  H
  H19      1.0000 0.96870  0.60290  0.56310  Biso   1.000  H
  H20      1.0000 0.03130  0.60290  0.43690  Biso   1.000  H
  H21      1.0000 0.50000  0.78020  0.50000  Biso   1.000  H
  H22      1.0000 0.00000  0.28020  0.50000  Biso   1.000  H
  H23      1.0000 0.50000  0.21980  0.50000  Biso   1.000  H
  H24      1.0000 0.00000  0.71980  0.50000  Biso   1.000  H
