data_image0
_cell_length_a       7.073
_cell_length_b       12.245
_cell_length_c       7.458
_cell_angle_alpha    90
_cell_angle_beta     118.475
_cell_angle_gamma    90

_symmetry_space_group_name_H-M    "P 1"
_symmetry_int_tables_number       1

loop_
  _symmetry_equiv_pos_as_xyz
  'x, y, z'

loop_
  _atom_site_label
  _atom_site_occupancy
  _atom_site_fract_x
  _atom_site_fract_y
  _atom_site_fract_z
  _atom_site_thermal_displace_type
  _atom_site_B_iso_or_equiv
  _atom_site_type_symbol
  Fe1      1.0000 0.00000  0.00000  0.50000  Biso   1.000  Fe
  Fe2      1.0000 0.50000  0.50000  0.50000  Biso   1.000  Fe
  Cu1      1.0000 0.25000  0.25000  0.00000  Biso   1.000  Cu
  Cu2      1.0000 0.75000  0.25000  0.00000  Biso   1.000  Cu
  Cu3      1.0000 0.75000  0.75000  0.00000  Biso   1.000  Cu
  Cu4      1.0000 0.25000  0.75000  0.00000  Biso   1.000  Cu
  C1       1.0000 0.20500  0.14311  0.28790  Biso   1.000  C
  C2       1.0000 0.79500  0.14311  0.71210  Biso   1.000  C
  C3       1.0000 0.70500  0.64311  0.28790  Biso   1.000  C
  C4       1.0000 0.29500  0.64311  0.71210  Biso   1.000  C
  C5       1.0000 0.79500  0.85689  0.71210  Biso   1.000  C
  C6       1.0000 0.20500  0.85689  0.28790  Biso   1.000  C
  C7       1.0000 0.29500  0.35689  0.71210  Biso   1.000  C
  C8       1.0000 0.70500  0.35689  0.28790  Biso   1.000  C
  C9       1.0000 0.23690  0.05595  0.16750  Biso   1.000  C
  C10      1.0000 0.76310  0.05595  0.83250  Biso   1.000  C
  C11      1.0000 0.73690  0.55595  0.16750  Biso   1.000  C
  C12      1.0000 0.26310  0.55595  0.83250  Biso   1.000  C
  C13      1.0000 0.76310  0.94405  0.83250  Biso   1.000  C
  C14      1.0000 0.23690  0.94405  0.16750  Biso   1.000  C
  C15      1.0000 0.26310  0.44405  0.83250  Biso   1.000  C
  C16      1.0000 0.73690  0.44405  0.16750  Biso   1.000  C
  N1       1.0000 0.27570  0.09027  0.01580  Biso   1.000  N
  N2       1.0000 0.72430  0.09027  0.98420  Biso   1.000  N
  N3       1.0000 0.77570  0.59027  0.01580  Biso   1.000  N
  N4       1.0000 0.22430  0.59027  0.98420  Biso   1.000  N
  N5       1.0000 0.72430  0.90973  0.98420  Biso   1.000  N
  N6       1.0000 0.27570  0.90973  0.01580  Biso   1.000  N
  N7       1.0000 0.22430  0.40973  0.98420  Biso   1.000  N
  N8       1.0000 0.77570  0.40973  0.01580  Biso   1.000  N
  N9       1.0000 0.27900  0.00000  0.91240  Biso   1.000  N
  N10      1.0000 0.72100  0.00000  0.08760  Biso   1.000  N
  N11      1.0000 0.77900  0.50000  0.91240  Biso   1.000  N
  N12      1.0000 0.22100  0.50000  0.08760  Biso   1.000  N
  O1       1.0000 0.22470  0.24102  0.25860  Biso   1.000  O
  O2       1.0000 0.77530  0.24102  0.74140  Biso   1.000  O
  O3       1.0000 0.72470  0.74102  0.25860  Biso   1.000  O
  O4       1.0000 0.27530  0.74102  0.74140  Biso   1.000  O
  O5       1.0000 0.77530  0.75898  0.74140  Biso   1.000  O
  O6       1.0000 0.22470  0.75898  0.25860  Biso   1.000  O
  O7       1.0000 0.27530  0.25898  0.74140  Biso   1.000  O
  O8       1.0000 0.72470  0.25898  0.25860  Biso   1.000  O
  O9       1.0000 0.16810  0.10798  0.42930  Biso   1.000  O
  O10      1.0000 0.83190  0.10798  0.57070  Biso   1.000  O
  O11      1.0000 0.66810  0.60798  0.42930  Biso   1.000  O
  O12      1.0000 0.33190  0.60798  0.57070  Biso   1.000  O
  O13      1.0000 0.83190  0.89202  0.57070  Biso   1.000  O
  O14      1.0000 0.16810  0.89202  0.42930  Biso   1.000  O
  O15      1.0000 0.33190  0.39202  0.57070  Biso   1.000  O
  O16      1.0000 0.66810  0.39202  0.42930  Biso   1.000  O
