data_image0
_cell_length_a       7.091
_cell_length_b       12.198
_cell_length_c       7.592
_cell_angle_alpha    90
_cell_angle_beta     118.367
_cell_angle_gamma    90

_symmetry_space_group_name_H-M    "P 1"
_symmetry_int_tables_number       1

loop_
  _symmetry_equiv_pos_as_xyz
  'x, y, z'

loop_
  _atom_site_label
  _atom_site_occupancy
  _atom_site_fract_x
  _atom_site_fract_y
  _atom_site_fract_z
  _atom_site_thermal_displace_type
  _atom_site_B_iso_or_equiv
  _atom_site_type_symbol
  Mn1      1.0000 0.00000  0.00000  0.50000  Biso   1.000  Mn
  Mn2      1.0000 0.50000  0.50000  0.50000  Biso   1.000  Mn
  Cu1      1.0000 0.25000  0.25000  0.00000  Biso   1.000  Cu
  Cu2      1.0000 0.75000  0.25000  0.00000  Biso   1.000  Cu
  Cu3      1.0000 0.75000  0.75000  0.00000  Biso   1.000  Cu
  Cu4      1.0000 0.25000  0.75000  0.00000  Biso   1.000  Cu
  C1       1.0000 0.18850  0.14439  0.27320  Biso   1.000  C
  C2       1.0000 0.81150  0.14439  0.72680  Biso   1.000  C
  C3       1.0000 0.68850  0.64439  0.27320  Biso   1.000  C
  C4       1.0000 0.31150  0.64439  0.72680  Biso   1.000  C
  C5       1.0000 0.81150  0.85561  0.72680  Biso   1.000  C
  C6       1.0000 0.18850  0.85561  0.27320  Biso   1.000  C
  C7       1.0000 0.31150  0.35561  0.72680  Biso   1.000  C
  C8       1.0000 0.68850  0.35561  0.27320  Biso   1.000  C
  C9       1.0000 0.23270  0.05645  0.16050  Biso   1.000  C
  C10      1.0000 0.76730  0.05645  0.83950  Biso   1.000  C
  C11      1.0000 0.73270  0.55645  0.16050  Biso   1.000  C
  C12      1.0000 0.26730  0.55645  0.83950  Biso   1.000  C
  C13      1.0000 0.76730  0.94355  0.83950  Biso   1.000  C
  C14      1.0000 0.23270  0.94355  0.16050  Biso   1.000  C
  C15      1.0000 0.26730  0.44355  0.83950  Biso   1.000  C
  C16      1.0000 0.73270  0.44355  0.16050  Biso   1.000  C
  N1       1.0000 0.28710  0.09108  0.01850  Biso   1.000  N
  N2       1.0000 0.71290  0.09108  0.98150  Biso   1.000  N
  N3       1.0000 0.78710  0.59108  0.01850  Biso   1.000  N
  N4       1.0000 0.21290  0.59108  0.98150  Biso   1.000  N
  N5       1.0000 0.71290  0.90892  0.98150  Biso   1.000  N
  N6       1.0000 0.28710  0.90892  0.01850  Biso   1.000  N
  N7       1.0000 0.21290  0.40892  0.98150  Biso   1.000  N
  N8       1.0000 0.78710  0.40892  0.01850  Biso   1.000  N
  N9       1.0000 0.30020  0.00000  0.92000  Biso   1.000  N
  N10      1.0000 0.69980  0.00000  0.08000  Biso   1.000  N
  N11      1.0000 0.80020  0.50000  0.92000  Biso   1.000  N
  N12      1.0000 0.19980  0.50000  0.08000  Biso   1.000  N
  O1       1.0000 0.18960  0.24294  0.23230  Biso   1.000  O
  O2       1.0000 0.81040  0.24294  0.76770  Biso   1.000  O
  O3       1.0000 0.68960  0.74294  0.23230  Biso   1.000  O
  O4       1.0000 0.31040  0.74294  0.76770  Biso   1.000  O
  O5       1.0000 0.81040  0.75706  0.76770  Biso   1.000  O
  O6       1.0000 0.18960  0.75706  0.23230  Biso   1.000  O
  O7       1.0000 0.31040  0.25706  0.76770  Biso   1.000  O
  O8       1.0000 0.68960  0.25706  0.23230  Biso   1.000  O
  O9       1.0000 0.16180  0.10981  0.42060  Biso   1.000  O
  O10      1.0000 0.83820  0.10981  0.57940  Biso   1.000  O
  O11      1.0000 0.66180  0.60981  0.42060  Biso   1.000  O
  O12      1.0000 0.33820  0.60981  0.57940  Biso   1.000  O
  O13      1.0000 0.83820  0.89019  0.57940  Biso   1.000  O
  O14      1.0000 0.16180  0.89019  0.42060  Biso   1.000  O
  O15      1.0000 0.33820  0.39019  0.57940  Biso   1.000  O
  O16      1.0000 0.66180  0.39019  0.42060  Biso   1.000  O
