data_image0
_cell_length_a       18.9524
_cell_length_b       18.9524
_cell_length_c       17.4748
_cell_angle_alpha    90
_cell_angle_beta     90
_cell_angle_gamma    90

_symmetry_space_group_name_H-M    "P 1"
_symmetry_int_tables_number       1

loop_
  _symmetry_equiv_pos_as_xyz
  'x, y, z'

loop_
  _atom_site_label
  _atom_site_occupancy
  _atom_site_fract_x
  _atom_site_fract_y
  _atom_site_fract_z
  _atom_site_thermal_displace_type
  _atom_site_B_iso_or_equiv
  _atom_site_type_symbol
  Cu1      1.0000 0.50000  0.00000  0.50000  Biso   1.000  Cu
  Cu2      1.0000 0.00000  0.50000  0.50000  Biso   1.000  Cu
  Cu3      1.0000 0.00000  0.50000  0.00000  Biso   1.000  Cu
  Cu4      1.0000 0.50000  0.00000  0.00000  Biso   1.000  Cu
  P1       1.0000 0.00000  0.00000  0.00000  Biso   1.000  P
  P2       1.0000 0.50000  0.50000  0.50000  Biso   1.000  P
  W1       1.0000 0.83323  0.08592  0.00000  Biso   1.000  W
  W2       1.0000 0.91408  0.83323  0.00000  Biso   1.000  W
  W3       1.0000 0.16677  0.91408  0.00000  Biso   1.000  W
  W4       1.0000 0.08592  0.16677  0.00000  Biso   1.000  W
  W5       1.0000 0.33323  0.58592  0.50000  Biso   1.000  W
  W6       1.0000 0.41408  0.33323  0.50000  Biso   1.000  W
  W7       1.0000 0.66677  0.41408  0.50000  Biso   1.000  W
  W8       1.0000 0.58592  0.66677  0.50000  Biso   1.000  W
  W9       1.0000 0.96009  0.12622  0.85633  Biso   1.000  W
  W10      1.0000 0.87378  0.96009  0.85633  Biso   1.000  W
  W11      1.0000 0.03991  0.87378  0.85633  Biso   1.000  W
  W12      1.0000 0.12622  0.03991  0.85633  Biso   1.000  W
  W13      1.0000 0.46009  0.62622  0.35633  Biso   1.000  W
  W14      1.0000 0.37378  0.46009  0.35633  Biso   1.000  W
  W15      1.0000 0.53991  0.37378  0.35633  Biso   1.000  W
  W16      1.0000 0.62622  0.53991  0.35633  Biso   1.000  W
  W17      1.0000 0.03991  0.87378  0.14367  Biso   1.000  W
  W18      1.0000 0.12622  0.03991  0.14367  Biso   1.000  W
  W19      1.0000 0.96009  0.12622  0.14367  Biso   1.000  W
  W20      1.0000 0.87378  0.96009  0.14367  Biso   1.000  W
  W21      1.0000 0.53991  0.37378  0.64367  Biso   1.000  W
  W22      1.0000 0.62622  0.53991  0.64367  Biso   1.000  W
  W23      1.0000 0.46009  0.62622  0.64367  Biso   1.000  W
  W24      1.0000 0.37378  0.46009  0.64367  Biso   1.000  W
  O1       1.0000 0.93980  0.03030  0.94850  Biso   1.000  O
  O2       1.0000 0.96970  0.93980  0.94850  Biso   1.000  O
  O3       1.0000 0.06020  0.96970  0.94850  Biso   1.000  O
  O4       1.0000 0.03030  0.06020  0.94850  Biso   1.000  O
  O5       1.0000 0.43980  0.53030  0.44850  Biso   1.000  O
  O6       1.0000 0.46970  0.43980  0.44850  Biso   1.000  O
  O7       1.0000 0.56020  0.46970  0.44850  Biso   1.000  O
  O8       1.0000 0.53030  0.56020  0.44850  Biso   1.000  O
  O9       1.0000 0.06020  0.96970  0.05150  Biso   1.000  O
  O10      1.0000 0.03030  0.06020  0.05150  Biso   1.000  O
  O11      1.0000 0.93980  0.03030  0.05150  Biso   1.000  O
  O12      1.0000 0.96970  0.93980  0.05150  Biso   1.000  O
  O13      1.0000 0.56020  0.46970  0.55150  Biso   1.000  O
  O14      1.0000 0.53030  0.56020  0.55150  Biso   1.000  O
  O15      1.0000 0.43980  0.53030  0.55150  Biso   1.000  O
  O16      1.0000 0.46970  0.43980  0.55150  Biso   1.000  O
  O17      1.0000 0.81980  0.01490  0.92520  Biso   1.000  O
  O18      1.0000 0.98510  0.81980  0.92520  Biso   1.000  O
  O19      1.0000 0.18020  0.98510  0.92520  Biso   1.000  O
  O20      1.0000 0.01490  0.18020  0.92520  Biso   1.000  O
  O21      1.0000 0.31980  0.51490  0.42520  Biso   1.000  O
  O22      1.0000 0.48510  0.31980  0.42520  Biso   1.000  O
  O23      1.0000 0.68020  0.48510  0.42520  Biso   1.000  O
  O24      1.0000 0.51490  0.68020  0.42520  Biso   1.000  O
  O25      1.0000 0.18020  0.98510  0.07480  Biso   1.000  O
  O26      1.0000 0.01490  0.18020  0.07480  Biso   1.000  O
  O27      1.0000 0.81980  0.01490  0.07480  Biso   1.000  O
  O28      1.0000 0.98510  0.81980  0.07480  Biso   1.000  O
  O29      1.0000 0.68020  0.48510  0.57480  Biso   1.000  O
  O30      1.0000 0.51490  0.68020  0.57480  Biso   1.000  O
  O31      1.0000 0.31980  0.51490  0.57480  Biso   1.000  O
  O32      1.0000 0.48510  0.31980  0.57480  Biso   1.000  O
  O33      1.0000 0.75870  0.12790  0.00000  Biso   1.000  O
  O34      1.0000 0.87210  0.75870  0.00000  Biso   1.000  O
  O35      1.0000 0.24130  0.87210  0.00000  Biso   1.000  O
  O36      1.0000 0.12790  0.24130  0.00000  Biso   1.000  O
  O37      1.0000 0.25870  0.62790  0.50000  Biso   1.000  O
  O38      1.0000 0.37210  0.25870  0.50000  Biso   1.000  O
  O39      1.0000 0.74130  0.37210  0.50000  Biso   1.000  O
  O40      1.0000 0.62790  0.74130  0.50000  Biso   1.000  O
  O41      1.0000 0.88340  0.13680  0.92600  Biso   1.000  O
  O42      1.0000 0.86320  0.88340  0.92600  Biso   1.000  O
  O43      1.0000 0.11660  0.86320  0.92600  Biso   1.000  O
  O44      1.0000 0.13680  0.11660  0.92600  Biso   1.000  O
  O45      1.0000 0.38340  0.63680  0.42600  Biso   1.000  O
  O46      1.0000 0.36320  0.38340  0.42600  Biso   1.000  O
  O47      1.0000 0.61660  0.36320  0.42600  Biso   1.000  O
  O48      1.0000 0.63680  0.61660  0.42600  Biso   1.000  O
  O49      1.0000 0.11660  0.86320  0.07400  Biso   1.000  O
  O50      1.0000 0.13680  0.11660  0.07400  Biso   1.000  O
  O51      1.0000 0.88340  0.13680  0.07400  Biso   1.000  O
  O52      1.0000 0.86320  0.88340  0.07400  Biso   1.000  O
  O53      1.0000 0.61660  0.36320  0.57400  Biso   1.000  O
  O54      1.0000 0.63680  0.61660  0.57400  Biso   1.000  O
  O55      1.0000 0.38340  0.63680  0.57400  Biso   1.000  O
  O56      1.0000 0.36320  0.38340  0.57400  Biso   1.000  O
  O57      1.0000 0.04560  0.08490  0.81790  Biso   1.000  O
  O58      1.0000 0.91510  0.04560  0.81790  Biso   1.000  O
  O59      1.0000 0.95440  0.91510  0.81790  Biso   1.000  O
  O60      1.0000 0.08490  0.95440  0.81790  Biso   1.000  O
  O61      1.0000 0.54560  0.58490  0.31790  Biso   1.000  O
  O62      1.0000 0.41510  0.54560  0.31790  Biso   1.000  O
  O63      1.0000 0.45440  0.41510  0.31790  Biso   1.000  O
  O64      1.0000 0.58490  0.45440  0.31790  Biso   1.000  O
  O65      1.0000 0.95440  0.91510  0.18210  Biso   1.000  O
  O66      1.0000 0.08490  0.95440  0.18210  Biso   1.000  O
  O67      1.0000 0.04560  0.08490  0.18210  Biso   1.000  O
  O68      1.0000 0.91510  0.04560  0.18210  Biso   1.000  O
  O69      1.0000 0.45440  0.41510  0.68210  Biso   1.000  O
  O70      1.0000 0.58490  0.45440  0.68210  Biso   1.000  O
  O71      1.0000 0.54560  0.58490  0.68210  Biso   1.000  O
  O72      1.0000 0.41510  0.54560  0.68210  Biso   1.000  O
  O73      1.0000 0.94250  0.19000  0.78930  Biso   1.000  O
  O74      1.0000 0.81000  0.94250  0.78930  Biso   1.000  O
  O75      1.0000 0.05750  0.81000  0.78930  Biso   1.000  O
  O76      1.0000 0.19000  0.05750  0.78930  Biso   1.000  O
  O77      1.0000 0.44250  0.69000  0.28930  Biso   1.000  O
  O78      1.0000 0.31000  0.44250  0.28930  Biso   1.000  O
  O79      1.0000 0.55750  0.31000  0.28930  Biso   1.000  O
  O80      1.0000 0.69000  0.55750  0.28930  Biso   1.000  O
  O81      1.0000 0.05750  0.81000  0.21070  Biso   1.000  O
  O82      1.0000 0.19000  0.05750  0.21070  Biso   1.000  O
  O83      1.0000 0.94250  0.19000  0.21070  Biso   1.000  O
  O84      1.0000 0.81000  0.94250  0.21070  Biso   1.000  O
  O85      1.0000 0.55750  0.31000  0.71070  Biso   1.000  O
  O86      1.0000 0.69000  0.55750  0.71070  Biso   1.000  O
  O87      1.0000 0.44250  0.69000  0.71070  Biso   1.000  O
  O88      1.0000 0.31000  0.44250  0.71070  Biso   1.000  O
  O89      1.0000 0.39640  0.92510  0.50000  Biso   1.000  O
  O90      1.0000 0.07490  0.39640  0.50000  Biso   1.000  O
  O91      1.0000 0.60360  0.07490  0.50000  Biso   1.000  O
  O92      1.0000 0.92510  0.60360  0.50000  Biso   1.000  O
  O93      1.0000 0.89640  0.42510  0.00000  Biso   1.000  O
  O94      1.0000 0.57490  0.89640  0.00000  Biso   1.000  O
  O95      1.0000 0.10360  0.57490  0.00000  Biso   1.000  O
  O96      1.0000 0.42510  0.10360  0.00000  Biso   1.000  O
  O97      1.0000 0.41090  0.19340  0.82000  Biso   1.000  O
  O98      1.0000 0.80660  0.41090  0.82000  Biso   1.000  O
  O99      1.0000 0.58910  0.80660  0.82000  Biso   1.000  O
  O100     1.0000 0.19340  0.58910  0.82000  Biso   1.000  O
  O101     1.0000 0.91090  0.69340  0.32000  Biso   1.000  O
  O102     1.0000 0.30660  0.91090  0.32000  Biso   1.000  O
  O103     1.0000 0.08910  0.30660  0.32000  Biso   1.000  O
  O104     1.0000 0.69340  0.08910  0.32000  Biso   1.000  O
  O105     1.0000 0.58910  0.80660  0.18000  Biso   1.000  O
  O106     1.0000 0.19340  0.58910  0.18000  Biso   1.000  O
  O107     1.0000 0.41090  0.19340  0.18000  Biso   1.000  O
  O108     1.0000 0.80660  0.41090  0.18000  Biso   1.000  O
  O109     1.0000 0.08910  0.30660  0.68000  Biso   1.000  O
  O110     1.0000 0.69340  0.08910  0.68000  Biso   1.000  O
  O111     1.0000 0.91090  0.69340  0.68000  Biso   1.000  O
  O112     1.0000 0.30660  0.91090  0.68000  Biso   1.000  O
  N1       1.0000 0.45670  0.05940  0.58290  Biso   1.000  N
  N2       1.0000 0.94060  0.45670  0.58290  Biso   1.000  N
  N3       1.0000 0.54330  0.94060  0.58290  Biso   1.000  N
  N4       1.0000 0.05940  0.54330  0.58290  Biso   1.000  N
  N5       1.0000 0.95670  0.55940  0.08290  Biso   1.000  N
  N6       1.0000 0.44060  0.95670  0.08290  Biso   1.000  N
  N7       1.0000 0.04330  0.44060  0.08290  Biso   1.000  N
  N8       1.0000 0.55940  0.04330  0.08290  Biso   1.000  N
  N9       1.0000 0.54330  0.94060  0.41710  Biso   1.000  N
  N10      1.0000 0.05940  0.54330  0.41710  Biso   1.000  N
  N11      1.0000 0.45670  0.05940  0.41710  Biso   1.000  N
  N12      1.0000 0.94060  0.45670  0.41710  Biso   1.000  N
  N13      1.0000 0.04330  0.44060  0.91710  Biso   1.000  N
  N14      1.0000 0.55940  0.04330  0.91710  Biso   1.000  N
  N15      1.0000 0.95670  0.55940  0.91710  Biso   1.000  N
  N16      1.0000 0.44060  0.95670  0.91710  Biso   1.000  N
  C1       1.0000 0.44210  0.16240  0.65560  Biso   1.000  C
  C2       1.0000 0.83760  0.44210  0.65560  Biso   1.000  C
  C3       1.0000 0.55790  0.83760  0.65560  Biso   1.000  C
  C4       1.0000 0.16240  0.55790  0.65560  Biso   1.000  C
  C5       1.0000 0.94210  0.66240  0.15560  Biso   1.000  C
  C6       1.0000 0.33760  0.94210  0.15560  Biso   1.000  C
  C7       1.0000 0.05790  0.33760  0.15560  Biso   1.000  C
  C8       1.0000 0.66240  0.05790  0.15560  Biso   1.000  C
  C9       1.0000 0.55790  0.83760  0.34440  Biso   1.000  C
  C10      1.0000 0.16240  0.55790  0.34440  Biso   1.000  C
  C11      1.0000 0.44210  0.16240  0.34440  Biso   1.000  C
  C12      1.0000 0.83760  0.44210  0.34440  Biso   1.000  C
  C13      1.0000 0.05790  0.33760  0.84440  Biso   1.000  C
  C14      1.0000 0.66240  0.05790  0.84440  Biso   1.000  C
  C15      1.0000 0.94210  0.66240  0.84440  Biso   1.000  C
  C16      1.0000 0.33760  0.94210  0.84440  Biso   1.000  C
  H1       1.0000 0.45620  0.21010  0.66310  Biso   1.000  H
  H2       1.0000 0.78990  0.45620  0.66310  Biso   1.000  H
  H3       1.0000 0.54380  0.78990  0.66310  Biso   1.000  H
  H4       1.0000 0.21010  0.54380  0.66310  Biso   1.000  H
  H5       1.0000 0.95620  0.71010  0.16310  Biso   1.000  H
  H6       1.0000 0.28990  0.95620  0.16310  Biso   1.000  H
  H7       1.0000 0.04380  0.28990  0.16310  Biso   1.000  H
  H8       1.0000 0.71010  0.04380  0.16310  Biso   1.000  H
  H9       1.0000 0.54380  0.78990  0.33690  Biso   1.000  H
  H10      1.0000 0.21010  0.54380  0.33690  Biso   1.000  H
  H11      1.0000 0.45620  0.21010  0.33690  Biso   1.000  H
  H12      1.0000 0.78990  0.45620  0.33690  Biso   1.000  H
  H13      1.0000 0.04380  0.28990  0.83690  Biso   1.000  H
  H14      1.0000 0.71010  0.04380  0.83690  Biso   1.000  H
  H15      1.0000 0.95620  0.71010  0.83690  Biso   1.000  H
  H16      1.0000 0.28990  0.95620  0.83690  Biso   1.000  H
  C17      1.0000 0.47400  0.12410  0.59900  Biso   1.000  C
  C18      1.0000 0.87590  0.47400  0.59900  Biso   1.000  C
  C19      1.0000 0.52600  0.87590  0.59900  Biso   1.000  C
  C20      1.0000 0.12410  0.52600  0.59900  Biso   1.000  C
  C21      1.0000 0.97400  0.62410  0.09900  Biso   1.000  C
  C22      1.0000 0.37590  0.97400  0.09900  Biso   1.000  C
  C23      1.0000 0.02600  0.37590  0.09900  Biso   1.000  C
  C24      1.0000 0.62410  0.02600  0.09900  Biso   1.000  C
  C25      1.0000 0.52600  0.87590  0.40100  Biso   1.000  C
  C26      1.0000 0.12410  0.52600  0.40100  Biso   1.000  C
  C27      1.0000 0.47400  0.12410  0.40100  Biso   1.000  C
  C28      1.0000 0.87590  0.47400  0.40100  Biso   1.000  C
  C29      1.0000 0.02600  0.37590  0.90100  Biso   1.000  C
  C30      1.0000 0.62410  0.02600  0.90100  Biso   1.000  C
  C31      1.0000 0.97400  0.62410  0.90100  Biso   1.000  C
  C32      1.0000 0.37590  0.97400  0.90100  Biso   1.000  C
  H17      1.0000 0.51050  0.14580  0.57000  Biso   1.000  H
  H18      1.0000 0.85420  0.51050  0.57000  Biso   1.000  H
  H19      1.0000 0.48950  0.85420  0.57000  Biso   1.000  H
  H20      1.0000 0.14580  0.48950  0.57000  Biso   1.000  H
  H21      1.0000 0.01050  0.64580  0.07000  Biso   1.000  H
  H22      1.0000 0.35420  0.01050  0.07000  Biso   1.000  H
  H23      1.0000 0.98950  0.35420  0.07000  Biso   1.000  H
  H24      1.0000 0.64580  0.98950  0.07000  Biso   1.000  H
  H25      1.0000 0.48950  0.85420  0.43000  Biso   1.000  H
  H26      1.0000 0.14580  0.48950  0.43000  Biso   1.000  H
  H27      1.0000 0.51050  0.14580  0.43000  Biso   1.000  H
  H28      1.0000 0.85420  0.51050  0.43000  Biso   1.000  H
  H29      1.0000 0.98950  0.35420  0.93000  Biso   1.000  H
  H30      1.0000 0.64580  0.98950  0.93000  Biso   1.000  H
  H31      1.0000 0.01050  0.64580  0.93000  Biso   1.000  H
  H32      1.0000 0.35420  0.01050  0.93000  Biso   1.000  H
  C33      1.0000 0.41080  0.03160  0.62900  Biso   1.000  C
  C34      1.0000 0.96840  0.41080  0.62900  Biso   1.000  C
  C35      1.0000 0.58920  0.96840  0.62900  Biso   1.000  C
  C36      1.0000 0.03160  0.58920  0.62900  Biso   1.000  C
  C37      1.0000 0.91080  0.53160  0.12900  Biso   1.000  C
  C38      1.0000 0.46840  0.91080  0.12900  Biso   1.000  C
  C39      1.0000 0.08920  0.46840  0.12900  Biso   1.000  C
  C40      1.0000 0.53160  0.08920  0.12900  Biso   1.000  C
  C41      1.0000 0.58920  0.96840  0.37100  Biso   1.000  C
  C42      1.0000 0.03160  0.58920  0.37100  Biso   1.000  C
  C43      1.0000 0.41080  0.03160  0.37100  Biso   1.000  C
  C44      1.0000 0.96840  0.41080  0.37100  Biso   1.000  C
  C45      1.0000 0.08920  0.46840  0.87100  Biso   1.000  C
  C46      1.0000 0.53160  0.08920  0.87100  Biso   1.000  C
  C47      1.0000 0.91080  0.53160  0.87100  Biso   1.000  C
  C48      1.0000 0.46840  0.91080  0.87100  Biso   1.000  C
  H33      1.0000 0.40050  0.98290  0.62350  Biso   1.000  H
  H34      1.0000 0.01710  0.40050  0.62350  Biso   1.000  H
  H35      1.0000 0.59950  0.01710  0.62350  Biso   1.000  H
  H36      1.0000 0.98290  0.59950  0.62350  Biso   1.000  H
  H37      1.0000 0.90050  0.48290  0.12350  Biso   1.000  H
  H38      1.0000 0.51710  0.90050  0.12350  Biso   1.000  H
  H39      1.0000 0.09950  0.51710  0.12350  Biso   1.000  H
  H40      1.0000 0.48290  0.09950  0.12350  Biso   1.000  H
  H41      1.0000 0.59950  0.01710  0.37650  Biso   1.000  H
  H42      1.0000 0.98290  0.59950  0.37650  Biso   1.000  H
  H43      1.0000 0.40050  0.98290  0.37650  Biso   1.000  H
  H44      1.0000 0.01710  0.40050  0.37650  Biso   1.000  H
  H45      1.0000 0.09950  0.51710  0.87650  Biso   1.000  H
  H46      1.0000 0.48290  0.09950  0.87650  Biso   1.000  H
  H47      1.0000 0.90050  0.48290  0.87650  Biso   1.000  H
  H48      1.0000 0.51710  0.90050  0.87650  Biso   1.000  H
  C49      1.0000 0.37450  0.06910  0.68900  Biso   1.000  C
  C50      1.0000 0.93090  0.37450  0.68900  Biso   1.000  C
  C51      1.0000 0.62550  0.93090  0.68900  Biso   1.000  C
  C52      1.0000 0.06910  0.62550  0.68900  Biso   1.000  C
  C53      1.0000 0.87450  0.56910  0.18900  Biso   1.000  C
  C54      1.0000 0.43090  0.87450  0.18900  Biso   1.000  C
  C55      1.0000 0.12550  0.43090  0.18900  Biso   1.000  C
  C56      1.0000 0.56910  0.12550  0.18900  Biso   1.000  C
  C57      1.0000 0.62550  0.93090  0.31100  Biso   1.000  C
  C58      1.0000 0.06910  0.62550  0.31100  Biso   1.000  C
  C59      1.0000 0.37450  0.06910  0.31100  Biso   1.000  C
  C60      1.0000 0.93090  0.37450  0.31100  Biso   1.000  C
  C61      1.0000 0.12550  0.43090  0.81100  Biso   1.000  C
  C62      1.0000 0.56910  0.12550  0.81100  Biso   1.000  C
  C63      1.0000 0.87450  0.56910  0.81100  Biso   1.000  C
  C64      1.0000 0.43090  0.87450  0.81100  Biso   1.000  C
  H49      1.0000 0.33890  0.04770  0.71930  Biso   1.000  H
  H50      1.0000 0.95230  0.33890  0.71930  Biso   1.000  H
  H51      1.0000 0.66110  0.95230  0.71930  Biso   1.000  H
  H52      1.0000 0.04770  0.66110  0.71930  Biso   1.000  H
  H53      1.0000 0.83890  0.54770  0.21930  Biso   1.000  H
  H54      1.0000 0.45230  0.83890  0.21930  Biso   1.000  H
  H55      1.0000 0.16110  0.45230  0.21930  Biso   1.000  H
  H56      1.0000 0.54770  0.16110  0.21930  Biso   1.000  H
  H57      1.0000 0.66110  0.95230  0.28070  Biso   1.000  H
  H58      1.0000 0.04770  0.66110  0.28070  Biso   1.000  H
  H59      1.0000 0.33890  0.04770  0.28070  Biso   1.000  H
  H60      1.0000 0.95230  0.33890  0.28070  Biso   1.000  H
  H61      1.0000 0.16110  0.45230  0.78070  Biso   1.000  H
  H62      1.0000 0.54770  0.16110  0.78070  Biso   1.000  H
  H63      1.0000 0.83890  0.54770  0.78070  Biso   1.000  H
  H64      1.0000 0.45230  0.83890  0.78070  Biso   1.000  H
  C65      1.0000 0.39450  0.13690  0.69870  Biso   1.000  C
  C66      1.0000 0.86310  0.39450  0.69870  Biso   1.000  C
  C67      1.0000 0.60550  0.86310  0.69870  Biso   1.000  C
  C68      1.0000 0.13690  0.60550  0.69870  Biso   1.000  C
  C69      1.0000 0.89450  0.63690  0.19870  Biso   1.000  C
  C70      1.0000 0.36310  0.89450  0.19870  Biso   1.000  C
  C71      1.0000 0.10550  0.36310  0.19870  Biso   1.000  C
  C72      1.0000 0.63690  0.10550  0.19870  Biso   1.000  C
  C73      1.0000 0.60550  0.86310  0.30130  Biso   1.000  C
  C74      1.0000 0.13690  0.60550  0.30130  Biso   1.000  C
  C75      1.0000 0.39450  0.13690  0.30130  Biso   1.000  C
  C76      1.0000 0.86310  0.39450  0.30130  Biso   1.000  C
  C77      1.0000 0.10550  0.36310  0.80130  Biso   1.000  C
  C78      1.0000 0.63690  0.10550  0.80130  Biso   1.000  C
  C79      1.0000 0.89450  0.63690  0.80130  Biso   1.000  C
  C80      1.0000 0.36310  0.89450  0.80130  Biso   1.000  C
  C81      1.0000 0.36120  0.17580  0.76650  Biso   1.000  C
  C82      1.0000 0.82420  0.36120  0.76650  Biso   1.000  C
  C83      1.0000 0.63880  0.82420  0.76650  Biso   1.000  C
  C84      1.0000 0.17580  0.63880  0.76650  Biso   1.000  C
  C85      1.0000 0.86120  0.67580  0.26650  Biso   1.000  C
  C86      1.0000 0.32420  0.86120  0.26650  Biso   1.000  C
  C87      1.0000 0.13880  0.32420  0.26650  Biso   1.000  C
  C88      1.0000 0.67580  0.13880  0.26650  Biso   1.000  C
  C89      1.0000 0.63880  0.82420  0.23350  Biso   1.000  C
  C90      1.0000 0.17580  0.63880  0.23350  Biso   1.000  C
  C91      1.0000 0.36120  0.17580  0.23350  Biso   1.000  C
  C92      1.0000 0.82420  0.36120  0.23350  Biso   1.000  C
  C93      1.0000 0.13880  0.32420  0.73350  Biso   1.000  C
  C94      1.0000 0.67580  0.13880  0.73350  Biso   1.000  C
  C95      1.0000 0.86120  0.67580  0.73350  Biso   1.000  C
  C96      1.0000 0.32420  0.86120  0.73350  Biso   1.000  C
  N17      1.0000 0.29900  0.19700  0.76400  Biso   1.000  N
  N18      1.0000 0.80300  0.29900  0.76400  Biso   1.000  N
  N19      1.0000 0.70100  0.80300  0.76400  Biso   1.000  N
  N20      1.0000 0.19700  0.70100  0.76400  Biso   1.000  N
  N21      1.0000 0.79900  0.69700  0.26400  Biso   1.000  N
  N22      1.0000 0.30300  0.79900  0.26400  Biso   1.000  N
  N23      1.0000 0.20100  0.30300  0.26400  Biso   1.000  N
  N24      1.0000 0.69700  0.20100  0.26400  Biso   1.000  N
  N25      1.0000 0.70100  0.80300  0.23600  Biso   1.000  N
  N26      1.0000 0.19700  0.70100  0.23600  Biso   1.000  N
  N27      1.0000 0.29900  0.19700  0.23600  Biso   1.000  N
  N28      1.0000 0.80300  0.29900  0.23600  Biso   1.000  N
  N29      1.0000 0.20100  0.30300  0.73600  Biso   1.000  N
  N30      1.0000 0.69700  0.20100  0.73600  Biso   1.000  N
  N31      1.0000 0.79900  0.69700  0.73600  Biso   1.000  N
  N32      1.0000 0.30300  0.79900  0.73600  Biso   1.000  N
  C97      1.0000 0.25100  0.19700  0.69300  Biso   1.000  C
  C98      1.0000 0.80300  0.25100  0.69300  Biso   1.000  C
  C99      1.0000 0.74900  0.80300  0.69300  Biso   1.000  C
  C100     1.0000 0.19700  0.74900  0.69300  Biso   1.000  C
  C101     1.0000 0.75100  0.69700  0.19300  Biso   1.000  C
  C102     1.0000 0.30300  0.75100  0.19300  Biso   1.000  C
  C103     1.0000 0.24900  0.30300  0.19300  Biso   1.000  C
  C104     1.0000 0.69700  0.24900  0.19300  Biso   1.000  C
  C105     1.0000 0.74900  0.80300  0.30700  Biso   1.000  C
  C106     1.0000 0.19700  0.74900  0.30700  Biso   1.000  C
  C107     1.0000 0.25100  0.19700  0.30700  Biso   1.000  C
  C108     1.0000 0.80300  0.25100  0.30700  Biso   1.000  C
  C109     1.0000 0.24900  0.30300  0.80700  Biso   1.000  C
  C110     1.0000 0.69700  0.24900  0.80700  Biso   1.000  C
  C111     1.0000 0.75100  0.69700  0.80700  Biso   1.000  C
  C112     1.0000 0.30300  0.75100  0.80700  Biso   1.000  C
  H65      1.0000 0.27970  0.18110  0.64840  Biso   1.000  H
  H66      1.0000 0.81890  0.27970  0.64840  Biso   1.000  H
  H67      1.0000 0.72030  0.81890  0.64840  Biso   1.000  H
  H68      1.0000 0.18110  0.72030  0.64840  Biso   1.000  H
  H69      1.0000 0.77970  0.68110  0.14840  Biso   1.000  H
  H70      1.0000 0.31890  0.77970  0.14840  Biso   1.000  H
  H71      1.0000 0.22030  0.31890  0.14840  Biso   1.000  H
  H72      1.0000 0.68110  0.22030  0.14840  Biso   1.000  H
  H73      1.0000 0.72030  0.81890  0.35160  Biso   1.000  H
  H74      1.0000 0.18110  0.72030  0.35160  Biso   1.000  H
  H75      1.0000 0.27970  0.18110  0.35160  Biso   1.000  H
  H76      1.0000 0.81890  0.27970  0.35160  Biso   1.000  H
  H77      1.0000 0.22030  0.31890  0.85160  Biso   1.000  H
  H78      1.0000 0.68110  0.22030  0.85160  Biso   1.000  H
  H79      1.0000 0.77970  0.68110  0.85160  Biso   1.000  H
  H80      1.0000 0.31890  0.77970  0.85160  Biso   1.000  H
  H81      1.0000 0.21330  0.16180  0.70060  Biso   1.000  H
  H82      1.0000 0.83820  0.21330  0.70060  Biso   1.000  H
  H83      1.0000 0.78670  0.83820  0.70060  Biso   1.000  H
  H84      1.0000 0.16180  0.78670  0.70060  Biso   1.000  H
  H85      1.0000 0.71330  0.66180  0.20060  Biso   1.000  H
  H86      1.0000 0.33820  0.71330  0.20060  Biso   1.000  H
  H87      1.0000 0.28670  0.33820  0.20060  Biso   1.000  H
  H88      1.0000 0.66180  0.28670  0.20060  Biso   1.000  H
  H89      1.0000 0.78670  0.83820  0.29940  Biso   1.000  H
  H90      1.0000 0.16180  0.78670  0.29940  Biso   1.000  H
  H91      1.0000 0.21330  0.16180  0.29940  Biso   1.000  H
  H92      1.0000 0.83820  0.21330  0.29940  Biso   1.000  H
  H93      1.0000 0.28670  0.33820  0.79940  Biso   1.000  H
  H94      1.0000 0.66180  0.28670  0.79940  Biso   1.000  H
  H95      1.0000 0.71330  0.66180  0.79940  Biso   1.000  H
  H96      1.0000 0.33820  0.71330  0.79940  Biso   1.000  H
  C113     1.0000 0.27640  0.24640  0.82400  Biso   1.000  C
  C114     1.0000 0.75360  0.27640  0.82400  Biso   1.000  C
  C115     1.0000 0.72360  0.75360  0.82400  Biso   1.000  C
  C116     1.0000 0.24640  0.72360  0.82400  Biso   1.000  C
  C117     1.0000 0.77640  0.74640  0.32400  Biso   1.000  C
  C118     1.0000 0.25360  0.77640  0.32400  Biso   1.000  C
  C119     1.0000 0.22360  0.25360  0.32400  Biso   1.000  C
  C120     1.0000 0.74640  0.22360  0.32400  Biso   1.000  C
  C121     1.0000 0.72360  0.75360  0.17600  Biso   1.000  C
  C122     1.0000 0.24640  0.72360  0.17600  Biso   1.000  C
  C123     1.0000 0.27640  0.24640  0.17600  Biso   1.000  C
  C124     1.0000 0.75360  0.27640  0.17600  Biso   1.000  C
  C125     1.0000 0.22360  0.25360  0.67600  Biso   1.000  C
  C126     1.0000 0.74640  0.22360  0.67600  Biso   1.000  C
  C127     1.0000 0.77640  0.74640  0.67600  Biso   1.000  C
  C128     1.0000 0.25360  0.77640  0.67600  Biso   1.000  C
  H97      1.0000 0.31830  0.25720  0.85580  Biso   1.000  H
  H98      1.0000 0.74280  0.31830  0.85580  Biso   1.000  H
  H99      1.0000 0.68170  0.74280  0.85580  Biso   1.000  H
  H100     1.0000 0.25720  0.68170  0.85580  Biso   1.000  H
  H101     1.0000 0.81830  0.75720  0.35580  Biso   1.000  H
  H102     1.0000 0.24280  0.81830  0.35580  Biso   1.000  H
  H103     1.0000 0.18170  0.24280  0.35580  Biso   1.000  H
  H104     1.0000 0.75720  0.18170  0.35580  Biso   1.000  H
  H105     1.0000 0.68170  0.74280  0.14420  Biso   1.000  H
  H106     1.0000 0.25720  0.68170  0.14420  Biso   1.000  H
  H107     1.0000 0.31830  0.25720  0.14420  Biso   1.000  H
  H108     1.0000 0.74280  0.31830  0.14420  Biso   1.000  H
  H109     1.0000 0.18170  0.24280  0.64420  Biso   1.000  H
  H110     1.0000 0.75720  0.18170  0.64420  Biso   1.000  H
  H111     1.0000 0.81830  0.75720  0.64420  Biso   1.000  H
  H112     1.0000 0.24280  0.81830  0.64420  Biso   1.000  H
  H113     1.0000 0.24280  0.22070  0.85720  Biso   1.000  H
  H114     1.0000 0.77930  0.24280  0.85720  Biso   1.000  H
  H115     1.0000 0.75720  0.77930  0.85720  Biso   1.000  H
  H116     1.0000 0.22070  0.75720  0.85720  Biso   1.000  H
  H117     1.0000 0.74280  0.72070  0.35720  Biso   1.000  H
  H118     1.0000 0.27930  0.74280  0.35720  Biso   1.000  H
  H119     1.0000 0.25720  0.27930  0.35720  Biso   1.000  H
  H120     1.0000 0.72070  0.25720  0.35720  Biso   1.000  H
  H121     1.0000 0.75720  0.77930  0.14280  Biso   1.000  H
  H122     1.0000 0.22070  0.75720  0.14280  Biso   1.000  H
  H123     1.0000 0.24280  0.22070  0.14280  Biso   1.000  H
  H124     1.0000 0.77930  0.24280  0.14280  Biso   1.000  H
  H125     1.0000 0.25720  0.27930  0.64280  Biso   1.000  H
  H126     1.0000 0.72070  0.25720  0.64280  Biso   1.000  H
  H127     1.0000 0.74280  0.72070  0.64280  Biso   1.000  H
  H128     1.0000 0.27930  0.74280  0.64280  Biso   1.000  H
  O113     1.0000 0.22100  0.35700  0.00000  Biso   1.000  O
  O114     1.0000 0.64300  0.22100  0.00000  Biso   1.000  O
  O115     1.0000 0.77900  0.64300  0.00000  Biso   1.000  O
  O116     1.0000 0.35700  0.77900  0.00000  Biso   1.000  O
  O117     1.0000 0.72100  0.85700  0.50000  Biso   1.000  O
  O118     1.0000 0.14300  0.72100  0.50000  Biso   1.000  O
  O119     1.0000 0.27900  0.14300  0.50000  Biso   1.000  O
  O120     1.0000 0.85700  0.27900  0.50000  Biso   1.000  O
  O121     1.0000 0.10900  0.71500  0.00000  Biso   1.000  O
  O122     1.0000 0.28500  0.10900  0.00000  Biso   1.000  O
  O123     1.0000 0.89100  0.28500  0.00000  Biso   1.000  O
  O124     1.0000 0.71500  0.89100  0.00000  Biso   1.000  O
  O125     1.0000 0.60900  0.21500  0.50000  Biso   1.000  O
  O126     1.0000 0.78500  0.60900  0.50000  Biso   1.000  O
  O127     1.0000 0.39100  0.78500  0.50000  Biso   1.000  O
  O128     1.0000 0.21500  0.39100  0.50000  Biso   1.000  O
  O129     1.0000 0.22600  0.49100  0.00000  Biso   1.000  O
  O130     1.0000 0.50900  0.22600  0.00000  Biso   1.000  O
  O131     1.0000 0.77400  0.50900  0.00000  Biso   1.000  O
  O132     1.0000 0.49100  0.77400  0.00000  Biso   1.000  O
  O133     1.0000 0.72600  0.99100  0.50000  Biso   1.000  O
  O134     1.0000 0.00900  0.72600  0.50000  Biso   1.000  O
  O135     1.0000 0.27400  0.00900  0.50000  Biso   1.000  O
  O136     1.0000 0.99100  0.27400  0.50000  Biso   1.000  O
  O137     1.0000 0.00000  0.00000  0.33200  Biso   1.000  O
  O138     1.0000 0.50000  0.50000  0.83200  Biso   1.000  O
  O139     1.0000 0.00000  0.00000  0.66800  Biso   1.000  O
  O140     1.0000 0.50000  0.50000  0.16800  Biso   1.000  O
  C129     1.0000 0.21100  0.25600  0.18000  Biso   1.000  C
  C130     1.0000 0.74400  0.21100  0.18000  Biso   1.000  C
  C131     1.0000 0.78900  0.74400  0.18000  Biso   1.000  C
  C132     1.0000 0.25600  0.78900  0.18000  Biso   1.000  C
  C133     1.0000 0.71100  0.75600  0.68000  Biso   1.000  C
  C134     1.0000 0.24400  0.71100  0.68000  Biso   1.000  C
  C135     1.0000 0.28900  0.24400  0.68000  Biso   1.000  C
  C136     1.0000 0.75600  0.28900  0.68000  Biso   1.000  C
  C137     1.0000 0.78900  0.74400  0.82000  Biso   1.000  C
  C138     1.0000 0.25600  0.78900  0.82000  Biso   1.000  C
  C139     1.0000 0.21100  0.25600  0.82000  Biso   1.000  C
  C140     1.0000 0.74400  0.21100  0.82000  Biso   1.000  C
  C141     1.0000 0.28900  0.24400  0.32000  Biso   1.000  C
  C142     1.0000 0.75600  0.28900  0.32000  Biso   1.000  C
  C143     1.0000 0.71100  0.75600  0.32000  Biso   1.000  C
  C144     1.0000 0.24400  0.71100  0.32000  Biso   1.000  C
  H129     1.0000 0.18820  0.21360  0.15940  Biso   1.000  H
  H130     1.0000 0.78640  0.18820  0.15940  Biso   1.000  H
  H131     1.0000 0.81180  0.78640  0.15940  Biso   1.000  H
  H132     1.0000 0.21360  0.81180  0.15940  Biso   1.000  H
  H133     1.0000 0.68820  0.71360  0.65940  Biso   1.000  H
  H134     1.0000 0.28640  0.68820  0.65940  Biso   1.000  H
  H135     1.0000 0.31180  0.28640  0.65940  Biso   1.000  H
  H136     1.0000 0.71360  0.31180  0.65940  Biso   1.000  H
  H137     1.0000 0.81180  0.78640  0.84060  Biso   1.000  H
  H138     1.0000 0.21360  0.81180  0.84060  Biso   1.000  H
  H139     1.0000 0.18820  0.21360  0.84060  Biso   1.000  H
  H140     1.0000 0.78640  0.18820  0.84060  Biso   1.000  H
  H141     1.0000 0.31180  0.28640  0.34060  Biso   1.000  H
  H142     1.0000 0.71360  0.31180  0.34060  Biso   1.000  H
  H143     1.0000 0.68820  0.71360  0.34060  Biso   1.000  H
  H144     1.0000 0.28640  0.68820  0.34060  Biso   1.000  H
  H145     1.0000 0.19990  0.29550  0.14480  Biso   1.000  H
  H146     1.0000 0.70450  0.19990  0.14480  Biso   1.000  H
  H147     1.0000 0.80010  0.70450  0.14480  Biso   1.000  H
  H148     1.0000 0.29550  0.80010  0.14480  Biso   1.000  H
  H149     1.0000 0.69990  0.79550  0.64480  Biso   1.000  H
  H150     1.0000 0.20450  0.69990  0.64480  Biso   1.000  H
  H151     1.0000 0.30010  0.20450  0.64480  Biso   1.000  H
  H152     1.0000 0.79550  0.30010  0.64480  Biso   1.000  H
  H153     1.0000 0.80010  0.70450  0.85520  Biso   1.000  H
  H154     1.0000 0.29550  0.80010  0.85520  Biso   1.000  H
  H155     1.0000 0.19990  0.29550  0.85520  Biso   1.000  H
  H156     1.0000 0.70450  0.19990  0.85520  Biso   1.000  H
  H157     1.0000 0.30010  0.20450  0.35520  Biso   1.000  H
  H158     1.0000 0.79550  0.30010  0.35520  Biso   1.000  H
  H159     1.0000 0.69990  0.79550  0.35520  Biso   1.000  H
  H160     1.0000 0.20450  0.69990  0.35520  Biso   1.000  H
  N33      1.0000 0.18000  0.27100  0.25000  Biso   1.000  N
  N34      1.0000 0.72900  0.18000  0.25000  Biso   1.000  N
  N35      1.0000 0.82000  0.72900  0.25000  Biso   1.000  N
  N36      1.0000 0.27100  0.82000  0.25000  Biso   1.000  N
  N37      1.0000 0.68000  0.77100  0.75000  Biso   1.000  N
  N38      1.0000 0.22900  0.68000  0.75000  Biso   1.000  N
  N39      1.0000 0.32000  0.22900  0.75000  Biso   1.000  N
  N40      1.0000 0.77100  0.32000  0.75000  Biso   1.000  N
  N41      1.0000 0.82000  0.72900  0.75000  Biso   1.000  N
  N42      1.0000 0.27100  0.82000  0.75000  Biso   1.000  N
  N43      1.0000 0.18000  0.27100  0.75000  Biso   1.000  N
  N44      1.0000 0.72900  0.18000  0.75000  Biso   1.000  N
  N45      1.0000 0.32000  0.22900  0.25000  Biso   1.000  N
  N46      1.0000 0.77100  0.32000  0.25000  Biso   1.000  N
  N47      1.0000 0.68000  0.77100  0.25000  Biso   1.000  N
  N48      1.0000 0.22900  0.68000  0.25000  Biso   1.000  N
  O141     1.0000 0.00000  0.00000  0.42400  Biso   1.000  O
  O142     1.0000 0.50000  0.50000  0.92400  Biso   1.000  O
  O143     1.0000 0.00000  0.00000  0.57600  Biso   1.000  O
  O144     1.0000 0.50000  0.50000  0.07600  Biso   1.000  O
  O145     1.0000 0.14200  0.35800  0.33400  Biso   1.000  O
  O146     1.0000 0.64200  0.14200  0.33400  Biso   1.000  O
  O147     1.0000 0.85800  0.64200  0.33400  Biso   1.000  O
  O148     1.0000 0.35800  0.85800  0.33400  Biso   1.000  O
  O149     1.0000 0.64200  0.85800  0.83400  Biso   1.000  O
  O150     1.0000 0.14200  0.64200  0.83400  Biso   1.000  O
  O151     1.0000 0.35800  0.14200  0.83400  Biso   1.000  O
  O152     1.0000 0.85800  0.35800  0.83400  Biso   1.000  O
  O153     1.0000 0.85800  0.64200  0.66600  Biso   1.000  O
  O154     1.0000 0.35800  0.85800  0.66600  Biso   1.000  O
  O155     1.0000 0.14200  0.35800  0.66600  Biso   1.000  O
  O156     1.0000 0.64200  0.14200  0.66600  Biso   1.000  O
  O157     1.0000 0.35800  0.14200  0.16600  Biso   1.000  O
  O158     1.0000 0.85800  0.35800  0.16600  Biso   1.000  O
  O159     1.0000 0.64200  0.85800  0.16600  Biso   1.000  O
  O160     1.0000 0.14200  0.64200  0.16600  Biso   1.000  O
  O161     1.0000 0.99900  0.25500  0.00000  Biso   1.000  O
  O162     1.0000 0.74500  0.99900  0.00000  Biso   1.000  O
  O163     1.0000 0.00100  0.74500  0.00000  Biso   1.000  O
  O164     1.0000 0.25500  0.00100  0.00000  Biso   1.000  O
  O165     1.0000 0.49900  0.75500  0.50000  Biso   1.000  O
  O166     1.0000 0.24500  0.49900  0.50000  Biso   1.000  O
  O167     1.0000 0.50100  0.24500  0.50000  Biso   1.000  O
  O168     1.0000 0.75500  0.50100  0.50000  Biso   1.000  O
