data_image0
_cell_length_a       22.1808
_cell_length_b       11.7623
_cell_length_c       15.1987
_cell_angle_alpha    90
_cell_angle_beta     108.21
_cell_angle_gamma    90

_symmetry_space_group_name_H-M    "P 1"
_symmetry_int_tables_number       1

loop_
  _symmetry_equiv_pos_as_xyz
  'x, y, z'

loop_
  _atom_site_label
  _atom_site_occupancy
  _atom_site_fract_x
  _atom_site_fract_y
  _atom_site_fract_z
  _atom_site_thermal_displace_type
  _atom_site_B_iso_or_equiv
  _atom_site_type_symbol
  C1       1.0000 0.44399  0.92010  0.31426  Biso   1.000  C
  C2       1.0000 0.55601  0.92010  0.18574  Biso   1.000  C
  C3       1.0000 0.94399  0.42010  0.31426  Biso   1.000  C
  C4       1.0000 0.05601  0.42010  0.18574  Biso   1.000  C
  C5       1.0000 0.55601  0.07990  0.68574  Biso   1.000  C
  C6       1.0000 0.44399  0.07990  0.81426  Biso   1.000  C
  C7       1.0000 0.05601  0.57990  0.68574  Biso   1.000  C
  C8       1.0000 0.94399  0.57990  0.81426  Biso   1.000  C
  H1       1.0000 0.48420  0.94980  0.32230  Biso   1.000  H
  H2       1.0000 0.51580  0.94980  0.17770  Biso   1.000  H
  H3       1.0000 0.98420  0.44980  0.32230  Biso   1.000  H
  H4       1.0000 0.01580  0.44980  0.17770  Biso   1.000  H
  H5       1.0000 0.51580  0.05020  0.67770  Biso   1.000  H
  H6       1.0000 0.48420  0.05020  0.82230  Biso   1.000  H
  H7       1.0000 0.01580  0.55020  0.67770  Biso   1.000  H
  H8       1.0000 0.98420  0.55020  0.82230  Biso   1.000  H
  C9       1.0000 0.41670  0.83210  0.25253  Biso   1.000  C
  C10      1.0000 0.58330  0.83210  0.24747  Biso   1.000  C
  C11      1.0000 0.91670  0.33210  0.25253  Biso   1.000  C
  C12      1.0000 0.08330  0.33210  0.24747  Biso   1.000  C
  C13      1.0000 0.58330  0.16790  0.74747  Biso   1.000  C
  C14      1.0000 0.41670  0.16790  0.75253  Biso   1.000  C
  C15      1.0000 0.08330  0.66790  0.74747  Biso   1.000  C
  C16      1.0000 0.91670  0.66790  0.75253  Biso   1.000  C
  H9       1.0000 0.43500  0.79400  0.21370  Biso   1.000  H
  H10      1.0000 0.56500  0.79400  0.28630  Biso   1.000  H
  H11      1.0000 0.93500  0.29400  0.21370  Biso   1.000  H
  H12      1.0000 0.06500  0.29400  0.28630  Biso   1.000  H
  H13      1.0000 0.56500  0.20600  0.78630  Biso   1.000  H
  H14      1.0000 0.43500  0.20600  0.71370  Biso   1.000  H
  H15      1.0000 0.06500  0.70600  0.78630  Biso   1.000  H
  H16      1.0000 0.93500  0.70600  0.71370  Biso   1.000  H
  C17      1.0000 0.35788  0.81340  0.26063  Biso   1.000  C
  C18      1.0000 0.64212  0.81340  0.23937  Biso   1.000  C
  C19      1.0000 0.85788  0.31340  0.26063  Biso   1.000  C
  C20      1.0000 0.14212  0.31340  0.23937  Biso   1.000  C
  C21      1.0000 0.64212  0.18660  0.73937  Biso   1.000  C
  C22      1.0000 0.35788  0.18660  0.76063  Biso   1.000  C
  C23      1.0000 0.14212  0.68660  0.73937  Biso   1.000  C
  C24      1.0000 0.85788  0.68660  0.76063  Biso   1.000  C
  H17      1.0000 0.32830  0.76010  0.22810  Biso   1.000  H
  H18      1.0000 0.67170  0.76010  0.27190  Biso   1.000  H
  H19      1.0000 0.82830  0.26010  0.22810  Biso   1.000  H
  H20      1.0000 0.17170  0.26010  0.27190  Biso   1.000  H
  H21      1.0000 0.67170  0.23990  0.77190  Biso   1.000  H
  H22      1.0000 0.32830  0.23990  0.72810  Biso   1.000  H
  H23      1.0000 0.17170  0.73990  0.77190  Biso   1.000  H
  H24      1.0000 0.82830  0.73990  0.72810  Biso   1.000  H
  C25      1.0000 0.35041  0.89030  0.32761  Biso   1.000  C
  C26      1.0000 0.64959  0.89030  0.17239  Biso   1.000  C
  C27      1.0000 0.85041  0.39030  0.32761  Biso   1.000  C
  C28      1.0000 0.14959  0.39030  0.17239  Biso   1.000  C
  C29      1.0000 0.64959  0.10970  0.67239  Biso   1.000  C
  C30      1.0000 0.35041  0.10970  0.82761  Biso   1.000  C
  C31      1.0000 0.14959  0.60970  0.67239  Biso   1.000  C
  C32      1.0000 0.85041  0.60970  0.82761  Biso   1.000  C
  C33      1.0000 0.29630  0.90720  0.35537  Biso   1.000  C
  C34      1.0000 0.70370  0.90720  0.14463  Biso   1.000  C
  C35      1.0000 0.79630  0.40720  0.35537  Biso   1.000  C
  C36      1.0000 0.20370  0.40720  0.14463  Biso   1.000  C
  C37      1.0000 0.70370  0.09280  0.64463  Biso   1.000  C
  C38      1.0000 0.29630  0.09280  0.85537  Biso   1.000  C
  C39      1.0000 0.20370  0.59280  0.64463  Biso   1.000  C
  C40      1.0000 0.79630  0.59280  0.85537  Biso   1.000  C
  C41      1.0000 0.28991  0.98580  0.41939  Biso   1.000  C
  C42      1.0000 0.71009  0.98580  0.08061  Biso   1.000  C
  C43      1.0000 0.78991  0.48580  0.41939  Biso   1.000  C
  C44      1.0000 0.21009  0.48580  0.08061  Biso   1.000  C
  C45      1.0000 0.71009  0.01420  0.58061  Biso   1.000  C
  C46      1.0000 0.28991  0.01420  0.91939  Biso   1.000  C
  C47      1.0000 0.21009  0.51420  0.58061  Biso   1.000  C
  C48      1.0000 0.78991  0.51420  0.91939  Biso   1.000  C
  C49      1.0000 0.23760  0.00020  0.45430  Biso   1.000  C
  C50      1.0000 0.76240  0.00020  0.04570  Biso   1.000  C
  C51      1.0000 0.73760  0.50020  0.45430  Biso   1.000  C
  C52      1.0000 0.26240  0.50020  0.04570  Biso   1.000  C
  C53      1.0000 0.76240  0.99980  0.54570  Biso   1.000  C
  C54      1.0000 0.23760  0.99980  0.95430  Biso   1.000  C
  C55      1.0000 0.26240  0.49980  0.54570  Biso   1.000  C
  C56      1.0000 0.73760  0.49980  0.95430  Biso   1.000  C
  H25      1.0000 0.20000  0.95890  0.43680  Biso   1.000  H
  H26      1.0000 0.80000  0.95890  0.06320  Biso   1.000  H
  H27      1.0000 0.70000  0.45890  0.43680  Biso   1.000  H
  H28      1.0000 0.30000  0.45890  0.06320  Biso   1.000  H
  H29      1.0000 0.80000  0.04110  0.56320  Biso   1.000  H
  H30      1.0000 0.20000  0.04110  0.93680  Biso   1.000  H
  H31      1.0000 0.30000  0.54110  0.56320  Biso   1.000  H
  H32      1.0000 0.70000  0.54110  0.93680  Biso   1.000  H
  C57      1.0000 0.25303  0.08530  0.51750  Biso   1.000  C
  C58      1.0000 0.74697  0.08530  0.98250  Biso   1.000  C
  C59      1.0000 0.75303  0.58530  0.51750  Biso   1.000  C
  C60      1.0000 0.24697  0.58530  0.98250  Biso   1.000  C
  C61      1.0000 0.74697  0.91470  0.48250  Biso   1.000  C
  C62      1.0000 0.25303  0.91470  0.01750  Biso   1.000  C
  C63      1.0000 0.24697  0.41470  0.48250  Biso   1.000  C
  C64      1.0000 0.75303  0.41470  0.01750  Biso   1.000  C
  H33      1.0000 0.22830  0.11310  0.55210  Biso   1.000  H
  H34      1.0000 0.77170  0.11310  0.94790  Biso   1.000  H
  H35      1.0000 0.72830  0.61310  0.55210  Biso   1.000  H
  H36      1.0000 0.27170  0.61310  0.94790  Biso   1.000  H
  H37      1.0000 0.77170  0.88690  0.44790  Biso   1.000  H
  H38      1.0000 0.22830  0.88690  0.05210  Biso   1.000  H
  H39      1.0000 0.27170  0.38690  0.44790  Biso   1.000  H
  H40      1.0000 0.72830  0.38690  0.05210  Biso   1.000  H
  C65      1.0000 0.31374  0.12340  0.52050  Biso   1.000  C
  C66      1.0000 0.68626  0.12340  0.97950  Biso   1.000  C
  C67      1.0000 0.81374  0.62340  0.52050  Biso   1.000  C
  C68      1.0000 0.18626  0.62340  0.97950  Biso   1.000  C
  C69      1.0000 0.68626  0.87660  0.47950  Biso   1.000  C
  C70      1.0000 0.31374  0.87660  0.02050  Biso   1.000  C
  C71      1.0000 0.18626  0.37660  0.47950  Biso   1.000  C
  C72      1.0000 0.81374  0.37660  0.02050  Biso   1.000  C
  H41      1.0000 0.33520  0.18250  0.55800  Biso   1.000  H
  H42      1.0000 0.66480  0.18250  0.94200  Biso   1.000  H
  H43      1.0000 0.83520  0.68250  0.55800  Biso   1.000  H
  H44      1.0000 0.16480  0.68250  0.94200  Biso   1.000  H
  H45      1.0000 0.66480  0.81750  0.44200  Biso   1.000  H
  H46      1.0000 0.33520  0.81750  0.05800  Biso   1.000  H
  H47      1.0000 0.16480  0.31750  0.44200  Biso   1.000  H
  H48      1.0000 0.83520  0.31750  0.05800  Biso   1.000  H
  C73      1.0000 0.23943  0.83770  0.30522  Biso   1.000  C
  C74      1.0000 0.76057  0.83770  0.19478  Biso   1.000  C
  C75      1.0000 0.73943  0.33770  0.30522  Biso   1.000  C
  C76      1.0000 0.26057  0.33770  0.19478  Biso   1.000  C
  C77      1.0000 0.76057  0.16230  0.69478  Biso   1.000  C
  C78      1.0000 0.23943  0.16230  0.80522  Biso   1.000  C
  C79      1.0000 0.26057  0.66230  0.69478  Biso   1.000  C
  C80      1.0000 0.73943  0.66230  0.80522  Biso   1.000  C
  C81      1.0000 0.23486  0.72290  0.32010  Biso   1.000  C
  C82      1.0000 0.76514  0.72290  0.17990  Biso   1.000  C
  C83      1.0000 0.73486  0.22290  0.32010  Biso   1.000  C
  C84      1.0000 0.26514  0.22290  0.17990  Biso   1.000  C
  C85      1.0000 0.76514  0.27710  0.67990  Biso   1.000  C
  C86      1.0000 0.23486  0.27710  0.82010  Biso   1.000  C
  C87      1.0000 0.26514  0.77710  0.67990  Biso   1.000  C
  C88      1.0000 0.73486  0.77710  0.82010  Biso   1.000  C
  H49      1.0000 0.26590  0.68610  0.36720  Biso   1.000  H
  H50      1.0000 0.73410  0.68610  0.13280  Biso   1.000  H
  H51      1.0000 0.76590  0.18610  0.36720  Biso   1.000  H
  H52      1.0000 0.23410  0.18610  0.13280  Biso   1.000  H
  H53      1.0000 0.73410  0.31390  0.63280  Biso   1.000  H
  H54      1.0000 0.26590  0.31390  0.86720  Biso   1.000  H
  H55      1.0000 0.23410  0.81390  0.63280  Biso   1.000  H
  H56      1.0000 0.76590  0.81390  0.86720  Biso   1.000  H
  C89      1.0000 0.18348  0.66320  0.26398  Biso   1.000  C
  C90      1.0000 0.81652  0.66320  0.23602  Biso   1.000  C
  C91      1.0000 0.68348  0.16320  0.26398  Biso   1.000  C
  C92      1.0000 0.31652  0.16320  0.23602  Biso   1.000  C
  C93      1.0000 0.81652  0.33680  0.73602  Biso   1.000  C
  C94      1.0000 0.18348  0.33680  0.76398  Biso   1.000  C
  C95      1.0000 0.31652  0.83680  0.73602  Biso   1.000  C
  C96      1.0000 0.68348  0.83680  0.76398  Biso   1.000  C
  H57      1.0000 0.18060  0.58610  0.27530  Biso   1.000  H
  H58      1.0000 0.81940  0.58610  0.22470  Biso   1.000  H
  H59      1.0000 0.68060  0.08610  0.27530  Biso   1.000  H
  H60      1.0000 0.31940  0.08610  0.22470  Biso   1.000  H
  H61      1.0000 0.81940  0.41390  0.72470  Biso   1.000  H
  H62      1.0000 0.18060  0.41390  0.77530  Biso   1.000  H
  H63      1.0000 0.31940  0.91390  0.72470  Biso   1.000  H
  H64      1.0000 0.68060  0.91390  0.77530  Biso   1.000  H
  C97      1.0000 0.14158  0.82170  0.18266  Biso   1.000  C
  C98      1.0000 0.85842  0.82170  0.31734  Biso   1.000  C
  C99      1.0000 0.64158  0.32170  0.18266  Biso   1.000  C
  C100     1.0000 0.35842  0.32170  0.31734  Biso   1.000  C
  C101     1.0000 0.85842  0.17830  0.81734  Biso   1.000  C
  C102     1.0000 0.14158  0.17830  0.68266  Biso   1.000  C
  C103     1.0000 0.35842  0.67830  0.81734  Biso   1.000  C
  C104     1.0000 0.64158  0.67830  0.68266  Biso   1.000  C
  H65      1.0000 0.10950  0.85660  0.13590  Biso   1.000  H
  H66      1.0000 0.89050  0.85660  0.36410  Biso   1.000  H
  H67      1.0000 0.60950  0.35660  0.13590  Biso   1.000  H
  H68      1.0000 0.39050  0.35660  0.36410  Biso   1.000  H
  H69      1.0000 0.89050  0.14340  0.86410  Biso   1.000  H
  H70      1.0000 0.10950  0.14340  0.63590  Biso   1.000  H
  H71      1.0000 0.39050  0.64340  0.86410  Biso   1.000  H
  H72      1.0000 0.60950  0.64340  0.63590  Biso   1.000  H
  C105     1.0000 0.19064  0.88870  0.23608  Biso   1.000  C
  C106     1.0000 0.80936  0.88870  0.26392  Biso   1.000  C
  C107     1.0000 0.69064  0.38870  0.23608  Biso   1.000  C
  C108     1.0000 0.30936  0.38870  0.26392  Biso   1.000  C
  C109     1.0000 0.80936  0.11130  0.76392  Biso   1.000  C
  C110     1.0000 0.19064  0.11130  0.73608  Biso   1.000  C
  C111     1.0000 0.30936  0.61130  0.76392  Biso   1.000  C
  C112     1.0000 0.69064  0.61130  0.73608  Biso   1.000  C
  H73      1.0000 0.19090  0.96660  0.22580  Biso   1.000  H
  H74      1.0000 0.80910  0.96660  0.27420  Biso   1.000  H
  H75      1.0000 0.69090  0.46660  0.22580  Biso   1.000  H
  H76      1.0000 0.30910  0.46660  0.27420  Biso   1.000  H
  H77      1.0000 0.80910  0.03340  0.77420  Biso   1.000  H
  H78      1.0000 0.19090  0.03340  0.72580  Biso   1.000  H
  H79      1.0000 0.30910  0.53340  0.77420  Biso   1.000  H
  H80      1.0000 0.69090  0.53340  0.72580  Biso   1.000  H
  C113     1.0000 0.59536  0.19040  0.41220  Biso   1.000  C
  C114     1.0000 0.40464  0.19040  0.08780  Biso   1.000  C
  C115     1.0000 0.09536  0.69040  0.41220  Biso   1.000  C
  C116     1.0000 0.90464  0.69040  0.08780  Biso   1.000  C
  C117     1.0000 0.40464  0.80960  0.58780  Biso   1.000  C
  C118     1.0000 0.59536  0.80960  0.91220  Biso   1.000  C
  C119     1.0000 0.90464  0.30960  0.58780  Biso   1.000  C
  C120     1.0000 0.09536  0.30960  0.91220  Biso   1.000  C
  H81      1.0000 0.59990  0.11540  0.39010  Biso   1.000  H
  H82      1.0000 0.40010  0.11540  0.10990  Biso   1.000  H
  H83      1.0000 0.09990  0.61540  0.39010  Biso   1.000  H
  H84      1.0000 0.90010  0.61540  0.10990  Biso   1.000  H
  H85      1.0000 0.40010  0.88460  0.60990  Biso   1.000  H
  H86      1.0000 0.59990  0.88460  0.89010  Biso   1.000  H
  H87      1.0000 0.90010  0.38460  0.60990  Biso   1.000  H
  H88      1.0000 0.09990  0.38460  0.89010  Biso   1.000  H
  H89      1.0000 0.63300  0.21010  0.46150  Biso   1.000  H
  H90      1.0000 0.36700  0.21010  0.03850  Biso   1.000  H
  H91      1.0000 0.13300  0.71010  0.46150  Biso   1.000  H
  H92      1.0000 0.86700  0.71010  0.03850  Biso   1.000  H
  H93      1.0000 0.36700  0.78990  0.53850  Biso   1.000  H
  H94      1.0000 0.63300  0.78990  0.96150  Biso   1.000  H
  H95      1.0000 0.86700  0.28990  0.53850  Biso   1.000  H
  H96      1.0000 0.13300  0.28990  0.96150  Biso   1.000  H
  H97      1.0000 0.58910  0.24400  0.36240  Biso   1.000  H
  H98      1.0000 0.41090  0.24400  0.13760  Biso   1.000  H
  H99      1.0000 0.08910  0.74400  0.36240  Biso   1.000  H
  H100     1.0000 0.91090  0.74400  0.13760  Biso   1.000  H
  H101     1.0000 0.41090  0.75600  0.63760  Biso   1.000  H
  H102     1.0000 0.58910  0.75600  0.86240  Biso   1.000  H
  H103     1.0000 0.91090  0.25600  0.63760  Biso   1.000  H
  H104     1.0000 0.08910  0.25600  0.86240  Biso   1.000  H
  C121     1.0000 0.53930  0.19320  0.44717  Biso   1.000  C
  C122     1.0000 0.46070  0.19320  0.05283  Biso   1.000  C
  C123     1.0000 0.03930  0.69320  0.44717  Biso   1.000  C
  C124     1.0000 0.96070  0.69320  0.05283  Biso   1.000  C
  C125     1.0000 0.46070  0.80680  0.55283  Biso   1.000  C
  C126     1.0000 0.53930  0.80680  0.94717  Biso   1.000  C
  C127     1.0000 0.96070  0.30680  0.55283  Biso   1.000  C
  C128     1.0000 0.03930  0.30680  0.94717  Biso   1.000  C
  C129     1.0000 0.53245  0.28220  0.50620  Biso   1.000  C
  C130     1.0000 0.46755  0.28220  0.99380  Biso   1.000  C
  C131     1.0000 0.03245  0.78220  0.50620  Biso   1.000  C
  C132     1.0000 0.96755  0.78220  0.99380  Biso   1.000  C
  C133     1.0000 0.46755  0.71780  0.49380  Biso   1.000  C
  C134     1.0000 0.53245  0.71780  0.00620  Biso   1.000  C
  C135     1.0000 0.96755  0.21780  0.49380  Biso   1.000  C
  C136     1.0000 0.03245  0.21780  0.00620  Biso   1.000  C
  C137     1.0000 0.48084  0.29040  0.54212  Biso   1.000  C
  C138     1.0000 0.51916  0.29040  0.95788  Biso   1.000  C
  C139     1.0000 0.98084  0.79040  0.54212  Biso   1.000  C
  C140     1.0000 0.01916  0.79040  0.95788  Biso   1.000  C
  C141     1.0000 0.51916  0.70960  0.45788  Biso   1.000  C
  C142     1.0000 0.48084  0.70960  0.04212  Biso   1.000  C
  C143     1.0000 0.01916  0.20960  0.45788  Biso   1.000  C
  C144     1.0000 0.98084  0.20960  0.04212  Biso   1.000  C
  C145     1.0000 0.47914  0.38600  0.60660  Biso   1.000  C
  C146     1.0000 0.52086  0.38600  0.89340  Biso   1.000  C
  C147     1.0000 0.97914  0.88600  0.60660  Biso   1.000  C
  C148     1.0000 0.02086  0.88600  0.89340  Biso   1.000  C
  C149     1.0000 0.52086  0.61400  0.39340  Biso   1.000  C
  C150     1.0000 0.47914  0.61400  0.10660  Biso   1.000  C
  C151     1.0000 0.02086  0.11400  0.39340  Biso   1.000  C
  C152     1.0000 0.97914  0.11400  0.10660  Biso   1.000  C
  H105     1.0000 0.43790  0.38940  0.61460  Biso   1.000  H
  H106     1.0000 0.56210  0.38940  0.88540  Biso   1.000  H
  H107     1.0000 0.93790  0.88940  0.61460  Biso   1.000  H
  H108     1.0000 0.06210  0.88940  0.88540  Biso   1.000  H
  H109     1.0000 0.56210  0.61060  0.38540  Biso   1.000  H
  H110     1.0000 0.43790  0.61060  0.11460  Biso   1.000  H
  H111     1.0000 0.06210  0.11060  0.38540  Biso   1.000  H
  H112     1.0000 0.93790  0.11060  0.11460  Biso   1.000  H
  H113     1.0000 0.48780  0.45650  0.58100  Biso   1.000  H
  H114     1.0000 0.51220  0.45650  0.91900  Biso   1.000  H
  H115     1.0000 0.98780  0.95650  0.58100  Biso   1.000  H
  H116     1.0000 0.01220  0.95650  0.91900  Biso   1.000  H
  H117     1.0000 0.51220  0.54350  0.41900  Biso   1.000  H
  H118     1.0000 0.48780  0.54350  0.08100  Biso   1.000  H
  H119     1.0000 0.01220  0.04350  0.41900  Biso   1.000  H
  H120     1.0000 0.98780  0.04350  0.08100  Biso   1.000  H
  H121     1.0000 0.51060  0.37330  0.66560  Biso   1.000  H
  H122     1.0000 0.48940  0.37330  0.83440  Biso   1.000  H
  H123     1.0000 0.01060  0.87330  0.66560  Biso   1.000  H
  H124     1.0000 0.98940  0.87330  0.83440  Biso   1.000  H
  H125     1.0000 0.48940  0.62670  0.33440  Biso   1.000  H
  H126     1.0000 0.51060  0.62670  0.16560  Biso   1.000  H
  H127     1.0000 0.98940  0.12670  0.33440  Biso   1.000  H
  H128     1.0000 0.01060  0.12670  0.16560  Biso   1.000  H
  C153     1.0000 0.58214  0.36460  0.53560  Biso   1.000  C
  C154     1.0000 0.41786  0.36460  0.96440  Biso   1.000  C
  C155     1.0000 0.08214  0.86460  0.53560  Biso   1.000  C
  C156     1.0000 0.91786  0.86460  0.96440  Biso   1.000  C
  C157     1.0000 0.41786  0.63540  0.46440  Biso   1.000  C
  C158     1.0000 0.58214  0.63540  0.03560  Biso   1.000  C
  C159     1.0000 0.91786  0.13540  0.46440  Biso   1.000  C
  C160     1.0000 0.08214  0.13540  0.03560  Biso   1.000  C
  N1       1.0000 0.40521  0.95583  0.36000  Biso   1.000  N
  N2       1.0000 0.59479  0.95583  0.14000  Biso   1.000  N
  N3       1.0000 0.90521  0.45583  0.36000  Biso   1.000  N
  N4       1.0000 0.09479  0.45583  0.14000  Biso   1.000  N
  N5       1.0000 0.59479  0.04417  0.64000  Biso   1.000  N
  N6       1.0000 0.40521  0.04417  0.86000  Biso   1.000  N
  N7       1.0000 0.09479  0.54417  0.64000  Biso   1.000  N
  N8       1.0000 0.90521  0.54417  0.86000  Biso   1.000  N
  N9       1.0000 0.33693  0.06498  0.46339  Biso   1.000  N
  N10      1.0000 0.66307  0.06498  0.03661  Biso   1.000  N
  N11      1.0000 0.83693  0.56498  0.46339  Biso   1.000  N
  N12      1.0000 0.16307  0.56498  0.03661  Biso   1.000  N
  N13      1.0000 0.66307  0.93502  0.53661  Biso   1.000  N
  N14      1.0000 0.33693  0.93502  0.96339  Biso   1.000  N
  N15      1.0000 0.16307  0.43502  0.53661  Biso   1.000  N
  N16      1.0000 0.83693  0.43502  0.96339  Biso   1.000  N
  N17      1.0000 0.13765  0.71010  0.19433  Biso   1.000  N
  N18      1.0000 0.86235  0.71010  0.30567  Biso   1.000  N
  N19      1.0000 0.63765  0.21010  0.19433  Biso   1.000  N
  N20      1.0000 0.36235  0.21010  0.30567  Biso   1.000  N
  N21      1.0000 0.86235  0.28990  0.80567  Biso   1.000  N
  N22      1.0000 0.13765  0.28990  0.69433  Biso   1.000  N
  N23      1.0000 0.36235  0.78990  0.80567  Biso   1.000  N
  N24      1.0000 0.63765  0.78990  0.69433  Biso   1.000  N
  N25      1.0000 0.62186  0.43100  0.55898  Biso   1.000  N
  N26      1.0000 0.37814  0.43100  0.94102  Biso   1.000  N
  N27      1.0000 0.12186  0.93100  0.55898  Biso   1.000  N
  N28      1.0000 0.87814  0.93100  0.94102  Biso   1.000  N
  N29      1.0000 0.37814  0.56900  0.44102  Biso   1.000  N
  N30      1.0000 0.62186  0.56900  0.05898  Biso   1.000  N
  N31      1.0000 0.87814  0.06900  0.44102  Biso   1.000  N
  N32      1.0000 0.12186  0.06900  0.05898  Biso   1.000  N
  O1       1.0000 0.50015  0.11360  0.42088  Biso   1.000  O
  O2       1.0000 0.49985  0.11360  0.07912  Biso   1.000  O
  O3       1.0000 0.00015  0.61360  0.42088  Biso   1.000  O
  O4       1.0000 0.99985  0.61360  0.07912  Biso   1.000  O
  O5       1.0000 0.49985  0.88640  0.57912  Biso   1.000  O
  O6       1.0000 0.50015  0.88640  0.92088  Biso   1.000  O
  O7       1.0000 0.99985  0.38640  0.57912  Biso   1.000  O
  O8       1.0000 0.00015  0.38640  0.92088  Biso   1.000  O
  O9       1.0000 0.43473  0.22259  0.52225  Biso   1.000  O
  O10      1.0000 0.56527  0.22259  0.97775  Biso   1.000  O
  O11      1.0000 0.93473  0.72259  0.52225  Biso   1.000  O
  O12      1.0000 0.06527  0.72259  0.97775  Biso   1.000  O
  O13      1.0000 0.56527  0.77741  0.47775  Biso   1.000  O
  O14      1.0000 0.43473  0.77741  0.02225  Biso   1.000  O
  O15      1.0000 0.06527  0.27741  0.47775  Biso   1.000  O
  O16      1.0000 0.93473  0.27741  0.02225  Biso   1.000  O
  Cu1      1.0000 0.41578  0.09430  0.43448  Biso   1.000  Cu
  Cu2      1.0000 0.58421  0.09430  0.06552  Biso   1.000  Cu
  Cu3      1.0000 0.91578  0.59430  0.43448  Biso   1.000  Cu
  Cu4      1.0000 0.08421  0.59430  0.06552  Biso   1.000  Cu
  Cu5      1.0000 0.58421  0.90570  0.56552  Biso   1.000  Cu
  Cu6      1.0000 0.41578  0.90570  0.93448  Biso   1.000  Cu
  Cu7      1.0000 0.08421  0.40570  0.56552  Biso   1.000  Cu
  Cu8      1.0000 0.91578  0.40570  0.93448  Biso   1.000  Cu
