data_image0
_cell_length_a       15.827
_cell_length_b       17.156
_cell_length_c       18.372
_cell_angle_alpha    83.778
_cell_angle_beta     67.354
_cell_angle_gamma    64.708

_symmetry_space_group_name_H-M    "P 1"
_symmetry_int_tables_number       1

loop_
  _symmetry_equiv_pos_as_xyz
  'x, y, z'

loop_
  _atom_site_label
  _atom_site_occupancy
  _atom_site_fract_x
  _atom_site_fract_y
  _atom_site_fract_z
  _atom_site_thermal_displace_type
  _atom_site_B_iso_or_equiv
  _atom_site_type_symbol
  O1       1.0000 0.71674  0.89346  0.11798  Biso   1.000  O
  O2       1.0000 0.28326  0.10654  0.88202  Biso   1.000  O
  O3       1.0000 0.98992  0.03068  0.36294  Biso   1.000  O
  O4       1.0000 0.01008  0.96932  0.63706  Biso   1.000  O
  C1       1.0000 0.94351  0.50674  0.01616  Biso   1.000  C
  C2       1.0000 0.05649  0.49326  0.98384  Biso   1.000  C
  H1       1.0000 0.92820  0.49300  0.97420  Biso   1.000  H
  H2       1.0000 0.07180  0.50700  0.02580  Biso   1.000  H
  H3       1.0000 0.93200  0.46870  0.05820  Biso   1.000  H
  H4       1.0000 0.06800  0.53130  0.94180  Biso   1.000  H
  C3       1.0000 0.87608  0.60001  0.04718  Biso   1.000  C
  C4       1.0000 0.12392  0.39999  0.95282  Biso   1.000  C
  H5       1.0000 0.89320  0.61390  0.08790  Biso   1.000  H
  H6       1.0000 0.10680  0.38610  0.91210  Biso   1.000  H
  H7       1.0000 0.88700  0.63770  0.00460  Biso   1.000  H
  H8       1.0000 0.11300  0.36230  0.99540  Biso   1.000  H
  C5       1.0000 0.70039  0.70768  0.11127  Biso   1.000  C
  C6       1.0000 0.29961  0.29232  0.88873  Biso   1.000  C
  H9       1.0000 0.71230  0.71930  0.15610  Biso   1.000  H
  H10      1.0000 0.28770  0.28070  0.84390  Biso   1.000  H
  H11      1.0000 0.71780  0.74520  0.07040  Biso   1.000  H
  H12      1.0000 0.28220  0.25480  0.92960  Biso   1.000  H
  C7       1.0000 0.59076  0.72831  0.13607  Biso   1.000  C
  C8       1.0000 0.40924  0.27169  0.86393  Biso   1.000  C
  C9       1.0000 0.54756  0.68000  0.18885  Biso   1.000  C
  C10      1.0000 0.45244  0.32000  0.81115  Biso   1.000  C
  H13      1.0000 0.58580  0.63400  0.21090  Biso   1.000  H
  H14      1.0000 0.41420  0.36600  0.78910  Biso   1.000  H
  C11      1.0000 0.44554  0.70097  0.20877  Biso   1.000  C
  C12      1.0000 0.55446  0.29903  0.79123  Biso   1.000  C
  H15      1.0000 0.41720  0.66690  0.24300  Biso   1.000  H
  H16      1.0000 0.58280  0.33310  0.75700  Biso   1.000  H
  C13      1.0000 0.53078  0.79710  0.10585  Biso   1.000  C
  C14      1.0000 0.46922  0.20290  0.89415  Biso   1.000  C
  H17      1.0000 0.55830  0.83050  0.06990  Biso   1.000  H
  H18      1.0000 0.44170  0.16950  0.93010  Biso   1.000  H
  C15      1.0000 0.42985  0.81591  0.12934  Biso   1.000  C
  C16      1.0000 0.57015  0.18409  0.87066  Biso   1.000  C
  H19      1.0000 0.39020  0.86310  0.10920  Biso   1.000  H
  H20      1.0000 0.60980  0.13690  0.89080  Biso   1.000  H
  C17      1.0000 0.55565  0.99049  0.48679  Biso   1.000  C
  C18      1.0000 0.44435  0.00951  0.51321  Biso   1.000  C
  H21      1.0000 0.56150  0.04260  0.49490  Biso   1.000  H
  H22      1.0000 0.43850  0.95740  0.50510  Biso   1.000  H
  H23      1.0000 0.58540  0.94710  0.51880  Biso   1.000  H
  H24      1.0000 0.41460  0.05290  0.48120  Biso   1.000  H
  C19      1.0000 0.61149  0.95914  0.40220  Biso   1.000  C
  C20      1.0000 0.38851  0.04086  0.59780  Biso   1.000  C
  H25      1.0000 0.58200  0.00290  0.37030  Biso   1.000  H
  H26      1.0000 0.41800  0.99710  0.62970  Biso   1.000  H
  H27      1.0000 0.60450  0.90760  0.39410  Biso   1.000  H
  H28      1.0000 0.39550  0.09240  0.60590  Biso   1.000  H
  C21      1.0000 0.77749  0.90299  0.29170  Biso   1.000  C
  C22      1.0000 0.22251  0.09701  0.70830  Biso   1.000  C
  H29      1.0000 0.75360  0.94600  0.25690  Biso   1.000  H
  H30      1.0000 0.24640  0.05400  0.74310  Biso   1.000  H
  H31      1.0000 0.76690  0.85300  0.28490  Biso   1.000  H
  H32      1.0000 0.23310  0.14700  0.71510  Biso   1.000  H
  C23      1.0000 0.89082  0.87674  0.27047  Biso   1.000  C
  C24      1.0000 0.10918  0.12326  0.72953  Biso   1.000  C
  C25      1.0000 0.94023  0.91929  0.21802  Biso   1.000  C
  C26      1.0000 0.05977  0.08071  0.78198  Biso   1.000  C
  H33      1.0000 0.90560  0.96610  0.19440  Biso   1.000  H
  H34      1.0000 0.09440  0.03390  0.80560  Biso   1.000  H
  C27      1.0000 0.04151  0.89350  0.19957  Biso   1.000  C
  C28      1.0000 0.95849  0.10650  0.80043  Biso   1.000  C
  H35      1.0000 0.07450  0.92220  0.16170  Biso   1.000  H
  H36      1.0000 0.92550  0.07780  0.83830  Biso   1.000  H
  C29      1.0000 0.94321  0.80879  0.30551  Biso   1.000  C
  C30      1.0000 0.05679  0.19121  0.69449  Biso   1.000  C
  H37      1.0000 0.91120  0.77770  0.34080  Biso   1.000  H
  H38      1.0000 0.08880  0.22230  0.65920  Biso   1.000  H
  C31      1.0000 0.04509  0.78680  0.28766  Biso   1.000  C
  C32      1.0000 0.95491  0.21320  0.71234  Biso   1.000  C
  H39      1.0000 0.07940  0.74240  0.31340  Biso   1.000  H
  H40      1.0000 0.92060  0.25760  0.68660  Biso   1.000  H
  N1       1.0000 0.76762  0.61508  0.08050  Biso   1.000  N
  N2       1.0000 0.23238  0.38492  0.91950  Biso   1.000  N
  H41      1.0000 0.74650  0.57610  0.08190  Biso   1.000  H
  H42      1.0000 0.25350  0.42390  0.91810  Biso   1.000  H
  N3       1.0000 0.38621  0.76920  0.18002  Biso   1.000  N
  N4       1.0000 0.61379  0.23080  0.81998  Biso   1.000  N
  N5       1.0000 0.72047  0.93904  0.37553  Biso   1.000  N
  N6       1.0000 0.27953  0.06096  0.62447  Biso   1.000  N
  H43      1.0000 0.74750  0.94720  0.40490  Biso   1.000  H
  H44      1.0000 0.25250  0.05280  0.59510  Biso   1.000  H
  N7       1.0000 0.09550  0.82795  0.23428  Biso   1.000  N
  N8       1.0000 0.90450  0.17205  0.76572  Biso   1.000  N
  O5       1.0000 0.22247  0.77677  0.32554  Biso   1.000  O
  O6       1.0000 0.77753  0.22323  0.67446  Biso   1.000  O
  O7       1.0000 0.28329  0.64499  0.19442  Biso   1.000  O
  O8       1.0000 0.71671  0.35501  0.80558  Biso   1.000  O
  Cu1      1.0000 0.24170  0.79477  0.20661  Biso   1.000  Cu
  Cu2      1.0000 0.75830  0.20523  0.79339  Biso   1.000  Cu
  Cl1      1.0000 0.26674  0.80438  0.07204  Biso   1.000  Cl
  Cl2      1.0000 0.73326  0.19562  0.92796  Biso   1.000  Cl
  Cl3      1.0000 0.19181  0.94701  0.23792  Biso   1.000  Cl
  Cl4      1.0000 0.80819  0.05299  0.76208  Biso   1.000  Cl
  C33      1.0000 0.41162  0.81196  0.62793  Biso   1.000  C
  C34      1.0000 0.58838  0.18804  0.37207  Biso   1.000  C
  C35      1.0000 0.52304  0.70331  0.52513  Biso   1.000  C
  C36      1.0000 0.47696  0.29669  0.47487  Biso   1.000  C
  H45      1.0000 0.52240  0.64700  0.52140  Biso   1.000  H
  H46      1.0000 0.47760  0.35300  0.47860  Biso   1.000  H
  C37      1.0000 0.58008  0.70296  0.57805  Biso   1.000  C
  C38      1.0000 0.41992  0.29704  0.42195  Biso   1.000  C
  H47      1.0000 0.59950  0.64860  0.60380  Biso   1.000  H
  H48      1.0000 0.40050  0.35140  0.39620  Biso   1.000  H
  C39      1.0000 0.66690  0.72896  0.44992  Biso   1.000  C
  C40      1.0000 0.33310  0.27104  0.55008  Biso   1.000  C
  C41      1.0000 0.51350  0.78677  0.70973  Biso   1.000  C
  C42      1.0000 0.48650  0.21323  0.29027  Biso   1.000  C
  H49      1.0000 0.44620  0.81770  0.74860  Biso   1.000  H
  H50      1.0000 0.55380  0.18230  0.25140  Biso   1.000  H
  H51      1.0000 0.54300  0.73040  0.72860  Biso   1.000  H
  H52      1.0000 0.45700  0.26960  0.27140  Biso   1.000  H
  C43      1.0000 0.75034  0.70511  0.54457  Biso   1.000  C
  C44      1.0000 0.24966  0.29489  0.45543  Biso   1.000  C
  H53      1.0000 0.76600  0.65450  0.57480  Biso   1.000  H
  H54      1.0000 0.23400  0.34550  0.42520  Biso   1.000  H
  H55      1.0000 0.80890  0.69470  0.49620  Biso   1.000  H
  H56      1.0000 0.19110  0.30530  0.50380  Biso   1.000  H
  C45      1.0000 0.53050  0.91490  0.73402  Biso   1.000  C
  C46      1.0000 0.46950  0.08510  0.26598  Biso   1.000  C
  C47      1.0000 0.68411  0.79518  0.67594  Biso   1.000  C
  C48      1.0000 0.31589  0.20482  0.32406  Biso   1.000  C
  C49      1.0000 0.70485  0.87400  0.68972  Biso   1.000  C
  C50      1.0000 0.29515  0.12600  0.31028  Biso   1.000  C
  C51      1.0000 0.77165  0.83628  0.55258  Biso   1.000  C
  C52      1.0000 0.22835  0.16372  0.44742  Biso   1.000  C
  C53      1.0000 0.58110  0.02467  0.75652  Biso   1.000  C
  C54      1.0000 0.41890  0.97533  0.24348  Biso   1.000  C
  H57      1.0000 0.63230  0.01890  0.77600  Biso   1.000  H
  H58      1.0000 0.36770  0.98110  0.22400  Biso   1.000  H
  H59      1.0000 0.51730  0.04300  0.80130  Biso   1.000  H
  H60      1.0000 0.48270  0.95700  0.19870  Biso   1.000  H
  C55      1.0000 0.79794  0.95508  0.58757  Biso   1.000  C
  C56      1.0000 0.20206  0.04492  0.41243  Biso   1.000  C
  H61      1.0000 0.82260  0.96020  0.62680  Biso   1.000  H
  H62      1.0000 0.17740  0.03980  0.37320  Biso   1.000  H
  H63      1.0000 0.85470  0.93660  0.53740  Biso   1.000  H
  H64      1.0000 0.14530  0.06340  0.46260  Biso   1.000  H
  C57      1.0000 0.48522  0.15066  0.69494  Biso   1.000  C
  C58      1.0000 0.51478  0.84934  0.30506  Biso   1.000  C
  C59      1.0000 0.66063  0.10470  0.64592  Biso   1.000  C
  C60      1.0000 0.33937  0.89530  0.35408  Biso   1.000  C
  H65      1.0000 0.69960  0.11230  0.67290  Biso   1.000  H
  H66      1.0000 0.30040  0.88770  0.32710  Biso   1.000  H
  C61      1.0000 0.61485  0.18744  0.60489  Biso   1.000  C
  C62      1.0000 0.38515  0.81256  0.39511  Biso   1.000  C
  H67      1.0000 0.62480  0.23590  0.61820  Biso   1.000  H
  H68      1.0000 0.37520  0.76410  0.38180  Biso   1.000  H
  C63      1.0000 0.73305  0.07389  0.50970  Biso   1.000  C
  C64      1.0000 0.26695  0.92611  0.49030  Biso   1.000  C
  C65      1.0000 0.42996  0.28133  0.62398  Biso   1.000  C
  C66      1.0000 0.57004  0.71867  0.37602  Biso   1.000  C
  H69      1.0000 0.44650  0.32970  0.62350  Biso   1.000  H
  H70      1.0000 0.55350  0.67030  0.37650  Biso   1.000  H
  H71      1.0000 0.36640  0.29270  0.66780  Biso   1.000  H
  H72      1.0000 0.63360  0.70730  0.33220  Biso   1.000  H
  C67      1.0000 0.66065  0.21557  0.45808  Biso   1.000  C
  C68      1.0000 0.33935  0.78443  0.54192  Biso   1.000  C
  H73      1.0000 0.72240  0.19020  0.41200  Biso   1.000  H
  H74      1.0000 0.27760  0.80980  0.58800  Biso   1.000  H
  H75      1.0000 0.65530  0.27050  0.47300  Biso   1.000  H
  H76      1.0000 0.34470  0.72950  0.52700  Biso   1.000  H
  C69      1.0000 0.72460  0.71410  0.71706  Biso   1.000  C
  C70      1.0000 0.27540  0.28590  0.28294  Biso   1.000  C
  H77      1.0000 0.79670  0.69180  0.69820  Biso   1.000  H
  H78      1.0000 0.20330  0.30820  0.30180  Biso   1.000  H
  H79      1.0000 0.70610  0.67150  0.70600  Biso   1.000  H
  H80      1.0000 0.29390  0.32850  0.29400  Biso   1.000  H
  H81      1.0000 0.69650  0.72760  0.77310  Biso   1.000  H
  H82      1.0000 0.30350  0.27240  0.22690  Biso   1.000  H
  C71      1.0000 0.76824  0.85520  0.74084  Biso   1.000  C
  C72      1.0000 0.23176  0.14480  0.25916  Biso   1.000  C
  H83      1.0000 0.83360  0.80930  0.71500  Biso   1.000  H
  H84      1.0000 0.16640  0.19070  0.28500  Biso   1.000  H
  H85      1.0000 0.73490  0.83830  0.79150  Biso   1.000  H
  H86      1.0000 0.26510  0.16170  0.20850  Biso   1.000  H
  H87      1.0000 0.77570  0.90620  0.74780  Biso   1.000  H
  H88      1.0000 0.22430  0.09380  0.25220  Biso   1.000  H
  C73      1.0000 0.85492  0.52364  0.24485  Biso   1.000  C
  C74      1.0000 0.14508  0.47636  0.75515  Biso   1.000  C
  C75      1.0000 0.96550  0.38678  0.26331  Biso   1.000  C
  C76      1.0000 0.03450  0.61322  0.73669  Biso   1.000  C
  H89      1.0000 0.95430  0.35850  0.31330  Biso   1.000  H
  H90      1.0000 0.04570  0.64150  0.68670  Biso   1.000  H
  C77      1.0000 0.00947  0.45317  0.26158  Biso   1.000  C
  C78      1.0000 0.99053  0.54683  0.73842  Biso   1.000  C
  H91      1.0000 0.01540  0.45830  0.31190  Biso   1.000  H
  H92      1.0000 0.98460  0.54170  0.68810  Biso   1.000  H
  C79      1.0000 0.12458  0.34424  0.15931  Biso   1.000  C
  C80      1.0000 0.87542  0.65576  0.84069  Biso   1.000  C
  C81      1.0000 0.93474  0.61621  0.25627  Biso   1.000  C
  C82      1.0000 0.06526  0.38379  0.74373  Biso   1.000  C
  H93      1.0000 0.95570  0.61500  0.29970  Biso   1.000  H
  H94      1.0000 0.04430  0.38500  0.70030  Biso   1.000  H
  H95      1.0000 0.86550  0.65920  0.27120  Biso   1.000  H
  H96      1.0000 0.13450  0.34080  0.72880  Biso   1.000  H
  C83      1.0000 0.18294  0.44894  0.18026  Biso   1.000  C
  C84      1.0000 0.81706  0.55106  0.81974  Biso   1.000  C
  H97      1.0000 0.24810  0.40320  0.15100  Biso   1.000  H
  H98      1.0000 0.75190  0.59680  0.84900  Biso   1.000  H
  H99      1.0000 0.18440  0.46220  0.22960  Biso   1.000  H
  H100     1.0000 0.81560  0.53780  0.77040  Biso   1.000  H
  C85      1.0000 0.96320  0.70999  0.14520  Biso   1.000  C
  C86      1.0000 0.03680  0.29001  0.85480  Biso   1.000  C
  C87      1.0000 0.10664  0.61123  0.16992  Biso   1.000  C
  C88      1.0000 0.89336  0.38877  0.83008  Biso   1.000  C
  H101     1.0000 0.11890  0.62070  0.21590  Biso   1.000  H
  H102     1.0000 0.88110  0.37930  0.78410  Biso   1.000  H
  C89      1.0000 0.13815  0.66814  0.10061  Biso   1.000  C
  C90      1.0000 0.86185  0.33186  0.89939  Biso   1.000  C
  H103     1.0000 0.16880  0.70110  0.11340  Biso   1.000  H
  H104     1.0000 0.83120  0.29890  0.88660  Biso   1.000  H
  C91      1.0000 0.22908  0.52178  0.05791  Biso   1.000  C
  C92      1.0000 0.77092  0.47822  0.94209  Biso   1.000  C
  C93      1.0000 0.03447  0.79535  0.04052  Biso   1.000  C
  C94      1.0000 0.96553  0.20465  0.95948  Biso   1.000  C
  H105     1.0000 0.96650  0.84060  0.06220  Biso   1.000  H
  H106     1.0000 0.03350  0.15940  0.93780  Biso   1.000  H
  H107     1.0000 0.08060  0.81920  0.03940  Biso   1.000  H
  H108     1.0000 0.91940  0.18080  0.96060  Biso   1.000  H
  C95      1.0000 0.27050  0.62420  0.96114  Biso   1.000  C
  C96      1.0000 0.72950  0.37580  0.03886  Biso   1.000  C
  H109     1.0000 0.33360  0.57380  0.93840  Biso   1.000  H
  H110     1.0000 0.66640  0.42620  0.06160  Biso   1.000  H
  H111     1.0000 0.28620  0.67000  0.97080  Biso   1.000  H
  H112     1.0000 0.71380  0.33000  0.02920  Biso   1.000  H
  C97      1.0000 0.98022  0.77359  0.93838  Biso   1.000  C
  C98      1.0000 0.01978  0.22641  0.06162  Biso   1.000  C
  C99      1.0000 0.15484  0.73990  0.89605  Biso   1.000  C
  C100     1.0000 0.84516  0.26010  0.10395  Biso   1.000  C
  C101     1.0000 0.12920  0.72817  0.82394  Biso   1.000  C
  C102     1.0000 0.87080  0.27183  0.17606  Biso   1.000  C
  C103     1.0000 0.24080  0.59431  0.84750  Biso   1.000  C
  C104     1.0000 0.75920  0.40569  0.15250  Biso   1.000  C
  C105     1.0000 0.95800  0.75426  0.81749  Biso   1.000  C
  C106     1.0000 0.04200  0.24574  0.18251  Biso   1.000  C
  H113     1.0000 0.88940  0.79440  0.84770  Biso   1.000  H
  H114     1.0000 0.11060  0.20560  0.15230  Biso   1.000  H
  H115     1.0000 0.98080  0.77830  0.76730  Biso   1.000  H
  H116     1.0000 0.01920  0.22170  0.23270  Biso   1.000  H
  C107     1.0000 0.20540  0.59188  0.73137  Biso   1.000  C
  C108     1.0000 0.79460  0.40812  0.26863  Biso   1.000  C
  H117     1.0000 0.27070  0.54270  0.71440  Biso   1.000  H
  H118     1.0000 0.72930  0.45730  0.28560  Biso   1.000  H
  H119     1.0000 0.20470  0.62960  0.68810  Biso   1.000  H
  H120     1.0000 0.79530  0.37040  0.31190  Biso   1.000  H
  C109     1.0000 0.20860  0.79859  0.88423  Biso   1.000  C
  C110     1.0000 0.79140  0.20141  0.11577  Biso   1.000  C
  H121     1.0000 0.16500  0.85650  0.87850  Biso   1.000  H
  H122     1.0000 0.83500  0.14350  0.12150  Biso   1.000  H
  H123     1.0000 0.26910  0.77830  0.83750  Biso   1.000  H
  H124     1.0000 0.73090  0.22170  0.16250  Biso   1.000  H
  H125     1.0000 0.22550  0.79800  0.92920  Biso   1.000  H
  H126     1.0000 0.77450  0.20200  0.07080  Biso   1.000  H
  C111     1.0000 0.15110  0.78650  0.75536  Biso   1.000  C
  C112     1.0000 0.84890  0.21350  0.24464  Biso   1.000  C
  H127     1.0000 0.10770  0.84590  0.77350  Biso   1.000  H
  H128     1.0000 0.89230  0.15410  0.22650  Biso   1.000  H
  H129     1.0000 0.13880  0.77200  0.71250  Biso   1.000  H
  H130     1.0000 0.86120  0.22800  0.28750  Biso   1.000  H
  H131     1.0000 0.22020  0.77770  0.73760  Biso   1.000  H
  H132     1.0000 0.77980  0.22230  0.26240  Biso   1.000  H
  N9       1.0000 0.42428  0.76874  0.56317  Biso   1.000  N
  N10      1.0000 0.57572  0.23126  0.43683  Biso   1.000  N
  N11      1.0000 0.50584  0.77532  0.63504  Biso   1.000  N
  N12      1.0000 0.49416  0.22468  0.36496  Biso   1.000  N
  N13      1.0000 0.58251  0.72434  0.44983  Biso   1.000  N
  N14      1.0000 0.41749  0.27566  0.55017  Biso   1.000  N
  N15      1.0000 0.66660  0.71541  0.52451  Biso   1.000  N
  N16      1.0000 0.33340  0.28459  0.47549  Biso   1.000  N
  N17      1.0000 0.57327  0.83308  0.70377  Biso   1.000  N
  N18      1.0000 0.42673  0.16692  0.29623  Biso   1.000  N
  N19      1.0000 0.60502  0.94164  0.72610  Biso   1.000  N
  N20      1.0000 0.39498  0.05836  0.27390  Biso   1.000  N
  N21      1.0000 0.73252  0.77781  0.58920  Biso   1.000  N
  N22      1.0000 0.26748  0.22219  0.41080  Biso   1.000  N
  N23      1.0000 0.76056  0.88972  0.60899  Biso   1.000  N
  N24      1.0000 0.23944  0.11028  0.39101  Biso   1.000  N
  N25      1.0000 0.57377  0.09157  0.70199  Biso   1.000  N
  N26      1.0000 0.42623  0.90843  0.29801  Biso   1.000  N
  N27      1.0000 0.50805  0.20342  0.63660  Biso   1.000  N
  N28      1.0000 0.49195  0.79658  0.36340  Biso   1.000  N
  N29      1.0000 0.72525  0.03833  0.58100  Biso   1.000  N
  N30      1.0000 0.27475  0.96167  0.41900  Biso   1.000  N
  N31      1.0000 0.66795  0.15952  0.52196  Biso   1.000  N
  N32      1.0000 0.33205  0.84048  0.47804  Biso   1.000  N
  N33      1.0000 0.87355  0.43930  0.25275  Biso   1.000  N
  N34      1.0000 0.12645  0.56070  0.74725  Biso   1.000  N
  N35      1.0000 0.93793  0.53284  0.24548  Biso   1.000  N
  N36      1.0000 0.06207  0.46716  0.75452  Biso   1.000  N
  N37      1.0000 0.04188  0.32631  0.19687  Biso   1.000  N
  N38      1.0000 0.95812  0.67369  0.80313  Biso   1.000  N
  N39      1.0000 0.10708  0.41762  0.19762  Biso   1.000  N
  N40      1.0000 0.89292  0.58238  0.80238  Biso   1.000  N
  N41      1.0000 0.99765  0.64283  0.18713  Biso   1.000  N
  N42      1.0000 0.00235  0.35717  0.81287  Biso   1.000  N
  N43      1.0000 0.04341  0.72431  0.09281  Biso   1.000  N
  N44      1.0000 0.95659  0.27569  0.90719  Biso   1.000  N
  N45      1.0000 0.16853  0.52477  0.13524  Biso   1.000  N
  N46      1.0000 0.83147  0.47523  0.86476  Biso   1.000  N
  N47      1.0000 0.21014  0.60401  0.03512  Biso   1.000  N
  N48      1.0000 0.78986  0.39599  0.96488  Biso   1.000  N
  N49      1.0000 0.05573  0.77066  0.96022  Biso   1.000  N
  N50      1.0000 0.94427  0.22934  0.03978  Biso   1.000  N
  N51      1.0000 0.02280  0.74631  0.86066  Biso   1.000  N
  N52      1.0000 0.97720  0.25369  0.13934  Biso   1.000  N
  N53      1.0000 0.22107  0.65129  0.90458  Biso   1.000  N
  N54      1.0000 0.77893  0.34871  0.09542  Biso   1.000  N
  N55      1.0000 0.19444  0.63744  0.79736  Biso   1.000  N
  N56      1.0000 0.80556  0.36256  0.20264  Biso   1.000  N
  O9       1.0000 0.33766  0.86973  0.66891  Biso   1.000  O
  O10      1.0000 0.66234  0.13027  0.33109  Biso   1.000  O
  O11      1.0000 0.43928  0.96194  0.76377  Biso   1.000  O
  O12      1.0000 0.56072  0.03806  0.23623  Biso   1.000  O
  O13      1.0000 0.40034  0.15611  0.73646  Biso   1.000  O
  O14      1.0000 0.59966  0.84389  0.26354  Biso   1.000  O
  O15      1.0000 0.73055  0.74273  0.39371  Biso   1.000  O
  O16      1.0000 0.26945  0.25727  0.60629  Biso   1.000  O
  O17      1.0000 0.81181  0.84004  0.48155  Biso   1.000  O
  O18      1.0000 0.18819  0.15996  0.51845  Biso   1.000  O
  O19      1.0000 0.78892  0.03441  0.44398  Biso   1.000  O
  O20      1.0000 0.21108  0.96559  0.55602  Biso   1.000  O
  O21      1.0000 0.78025  0.58331  0.23796  Biso   1.000  O
  O22      1.0000 0.21975  0.41669  0.76204  Biso   1.000  O
  O23      1.0000 0.87403  0.75292  0.15509  Biso   1.000  O
  O24      1.0000 0.12597  0.24708  0.84491  Biso   1.000  O
  O25      1.0000 0.89343  0.79255  0.98209  Biso   1.000  O
  O26      1.0000 0.10657  0.20745  0.01791  Biso   1.000  O
  O27      1.0000 0.20135  0.30217  0.10303  Biso   1.000  O
  O28      1.0000 0.79865  0.69783  0.89697  Biso   1.000  O
  O29      1.0000 0.29202  0.45488  0.01582  Biso   1.000  O
  O30      1.0000 0.70798  0.54512  0.98418  Biso   1.000  O
  O31      1.0000 0.29476  0.51703  0.84230  Biso   1.000  O
  O32      1.0000 0.70524  0.48297  0.15770  Biso   1.000  O
