data_image0
_cell_length_a       8.678
_cell_length_b       19.302
_cell_length_c       11.5537
_cell_angle_alpha    90
_cell_angle_beta     108.72
_cell_angle_gamma    90

_symmetry_space_group_name_H-M    "P 1"
_symmetry_int_tables_number       1

loop_
  _symmetry_equiv_pos_as_xyz
  'x, y, z'

loop_
  _atom_site_label
  _atom_site_occupancy
  _atom_site_fract_x
  _atom_site_fract_y
  _atom_site_fract_z
  _atom_site_thermal_displace_type
  _atom_site_B_iso_or_equiv
  _atom_site_type_symbol
  Cu1      1.0000 0.50306  0.07051  0.07240  Biso   1.000  Cu
  Cu2      1.0000 0.49694  0.57051  0.42760  Biso   1.000  Cu
  Cu3      1.0000 0.49694  0.92949  0.92760  Biso   1.000  Cu
  Cu4      1.0000 0.50306  0.42949  0.57240  Biso   1.000  Cu
  N1       1.0000 0.38670  0.12610  0.93060  Biso   1.000  N
  N2       1.0000 0.61330  0.62610  0.56940  Biso   1.000  N
  N3       1.0000 0.61330  0.87390  0.06940  Biso   1.000  N
  N4       1.0000 0.38670  0.37390  0.43060  Biso   1.000  N
  N5       1.0000 0.67480  0.03230  0.22520  Biso   1.000  N
  N6       1.0000 0.32520  0.53230  0.27480  Biso   1.000  N
  N7       1.0000 0.32520  0.96770  0.77480  Biso   1.000  N
  N8       1.0000 0.67480  0.46770  0.72520  Biso   1.000  N
  O1       1.0000 0.63200  0.04010  0.97260  Biso   1.000  O
  O2       1.0000 0.36800  0.54010  0.52740  Biso   1.000  O
  O3       1.0000 0.36800  0.95990  0.02740  Biso   1.000  O
  O4       1.0000 0.63200  0.45990  0.47260  Biso   1.000  O
  O5       1.0000 0.37750  0.10490  0.17000  Biso   1.000  O
  O6       1.0000 0.62250  0.60490  0.33000  Biso   1.000  O
  O7       1.0000 0.62250  0.89510  0.83000  Biso   1.000  O
  O8       1.0000 0.37750  0.39510  0.67000  Biso   1.000  O
  C1       1.0000 0.60550  0.08120  0.87450  Biso   1.000  C
  C2       1.0000 0.39450  0.58120  0.62550  Biso   1.000  C
  C3       1.0000 0.39450  0.91880  0.12550  Biso   1.000  C
  C4       1.0000 0.60550  0.41880  0.37450  Biso   1.000  C
  C5       1.0000 0.70350  0.07800  0.79840  Biso   1.000  C
  C6       1.0000 0.29650  0.57800  0.70160  Biso   1.000  C
  C7       1.0000 0.29650  0.92200  0.20160  Biso   1.000  C
  C8       1.0000 0.70350  0.42200  0.29840  Biso   1.000  C
  H1       1.0000 0.79020  0.04550  0.81560  Biso   1.000  H
  H2       1.0000 0.20980  0.54550  0.68440  Biso   1.000  H
  H3       1.0000 0.20980  0.95450  0.18440  Biso   1.000  H
  H4       1.0000 0.79020  0.45450  0.31560  Biso   1.000  H
  C9       1.0000 0.67470  0.12180  0.69830  Biso   1.000  C
  C10      1.0000 0.32530  0.62180  0.80170  Biso   1.000  C
  C11      1.0000 0.32530  0.87820  0.30170  Biso   1.000  C
  C12      1.0000 0.67470  0.37820  0.19830  Biso   1.000  C
  H5       1.0000 0.74060  0.11850  0.64680  Biso   1.000  H
  H6       1.0000 0.25940  0.61850  0.85320  Biso   1.000  H
  H7       1.0000 0.25940  0.88150  0.35320  Biso   1.000  H
  H8       1.0000 0.74060  0.38150  0.14680  Biso   1.000  H
  C13      1.0000 0.54940  0.17090  0.67250  Biso   1.000  C
  C14      1.0000 0.45060  0.67090  0.82750  Biso   1.000  C
  C15      1.0000 0.45060  0.82910  0.32750  Biso   1.000  C
  C16      1.0000 0.54940  0.32910  0.17250  Biso   1.000  C
  H9       1.0000 0.53060  0.20120  0.60460  Biso   1.000  H
  H10      1.0000 0.46940  0.70120  0.89540  Biso   1.000  H
  H11      1.0000 0.46940  0.79880  0.39540  Biso   1.000  H
  H12      1.0000 0.53060  0.29880  0.10460  Biso   1.000  H
  C17      1.0000 0.45280  0.17460  0.74800  Biso   1.000  C
  C18      1.0000 0.54720  0.67460  0.75200  Biso   1.000  C
  C19      1.0000 0.54720  0.82540  0.25200  Biso   1.000  C
  C20      1.0000 0.45280  0.32540  0.24800  Biso   1.000  C
  H13      1.0000 0.37120  0.20930  0.73340  Biso   1.000  H
  H14      1.0000 0.62880  0.70930  0.76660  Biso   1.000  H
  H15      1.0000 0.62880  0.79070  0.26660  Biso   1.000  H
  H16      1.0000 0.37120  0.29070  0.23340  Biso   1.000  H
  C21      1.0000 0.47350  0.12840  0.84460  Biso   1.000  C
  C22      1.0000 0.52650  0.62840  0.65540  Biso   1.000  C
  C23      1.0000 0.52650  0.87160  0.15540  Biso   1.000  C
  C24      1.0000 0.47350  0.37160  0.34460  Biso   1.000  C
  C25      1.0000 0.23230  0.14490  0.90600  Biso   1.000  C
  C26      1.0000 0.76770  0.64490  0.59400  Biso   1.000  C
  C27      1.0000 0.76770  0.85510  0.09400  Biso   1.000  C
  C28      1.0000 0.23230  0.35510  0.40600  Biso   1.000  C
  C29      1.0000 0.12420  0.16540  0.78000  Biso   1.000  C
  C30      1.0000 0.87580  0.66540  0.72000  Biso   1.000  C
  C31      1.0000 0.87580  0.83460  0.22000  Biso   1.000  C
  C32      1.0000 0.12420  0.33460  0.28000  Biso   1.000  C
  H17      1.0000 0.14970  0.21300  0.76240  Biso   1.000  H
  H18      1.0000 0.85030  0.71300  0.73760  Biso   1.000  H
  H19      1.0000 0.85030  0.78700  0.23760  Biso   1.000  H
  H20      1.0000 0.14970  0.28700  0.26240  Biso   1.000  H
  H21      1.0000 0.01000  0.16280  0.77640  Biso   1.000  H
  H22      1.0000 0.99000  0.66280  0.72360  Biso   1.000  H
  H23      1.0000 0.99000  0.83720  0.22360  Biso   1.000  H
  H24      1.0000 0.01000  0.33720  0.27640  Biso   1.000  H
  H25      1.0000 0.14270  0.13390  0.71930  Biso   1.000  H
  H26      1.0000 0.85730  0.63390  0.78070  Biso   1.000  H
  H27      1.0000 0.85730  0.86610  0.28070  Biso   1.000  H
  H28      1.0000 0.14270  0.36610  0.21930  Biso   1.000  H
  C33      1.0000 0.15990  0.14640  0.99860  Biso   1.000  C
  C34      1.0000 0.84010  0.64640  0.50140  Biso   1.000  C
  C35      1.0000 0.84010  0.85360  0.00140  Biso   1.000  C
  C36      1.0000 0.15990  0.35360  0.49860  Biso   1.000  C
  H29      1.0000 0.04850  0.15950  0.97400  Biso   1.000  H
  H30      1.0000 0.95150  0.65950  0.52600  Biso   1.000  H
  H31      1.0000 0.95150  0.84050  0.02600  Biso   1.000  H
  H32      1.0000 0.04850  0.34050  0.47400  Biso   1.000  H
  C37      1.0000 0.23170  0.13100  0.12290  Biso   1.000  C
  C38      1.0000 0.76830  0.63100  0.37710  Biso   1.000  C
  C39      1.0000 0.76830  0.86900  0.87710  Biso   1.000  C
  C40      1.0000 0.23170  0.36900  0.62290  Biso   1.000  C
  C41      1.0000 0.14320  0.14520  0.21200  Biso   1.000  C
  C42      1.0000 0.85680  0.64520  0.28800  Biso   1.000  C
  C43      1.0000 0.85680  0.85480  0.78800  Biso   1.000  C
  C44      1.0000 0.14320  0.35480  0.71200  Biso   1.000  C
  C45      1.0000 0.97730  0.16200  0.17540  Biso   1.000  C
  C46      1.0000 0.02270  0.66200  0.32460  Biso   1.000  C
  C47      1.0000 0.02270  0.83800  0.82460  Biso   1.000  C
  C48      1.0000 0.97730  0.33800  0.67540  Biso   1.000  C
  H33      1.0000 0.91670  0.16120  0.09080  Biso   1.000  H
  H34      1.0000 0.08330  0.66120  0.40920  Biso   1.000  H
  H35      1.0000 0.08330  0.83880  0.90920  Biso   1.000  H
  H36      1.0000 0.91670  0.33880  0.59080  Biso   1.000  H
  C49      1.0000 0.89810  0.17990  0.25860  Biso   1.000  C
  C50      1.0000 0.10190  0.67990  0.24140  Biso   1.000  C
  C51      1.0000 0.10190  0.82010  0.74140  Biso   1.000  C
  C52      1.0000 0.89810  0.32010  0.75860  Biso   1.000  C
  H37      1.0000 0.78670  0.19300  0.23120  Biso   1.000  H
  H38      1.0000 0.21330  0.69300  0.26880  Biso   1.000  H
  H39      1.0000 0.21330  0.80700  0.76880  Biso   1.000  H
  H40      1.0000 0.78670  0.30700  0.73120  Biso   1.000  H
  C53      1.0000 0.98520  0.17810  0.38210  Biso   1.000  C
  C54      1.0000 0.01480  0.67810  0.11790  Biso   1.000  C
  C55      1.0000 0.01480  0.82190  0.61790  Biso   1.000  C
  C56      1.0000 0.98520  0.32190  0.88210  Biso   1.000  C
  C57      1.0000 0.14840  0.16020  0.42260  Biso   1.000  C
  C58      1.0000 0.85160  0.66020  0.07740  Biso   1.000  C
  C59      1.0000 0.85160  0.83980  0.57740  Biso   1.000  C
  C60      1.0000 0.14840  0.33980  0.92260  Biso   1.000  C
  H41      1.0000 0.20580  0.15820  0.50780  Biso   1.000  H
  H42      1.0000 0.79420  0.65820  0.99220  Biso   1.000  H
  H43      1.0000 0.79420  0.84180  0.49220  Biso   1.000  H
  H44      1.0000 0.20580  0.34180  0.00780  Biso   1.000  H
  C61      1.0000 0.22830  0.14520  0.33830  Biso   1.000  C
  C62      1.0000 0.77170  0.64520  0.16170  Biso   1.000  C
  C63      1.0000 0.77170  0.85480  0.66170  Biso   1.000  C
  C64      1.0000 0.22830  0.35480  0.83830  Biso   1.000  C
  H45      1.0000 0.34140  0.13490  0.36640  Biso   1.000  H
  H46      1.0000 0.65860  0.63490  0.13360  Biso   1.000  H
  H47      1.0000 0.65860  0.86510  0.63360  Biso   1.000  H
  H48      1.0000 0.34140  0.36510  0.86640  Biso   1.000  H
  O9       1.0000 0.92090  0.19350  0.47460  Biso   1.000  O
  O10      1.0000 0.07910  0.69350  0.02540  Biso   1.000  O
  O11      1.0000 0.07910  0.80650  0.52540  Biso   1.000  O
  O12      1.0000 0.92090  0.30650  0.97460  Biso   1.000  O
  C65      1.0000 0.75830  0.21970  0.43670  Biso   1.000  C
  C66      1.0000 0.24170  0.71970  0.06330  Biso   1.000  C
  C67      1.0000 0.24170  0.78030  0.56330  Biso   1.000  C
  C68      1.0000 0.75830  0.28030  0.93670  Biso   1.000  C
  H49      1.0000 0.75100  0.26040  0.38450  Biso   1.000  H
  H50      1.0000 0.24900  0.76040  0.11550  Biso   1.000  H
  H51      1.0000 0.24900  0.73960  0.61550  Biso   1.000  H
  H52      1.0000 0.75100  0.23960  0.88450  Biso   1.000  H
  H53      1.0000 0.72860  0.23280  0.50880  Biso   1.000  H
  H54      1.0000 0.27140  0.73280  0.99120  Biso   1.000  H
  H55      1.0000 0.27140  0.76720  0.49120  Biso   1.000  H
  H56      1.0000 0.72860  0.26720  0.00880  Biso   1.000  H
  H57      1.0000 0.68360  0.18380  0.39090  Biso   1.000  H
  H58      1.0000 0.31640  0.68380  0.10910  Biso   1.000  H
  H59      1.0000 0.31640  0.81620  0.60910  Biso   1.000  H
  H60      1.0000 0.68360  0.31620  0.89090  Biso   1.000  H
  C69      1.0000 0.64940  0.03060  0.33610  Biso   1.000  C
  C70      1.0000 0.35060  0.53060  0.16390  Biso   1.000  C
  C71      1.0000 0.35060  0.96940  0.66390  Biso   1.000  C
  C72      1.0000 0.64940  0.46940  0.83610  Biso   1.000  C
  H61      1.0000 0.54320  0.03940  0.33940  Biso   1.000  H
  H62      1.0000 0.45680  0.53940  0.16060  Biso   1.000  H
  H63      1.0000 0.45680  0.96060  0.66060  Biso   1.000  H
  H64      1.0000 0.54320  0.46060  0.83940  Biso   1.000  H
  C73      1.0000 0.77220  0.01650  0.44250  Biso   1.000  C
  C74      1.0000 0.22780  0.51650  0.05750  Biso   1.000  C
  C75      1.0000 0.22780  0.98350  0.55750  Biso   1.000  C
  C76      1.0000 0.77220  0.48350  0.94250  Biso   1.000  C
  H65      1.0000 0.74890  0.01440  0.51730  Biso   1.000  H
  H66      1.0000 0.25110  0.51440  0.98270  Biso   1.000  H
  H67      1.0000 0.25110  0.98560  0.48270  Biso   1.000  H
  H68      1.0000 0.74890  0.48560  0.01730  Biso   1.000  H
  C77      1.0000 0.92990  0.00530  0.44250  Biso   1.000  C
  C78      1.0000 0.07010  0.50530  0.05750  Biso   1.000  C
  C79      1.0000 0.07010  0.99470  0.55750  Biso   1.000  C
  C80      1.0000 0.92990  0.49470  0.94250  Biso   1.000  C
  C81      1.0000 0.95380  0.00360  0.32880  Biso   1.000  C
  C82      1.0000 0.04620  0.50360  0.17120  Biso   1.000  C
  C83      1.0000 0.04620  0.99640  0.67120  Biso   1.000  C
  C84      1.0000 0.95380  0.49640  0.82880  Biso   1.000  C
  H69      1.0000 0.05840  0.99320  0.32350  Biso   1.000  H
  H70      1.0000 0.94160  0.49320  0.17650  Biso   1.000  H
  H71      1.0000 0.94160  0.00680  0.67650  Biso   1.000  H
  H72      1.0000 0.05840  0.50680  0.82350  Biso   1.000  H
  C85      1.0000 0.82450  0.01690  0.22270  Biso   1.000  C
  C86      1.0000 0.17550  0.51690  0.27730  Biso   1.000  C
  C87      1.0000 0.17550  0.98310  0.77730  Biso   1.000  C
  C88      1.0000 0.82450  0.48310  0.72270  Biso   1.000  C
  H73      1.0000 0.84310  0.01500  0.14600  Biso   1.000  H
  H74      1.0000 0.15690  0.51500  0.35400  Biso   1.000  H
  H75      1.0000 0.15690  0.98500  0.85400  Biso   1.000  H
  H76      1.0000 0.84310  0.48500  0.64600  Biso   1.000  H
