data_image0
_cell_length_a       7
_cell_length_b       8.949
_cell_length_c       8.982
_cell_angle_alpha    108.05
_cell_angle_beta     97.69
_cell_angle_gamma    97.99

_symmetry_space_group_name_H-M    "P 1"
_symmetry_int_tables_number       1

loop_
  _symmetry_equiv_pos_as_xyz
  'x, y, z'

loop_
  _atom_site_label
  _atom_site_occupancy
  _atom_site_fract_x
  _atom_site_fract_y
  _atom_site_fract_z
  _atom_site_thermal_displace_type
  _atom_site_B_iso_or_equiv
  _atom_site_type_symbol
  Rb1      1.0000 0.36833  0.11883  0.66573  Biso   1.000  Rb
  Rb2      1.0000 0.63167  0.88117  0.33427  Biso   1.000  Rb
  Rb3      1.0000 0.25523  0.55140  0.63007  Biso   1.000  Rb
  Rb4      1.0000 0.74477  0.44860  0.36993  Biso   1.000  Rb
  Cu1      1.0000 0.00000  0.00000  0.00000  Biso   1.000  Cu
  Cu2      1.0000 0.50000  0.50000  0.00000  Biso   1.000  Cu
  C1       1.0000 0.13110  0.36600  0.00040  Biso   1.000  C
  C2       1.0000 0.86890  0.63400  0.99960  Biso   1.000  C
  C3       1.0000 0.22510  0.46650  0.17730  Biso   1.000  C
  C4       1.0000 0.77490  0.53350  0.82270  Biso   1.000  C
  C5       1.0000 0.26280  0.15590  0.27450  Biso   1.000  C
  C6       1.0000 0.73720  0.84410  0.72550  Biso   1.000  C
  C7       1.0000 0.05620  0.15200  0.31790  Biso   1.000  C
  C8       1.0000 0.94380  0.84800  0.68210  Biso   1.000  C
  O1       1.0000 0.96690  0.28080  0.96875  Biso   1.000  O
  O2       1.0000 0.03310  0.71920  0.03125  Biso   1.000  O
  O3       1.0000 0.23610  0.37932  0.89802  Biso   1.000  O
  O4       1.0000 0.76390  0.62068  0.10198  Biso   1.000  O
  O5       1.0000 0.12930  0.46990  0.28201  Biso   1.000  O
  O6       1.0000 0.87070  0.53010  0.71799  Biso   1.000  O
  O7       1.0000 0.40470  0.53626  0.19850  Biso   1.000  O
  O8       1.0000 0.59530  0.46374  0.80150  Biso   1.000  O
  O9       1.0000 0.41000  0.21980  0.37750  Biso   1.000  O
  O10      1.0000 0.59000  0.78020  0.62250  Biso   1.000  O
  O11      1.0000 0.26310  0.08920  0.12515  Biso   1.000  O
  O12      1.0000 0.73690  0.91080  0.87485  Biso   1.000  O
  O13      1.0000 0.03980  0.21960  0.45588  Biso   1.000  O
  O14      1.0000 0.96020  0.78040  0.54412  Biso   1.000  O
  O15      1.0000 0.91280  0.07600  0.20220  Biso   1.000  O
  O16      1.0000 0.08720  0.92400  0.79780  Biso   1.000  O
  O17      1.0000 0.57270  0.23870  0.01750  Biso   1.000  O
  O18      1.0000 0.42730  0.76130  0.98250  Biso   1.000  O
  O19      1.0000 0.21220  0.86470  0.35480  Biso   1.000  O
  O20      1.0000 0.78780  0.13530  0.64520  Biso   1.000  O
  H1       1.0000 0.15200  0.82900  0.40500  Biso   1.000  H
  H2       1.0000 0.84800  0.17100  0.59500  Biso   1.000  H
  H3       1.0000 0.15800  0.82000  0.26100  Biso   1.000  H
  H4       1.0000 0.84200  0.18000  0.73900  Biso   1.000  H
  H5       1.0000 0.50200  0.17500  0.03900  Biso   1.000  H
  H6       1.0000 0.49800  0.82500  0.96100  Biso   1.000  H
  H7       1.0000 0.68900  0.21900  0.01600  Biso   1.000  H
  H8       1.0000 0.31100  0.78100  0.98400  Biso   1.000  H
