data_image0
_cell_length_a       13.0346
_cell_length_b       16.576
_cell_length_c       14.3933
_cell_angle_alpha    90
_cell_angle_beta     108.687
_cell_angle_gamma    90

_symmetry_space_group_name_H-M    "P 1"
_symmetry_int_tables_number       1

loop_
  _symmetry_equiv_pos_as_xyz
  'x, y, z'

loop_
  _atom_site_label
  _atom_site_occupancy
  _atom_site_fract_x
  _atom_site_fract_y
  _atom_site_fract_z
  _atom_site_thermal_displace_type
  _atom_site_B_iso_or_equiv
  _atom_site_type_symbol
  Cu1      1.0000 0.46017  0.14892  0.91284  Biso   1.000  Cu
  Cu2      1.0000 0.03983  0.64892  0.58716  Biso   1.000  Cu
  Cu3      1.0000 0.53983  0.85108  0.08716  Biso   1.000  Cu
  Cu4      1.0000 0.96017  0.35108  0.41284  Biso   1.000  Cu
  C1       1.0000 0.26740  0.25021  0.91902  Biso   1.000  C
  C2       1.0000 0.23260  0.75021  0.58098  Biso   1.000  C
  C3       1.0000 0.73260  0.74979  0.08098  Biso   1.000  C
  C4       1.0000 0.76740  0.24979  0.41902  Biso   1.000  C
  C5       1.0000 0.15070  0.24965  0.88693  Biso   1.000  C
  C6       1.0000 0.34930  0.74965  0.61307  Biso   1.000  C
  C7       1.0000 0.84930  0.75035  0.11307  Biso   1.000  C
  C8       1.0000 0.65070  0.25035  0.38693  Biso   1.000  C
  H1       1.0000 0.10490  0.29270  0.89240  Biso   1.000  H
  H2       1.0000 0.39510  0.79270  0.60760  Biso   1.000  H
  H3       1.0000 0.89510  0.70730  0.10760  Biso   1.000  H
  H4       1.0000 0.60490  0.20730  0.39240  Biso   1.000  H
  C9       1.0000 0.11870  0.17579  0.84732  Biso   1.000  C
  C10      1.0000 0.38130  0.67579  0.65268  Biso   1.000  C
  C11      1.0000 0.88130  0.82421  0.15268  Biso   1.000  C
  C12      1.0000 0.61870  0.32421  0.34732  Biso   1.000  C
  H5       1.0000 0.04620  0.15780  0.81850  Biso   1.000  H
  H6       1.0000 0.45380  0.65780  0.68150  Biso   1.000  H
  H7       1.0000 0.95380  0.84220  0.18150  Biso   1.000  H
  H8       1.0000 0.54620  0.34220  0.31850  Biso   1.000  H
  C13      1.0000 0.21490  0.13002  0.85714  Biso   1.000  C
  C14      1.0000 0.28510  0.63002  0.64286  Biso   1.000  C
  C15      1.0000 0.78510  0.86998  0.14286  Biso   1.000  C
  C16      1.0000 0.71490  0.36998  0.35714  Biso   1.000  C
  C17      1.0000 0.21640  0.04789  0.83536  Biso   1.000  C
  C18      1.0000 0.28360  0.54789  0.66464  Biso   1.000  C
  C19      1.0000 0.78360  0.95211  0.16464  Biso   1.000  C
  C20      1.0000 0.71640  0.45211  0.33536  Biso   1.000  C
  C21      1.0000 0.31120  0.00421  0.84434  Biso   1.000  C
  C22      1.0000 0.18880  0.50421  0.65566  Biso   1.000  C
  C23      1.0000 0.68880  0.99579  0.15566  Biso   1.000  C
  C24      1.0000 0.81120  0.49579  0.34434  Biso   1.000  C
  C25      1.0000 0.31460  0.91838  0.82849  Biso   1.000  C
  C26      1.0000 0.18540  0.41838  0.67151  Biso   1.000  C
  C27      1.0000 0.68540  0.08162  0.17151  Biso   1.000  C
  C28      1.0000 0.81460  0.58162  0.32849  Biso   1.000  C
  H9       1.0000 0.25580  0.88170  0.81630  Biso   1.000  H
  H10      1.0000 0.24420  0.38170  0.68370  Biso   1.000  H
  H11      1.0000 0.74420  0.11830  0.18370  Biso   1.000  H
  H12      1.0000 0.75580  0.61830  0.31630  Biso   1.000  H
  C29      1.0000 0.41780  0.90036  0.83439  Biso   1.000  C
  C30      1.0000 0.08220  0.40036  0.66561  Biso   1.000  C
  C31      1.0000 0.58220  0.09964  0.16561  Biso   1.000  C
  C32      1.0000 0.91780  0.59964  0.33439  Biso   1.000  C
  H13      1.0000 0.44520  0.84860  0.82660  Biso   1.000  H
  H14      1.0000 0.05480  0.34860  0.67340  Biso   1.000  H
  H15      1.0000 0.55480  0.15140  0.17340  Biso   1.000  H
  H16      1.0000 0.94520  0.65140  0.32660  Biso   1.000  H
  C33      1.0000 0.47840  0.97494  0.85478  Biso   1.000  C
  C34      1.0000 0.02160  0.47494  0.64522  Biso   1.000  C
  C35      1.0000 0.52160  0.02506  0.14522  Biso   1.000  C
  C36      1.0000 0.97840  0.52506  0.35478  Biso   1.000  C
  C37      1.0000 0.58760  0.98201  0.86214  Biso   1.000  C
  C38      1.0000 0.91240  0.48201  0.63786  Biso   1.000  C
  C39      1.0000 0.41240  0.01799  0.13786  Biso   1.000  C
  C40      1.0000 0.08760  0.51799  0.36214  Biso   1.000  C
  C41      1.0000 0.65110  0.05018  0.89858  Biso   1.000  C
  C42      1.0000 0.84890  0.55018  0.60142  Biso   1.000  C
  C43      1.0000 0.34890  0.94982  0.10142  Biso   1.000  C
  C44      1.0000 0.15110  0.44982  0.39858  Biso   1.000  C
  C45      1.0000 0.76540  0.05598  0.91385  Biso   1.000  C
  C46      1.0000 0.73460  0.55598  0.58615  Biso   1.000  C
  C47      1.0000 0.23460  0.94402  0.08615  Biso   1.000  C
  C48      1.0000 0.26540  0.44402  0.41385  Biso   1.000  C
  H17      1.0000 0.80840  0.01840  0.89290  Biso   1.000  H
  H18      1.0000 0.69160  0.51840  0.60710  Biso   1.000  H
  H19      1.0000 0.19160  0.98160  0.10710  Biso   1.000  H
  H20      1.0000 0.30840  0.48160  0.39290  Biso   1.000  H
  C49      1.0000 0.79990  0.12525  0.96382  Biso   1.000  C
  C50      1.0000 0.70010  0.62525  0.53618  Biso   1.000  C
  C51      1.0000 0.20010  0.87475  0.03618  Biso   1.000  C
  C52      1.0000 0.29990  0.37475  0.46382  Biso   1.000  C
  H21      1.0000 0.87230  0.14460  0.98720  Biso   1.000  H
  H22      1.0000 0.62770  0.64460  0.51280  Biso   1.000  H
  H23      1.0000 0.12770  0.85540  0.01280  Biso   1.000  H
  H24      1.0000 0.37230  0.35540  0.48720  Biso   1.000  H
  C53      1.0000 0.70540  0.16406  0.97460  Biso   1.000  C
  C54      1.0000 0.79460  0.66406  0.52540  Biso   1.000  C
  C55      1.0000 0.29460  0.83594  0.02540  Biso   1.000  C
  C56      1.0000 0.20540  0.33594  0.47460  Biso   1.000  C
  C57      1.0000 0.70800  0.23676  0.02658  Biso   1.000  C
  C58      1.0000 0.79200  0.73676  0.47342  Biso   1.000  C
  C59      1.0000 0.29200  0.76324  0.97342  Biso   1.000  C
  C60      1.0000 0.20800  0.26324  0.52658  Biso   1.000  C
  C61      1.0000 0.61520  0.27684  0.03035  Biso   1.000  C
  C62      1.0000 0.88480  0.77684  0.46965  Biso   1.000  C
  C63      1.0000 0.38480  0.72316  0.96965  Biso   1.000  C
  C64      1.0000 0.11520  0.22316  0.53035  Biso   1.000  C
  C65      1.0000 0.61630  0.35485  0.07575  Biso   1.000  C
  C66      1.0000 0.88370  0.85485  0.42425  Biso   1.000  C
  C67      1.0000 0.38370  0.64515  0.92425  Biso   1.000  C
  C68      1.0000 0.11630  0.14515  0.57575  Biso   1.000  C
  H25      1.0000 0.67860  0.38510  0.11070  Biso   1.000  H
  H26      1.0000 0.82140  0.88510  0.38930  Biso   1.000  H
  H27      1.0000 0.32140  0.61490  0.88930  Biso   1.000  H
  H28      1.0000 0.17860  0.11490  0.61070  Biso   1.000  H
  C69      1.0000 0.51220  0.37651  0.05910  Biso   1.000  C
  C70      1.0000 0.98780  0.87651  0.44090  Biso   1.000  C
  C71      1.0000 0.48780  0.62349  0.94090  Biso   1.000  C
  C72      1.0000 0.01220  0.12349  0.55910  Biso   1.000  C
  H29      1.0000 0.48740  0.42520  0.07960  Biso   1.000  H
  H30      1.0000 0.01260  0.92520  0.42040  Biso   1.000  H
  H31      1.0000 0.51260  0.57480  0.92040  Biso   1.000  H
  H32      1.0000 0.98740  0.07480  0.57960  Biso   1.000  H
  C73      1.0000 0.44540  0.31192  0.00440  Biso   1.000  C
  C74      1.0000 0.05460  0.81192  0.49560  Biso   1.000  C
  C75      1.0000 0.55460  0.68808  0.99560  Biso   1.000  C
  C76      1.0000 0.94540  0.18808  0.50440  Biso   1.000  C
  C77      1.0000 0.33200  0.31310  0.97163  Biso   1.000  C
  C78      1.0000 0.16800  0.81310  0.52837  Biso   1.000  C
  C79      1.0000 0.66800  0.68690  0.02837  Biso   1.000  C
  C80      1.0000 0.83200  0.18690  0.47163  Biso   1.000  C
  N1       1.0000 0.30567  0.17729  0.89763  Biso   1.000  N
  N2       1.0000 0.19433  0.67729  0.60237  Biso   1.000  N
  N3       1.0000 0.69433  0.82271  0.10237  Biso   1.000  N
  N4       1.0000 0.80567  0.32271  0.39763  Biso   1.000  N
  N5       1.0000 0.41307  0.03706  0.86486  Biso   1.000  N
  N6       1.0000 0.08693  0.53706  0.63514  Biso   1.000  N
  N7       1.0000 0.58693  0.96294  0.13514  Biso   1.000  N
  N8       1.0000 0.91307  0.46294  0.36486  Biso   1.000  N
  N9       1.0000 0.61467  0.11888  0.93311  Biso   1.000  N
  N10      1.0000 0.88533  0.61888  0.56689  Biso   1.000  N
  N11      1.0000 0.38533  0.88112  0.06689  Biso   1.000  N
  N12      1.0000 0.11467  0.38112  0.43311  Biso   1.000  N
  N13      1.0000 0.50958  0.25155  0.98740  Biso   1.000  N
  N14      1.0000 0.99042  0.75155  0.51260  Biso   1.000  N
  N15      1.0000 0.49042  0.74845  0.01260  Biso   1.000  N
  N16      1.0000 0.00958  0.24845  0.48740  Biso   1.000  N
  C81      1.0000 0.11200  0.00202  0.80317  Biso   1.000  C
  C82      1.0000 0.38800  0.50202  0.69683  Biso   1.000  C
  C83      1.0000 0.88800  0.99798  0.19683  Biso   1.000  C
  C84      1.0000 0.61200  0.49798  0.30317  Biso   1.000  C
  C85      1.0000 0.04480  0.99811  0.86190  Biso   1.000  C
  C86      1.0000 0.45520  0.49811  0.63810  Biso   1.000  C
  C87      1.0000 0.95520  0.00189  0.13810  Biso   1.000  C
  C88      1.0000 0.54480  0.50189  0.36190  Biso   1.000  C
  H33      1.0000 0.06560  0.02820  0.92120  Biso   1.000  H
  H34      1.0000 0.43440  0.52820  0.57880  Biso   1.000  H
  H35      1.0000 0.93440  0.97180  0.07880  Biso   1.000  H
  H36      1.0000 0.56560  0.47180  0.42120  Biso   1.000  H
  N17      1.0000 0.95340  0.95495  0.84027  Biso   1.000  N
  N18      1.0000 0.54660  0.45495  0.65973  Biso   1.000  N
  N19      1.0000 0.04660  0.04505  0.15973  Biso   1.000  N
  N20      1.0000 0.45340  0.54505  0.34027  Biso   1.000  N
  C89      1.0000 0.92560  0.91314  0.75620  Biso   1.000  C
  C90      1.0000 0.57440  0.41314  0.74380  Biso   1.000  C
  C91      1.0000 0.07440  0.08686  0.24380  Biso   1.000  C
  C92      1.0000 0.42560  0.58686  0.25620  Biso   1.000  C
  H37      1.0000 0.86090  0.88210  0.73920  Biso   1.000  H
  H38      1.0000 0.63910  0.38210  0.76080  Biso   1.000  H
  H39      1.0000 0.13910  0.11790  0.26080  Biso   1.000  H
  H40      1.0000 0.36090  0.61790  0.23920  Biso   1.000  H
  C93      1.0000 0.98610  0.91285  0.69280  Biso   1.000  C
  C94      1.0000 0.51390  0.41285  0.80720  Biso   1.000  C
  C95      1.0000 0.01390  0.08715  0.30720  Biso   1.000  C
  C96      1.0000 0.48610  0.58715  0.19280  Biso   1.000  C
  H41      1.0000 0.96330  0.88200  0.63420  Biso   1.000  H
  H42      1.0000 0.53670  0.38200  0.86580  Biso   1.000  H
  H43      1.0000 0.03670  0.11800  0.36580  Biso   1.000  H
  H44      1.0000 0.46330  0.61800  0.13420  Biso   1.000  H
  C97      1.0000 0.08000  0.95794  0.71590  Biso   1.000  C
  C98      1.0000 0.42000  0.45794  0.78410  Biso   1.000  C
  C99      1.0000 0.92000  0.04206  0.28410  Biso   1.000  C
  C100     1.0000 0.58000  0.54206  0.21590  Biso   1.000  C
  H45      1.0000 0.12220  0.95900  0.67300  Biso   1.000  H
  H46      1.0000 0.37780  0.45900  0.82700  Biso   1.000  H
  H47      1.0000 0.87780  0.04100  0.32700  Biso   1.000  H
  H48      1.0000 0.62220  0.54100  0.17300  Biso   1.000  H
  C101     1.0000 0.63640  0.91059  0.82824  Biso   1.000  C
  C102     1.0000 0.86360  0.41059  0.67176  Biso   1.000  C
  C103     1.0000 0.36360  0.08941  0.17176  Biso   1.000  C
  C104     1.0000 0.13640  0.58941  0.32824  Biso   1.000  C
  C105     1.0000 0.59020  0.88359  0.73280  Biso   1.000  C
  C106     1.0000 0.90980  0.38359  0.76720  Biso   1.000  C
  C107     1.0000 0.40980  0.11641  0.26720  Biso   1.000  C
  C108     1.0000 0.09020  0.61641  0.23280  Biso   1.000  C
  H49      1.0000 0.53150  0.91380  0.69110  Biso   1.000  H
  H50      1.0000 0.96850  0.41380  0.80890  Biso   1.000  H
  H51      1.0000 0.46850  0.08620  0.30890  Biso   1.000  H
  H52      1.0000 0.03150  0.58620  0.19110  Biso   1.000  H
  N21      1.0000 0.62210  0.81800  0.69504  Biso   1.000  N
  N22      1.0000 0.87790  0.31800  0.80496  Biso   1.000  N
  N23      1.0000 0.37790  0.18200  0.30496  Biso   1.000  N
  N24      1.0000 0.12210  0.68200  0.19504  Biso   1.000  N
  C109     1.0000 0.70540  0.77709  0.75510  Biso   1.000  C
  C110     1.0000 0.79460  0.27709  0.74490  Biso   1.000  C
  C111     1.0000 0.29460  0.22291  0.24490  Biso   1.000  C
  C112     1.0000 0.20540  0.72291  0.25510  Biso   1.000  C
  H53      1.0000 0.72920  0.72990  0.73070  Biso   1.000  H
  H54      1.0000 0.77080  0.22990  0.76930  Biso   1.000  H
  H55      1.0000 0.27080  0.27010  0.26930  Biso   1.000  H
  H56      1.0000 0.22920  0.77010  0.23070  Biso   1.000  H
  C113     1.0000 0.75890  0.79976  0.85100  Biso   1.000  C
  C114     1.0000 0.74110  0.29976  0.64900  Biso   1.000  C
  C115     1.0000 0.24110  0.20024  0.14900  Biso   1.000  C
  C116     1.0000 0.25890  0.70024  0.35100  Biso   1.000  C
  H57      1.0000 0.81850  0.76920  0.89070  Biso   1.000  H
  H58      1.0000 0.68150  0.26920  0.60930  Biso   1.000  H
  H59      1.0000 0.18150  0.23080  0.10930  Biso   1.000  H
  H60      1.0000 0.31850  0.73080  0.39070  Biso   1.000  H
  C117     1.0000 0.72410  0.86763  0.88790  Biso   1.000  C
  C118     1.0000 0.77590  0.36763  0.61210  Biso   1.000  C
  C119     1.0000 0.27590  0.13237  0.11210  Biso   1.000  C
  C120     1.0000 0.22410  0.63237  0.38790  Biso   1.000  C
  H61      1.0000 0.75980  0.88470  0.95330  Biso   1.000  H
  H62      1.0000 0.74020  0.38470  0.54670  Biso   1.000  H
  H63      1.0000 0.24020  0.11530  0.04670  Biso   1.000  H
  H64      1.0000 0.25980  0.61530  0.45330  Biso   1.000  H
  C121     1.0000 0.81570  0.27087  0.08378  Biso   1.000  C
  C122     1.0000 0.68430  0.77087  0.41622  Biso   1.000  C
  C123     1.0000 0.18430  0.72913  0.91622  Biso   1.000  C
  C124     1.0000 0.31570  0.22913  0.58378  Biso   1.000  C
  C125     1.0000 0.84390  0.27839  0.18523  Biso   1.000  C
  C126     1.0000 0.65610  0.77839  0.31477  Biso   1.000  C
  C127     1.0000 0.15610  0.72161  0.81477  Biso   1.000  C
  C128     1.0000 0.34390  0.22161  0.68523  Biso   1.000  C
  H65      1.0000 0.79230  0.26180  0.21530  Biso   1.000  H
  H66      1.0000 0.70770  0.76180  0.28470  Biso   1.000  H
  H67      1.0000 0.20770  0.73820  0.78470  Biso   1.000  H
  H68      1.0000 0.29230  0.23820  0.71530  Biso   1.000  H
  N25      1.0000 0.93883  0.30739  0.24355  Biso   1.000  N
  N26      1.0000 0.56117  0.80739  0.25645  Biso   1.000  N
  N27      1.0000 0.06117  0.69261  0.75645  Biso   1.000  N
  N28      1.0000 0.43883  0.19261  0.74355  Biso   1.000  N
  C129     1.0000 0.01110  0.32970  0.20000  Biso   1.000  C
  C130     1.0000 0.48890  0.82970  0.30000  Biso   1.000  C
  C131     1.0000 0.98890  0.67030  0.80000  Biso   1.000  C
  C132     1.0000 0.51110  0.17030  0.70000  Biso   1.000  C
  H69      1.0000 0.07910  0.34990  0.23980  Biso   1.000  H
  H70      1.0000 0.42090  0.84990  0.26020  Biso   1.000  H
  H71      1.0000 0.92090  0.65010  0.76020  Biso   1.000  H
  H72      1.0000 0.57910  0.15010  0.73980  Biso   1.000  H
  C133     1.0000 0.99140  0.32477  0.09950  Biso   1.000  C
  C134     1.0000 0.50860  0.82477  0.40050  Biso   1.000  C
  C135     1.0000 0.00860  0.67523  0.90050  Biso   1.000  C
  C136     1.0000 0.49140  0.17523  0.59950  Biso   1.000  C
  H73      1.0000 0.04480  0.34140  0.07150  Biso   1.000  H
  H74      1.0000 0.45520  0.84140  0.42850  Biso   1.000  H
  H75      1.0000 0.95520  0.65860  0.92850  Biso   1.000  H
  H76      1.0000 0.54480  0.15860  0.57150  Biso   1.000  H
  C137     1.0000 0.89250  0.29524  0.04080  Biso   1.000  C
  C138     1.0000 0.60750  0.79524  0.45920  Biso   1.000  C
  C139     1.0000 0.10750  0.70476  0.95920  Biso   1.000  C
  C140     1.0000 0.39250  0.20476  0.54080  Biso   1.000  C
  H77      1.0000 0.87710  0.29160  0.97180  Biso   1.000  H
  H78      1.0000 0.62290  0.79160  0.52820  Biso   1.000  H
  H79      1.0000 0.12290  0.70840  0.02820  Biso   1.000  H
  H80      1.0000 0.37710  0.20840  0.47180  Biso   1.000  H
  C141     1.0000 0.27620  0.38340  0.99920  Biso   1.000  C
  C142     1.0000 0.22380  0.88340  0.50080  Biso   1.000  C
  C143     1.0000 0.72380  0.61660  0.00080  Biso   1.000  C
  C144     1.0000 0.77620  0.11660  0.49920  Biso   1.000  C
  C145     1.0000 0.20670  0.43263  0.92880  Biso   1.000  C
  C146     1.0000 0.29330  0.93263  0.57120  Biso   1.000  C
  C147     1.0000 0.79330  0.56737  0.07120  Biso   1.000  C
  C148     1.0000 0.70670  0.06737  0.42880  Biso   1.000  C
  H81      1.0000 0.19850  0.42280  0.86180  Biso   1.000  H
  H82      1.0000 0.30150  0.92280  0.63820  Biso   1.000  H
  H83      1.0000 0.80150  0.57720  0.13820  Biso   1.000  H
  H84      1.0000 0.69850  0.07720  0.36180  Biso   1.000  H
  N29      1.0000 0.14960  0.49410  0.95080  Biso   1.000  N
  N30      1.0000 0.35040  0.99410  0.54920  Biso   1.000  N
  N31      1.0000 0.85040  0.50590  0.04920  Biso   1.000  N
  N32      1.0000 0.64960  0.00590  0.45080  Biso   1.000  N
  C149     1.0000 0.16330  0.50671  0.04720  Biso   1.000  C
  C150     1.0000 0.33670  0.00671  0.45280  Biso   1.000  C
  C151     1.0000 0.83670  0.49329  0.95280  Biso   1.000  C
  C152     1.0000 0.66330  0.99329  0.54720  Biso   1.000  C
  H85      1.0000 0.12340  0.54910  0.06400  Biso   1.000  H
  H86      1.0000 0.37660  0.04910  0.43600  Biso   1.000  H
  H87      1.0000 0.87660  0.45090  0.93600  Biso   1.000  H
  H88      1.0000 0.62340  0.95090  0.56400  Biso   1.000  H
  C153     1.0000 0.23070  0.46219  0.12110  Biso   1.000  C
  C154     1.0000 0.26930  0.96219  0.37890  Biso   1.000  C
  C155     1.0000 0.76930  0.53781  0.87890  Biso   1.000  C
  C156     1.0000 0.73070  0.03781  0.62110  Biso   1.000  C
  H89      1.0000 0.23820  0.47350  0.18770  Biso   1.000  H
  H90      1.0000 0.26180  0.97350  0.31230  Biso   1.000  H
  H91      1.0000 0.76180  0.52650  0.81230  Biso   1.000  H
  H92      1.0000 0.73820  0.02650  0.68770  Biso   1.000  H
  C157     1.0000 0.28750  0.40080  0.09700  Biso   1.000  C
  C158     1.0000 0.21250  0.90080  0.40300  Biso   1.000  C
  C159     1.0000 0.71250  0.59920  0.90300  Biso   1.000  C
  C160     1.0000 0.78750  0.09920  0.59700  Biso   1.000  C
  H93      1.0000 0.33540  0.36930  0.14760  Biso   1.000  H
  H94      1.0000 0.16460  0.86930  0.35240  Biso   1.000  H
  H95      1.0000 0.66460  0.63070  0.85240  Biso   1.000  H
  H96      1.0000 0.83540  0.13070  0.64760  Biso   1.000  H
