data_image0
_cell_length_a       10.836
_cell_length_b       11.377
_cell_length_c       14.102
_cell_angle_alpha    110.933
_cell_angle_beta     104.014
_cell_angle_gamma    93.324

_symmetry_space_group_name_H-M    "P 1"
_symmetry_int_tables_number       1

loop_
  _symmetry_equiv_pos_as_xyz
  'x, y, z'

loop_
  _atom_site_label
  _atom_site_occupancy
  _atom_site_fract_x
  _atom_site_fract_y
  _atom_site_fract_z
  _atom_site_thermal_displace_type
  _atom_site_B_iso_or_equiv
  _atom_site_type_symbol
  Cu1      1.0000 0.50000  0.50000  0.00000  Biso   1.000  Cu
  O1       1.0000 0.12520  0.89620  0.45132  Biso   1.000  O
  O2       1.0000 0.87480  0.10380  0.54868  Biso   1.000  O
  C1       1.0000 0.27970  0.81690  0.36650  Biso   1.000  C
  C2       1.0000 0.72030  0.18310  0.63350  Biso   1.000  C
  F1       1.0000 0.26850  0.75040  0.26290  Biso   1.000  F
  F2       1.0000 0.73150  0.24960  0.73710  Biso   1.000  F
  F3       1.0000 0.36890  0.87000  0.40730  Biso   1.000  F
  F4       1.0000 0.63110  0.13000  0.59270  Biso   1.000  F
  F5       1.0000 0.26590  0.72050  0.39670  Biso   1.000  F
  F6       1.0000 0.73410  0.27950  0.60330  Biso   1.000  F
  C3       1.0000 0.17300  0.89770  0.37950  Biso   1.000  C
  C4       1.0000 0.82700  0.10230  0.62050  Biso   1.000  C
  C5       1.0000 0.13980  0.96290  0.31410  Biso   1.000  C
  C6       1.0000 0.86020  0.03710  0.68590  Biso   1.000  C
  H1       1.0000 0.18580  0.95890  0.26560  Biso   1.000  H
  H2       1.0000 0.81420  0.04110  0.73440  Biso   1.000  H
  C7       1.0000 0.04080  0.03390  0.31760  Biso   1.000  C
  C8       1.0000 0.95920  0.96610  0.68240  Biso   1.000  C
  C9       1.0000 0.99750  0.08980  0.23450  Biso   1.000  C
  C10      1.0000 0.00250  0.91020  0.76550  Biso   1.000  C
  F7       1.0000 0.09000  0.09600  0.18940  Biso   1.000  F
  F8       1.0000 0.91000  0.90400  0.81060  Biso   1.000  F
  F9       1.0000 0.97400  0.21100  0.27110  Biso   1.000  F
  F10      1.0000 0.02600  0.78900  0.72890  Biso   1.000  F
  F11      1.0000 0.90020  0.02080  0.16260  Biso   1.000  F
  F12      1.0000 0.09980  0.97920  0.83740  Biso   1.000  F
  O3       1.0000 0.97560  0.05700  0.38268  Biso   1.000  O
  O4       1.0000 0.02440  0.94300  0.61732  Biso   1.000  O
  Cu2      1.0000 0.00000  0.00000  0.50000  Biso   1.000  Cu
  O5       1.0000 0.67180  0.59590  0.07012  Biso   1.000  O
  O6       1.0000 0.32820  0.40410  0.92988  Biso   1.000  O
  C11      1.0000 0.89880  0.64150  0.11010  Biso   1.000  C
  C12      1.0000 0.10120  0.35850  0.88990  Biso   1.000  C
  F13      1.0000 0.00070  0.58290  0.12680  Biso   1.000  F
  F14      1.0000 0.99930  0.41710  0.87320  Biso   1.000  F
  F15      1.0000 0.90000  0.68300  0.03340  Biso   1.000  F
  F16      1.0000 0.10000  0.31700  0.96660  Biso   1.000  F
  F17      1.0000 0.90200  0.73200  0.20230  Biso   1.000  F
  F18      1.0000 0.09800  0.26800  0.79770  Biso   1.000  F
  C13      1.0000 0.77080  0.54740  0.07050  Biso   1.000  C
  C14      1.0000 0.22920  0.45260  0.92950  Biso   1.000  C
  C15      1.0000 0.78360  0.41770  0.03850  Biso   1.000  C
  C16      1.0000 0.21640  0.58230  0.96150  Biso   1.000  C
  H3       1.0000 0.86560  0.39540  0.04720  Biso   1.000  H
  H4       1.0000 0.13440  0.60460  0.95280  Biso   1.000  H
  C17      1.0000 0.67780  0.32280  0.99460  Biso   1.000  C
  C18      1.0000 0.32220  0.67720  0.00540  Biso   1.000  C
  C19      1.0000 0.69730  0.18130  0.96310  Biso   1.000  C
  C20      1.0000 0.30270  0.81870  0.03690  Biso   1.000  C
  F19      1.0000 0.68200  0.14200  0.03890  Biso   1.000  F
  F20      1.0000 0.31800  0.85800  0.96110  Biso   1.000  F
  F21      1.0000 0.61640  0.11060  0.87320  Biso   1.000  F
  F22      1.0000 0.38360  0.88940  0.12680  Biso   1.000  F
  F23      1.0000 0.81010  0.16960  0.95030  Biso   1.000  F
  F24      1.0000 0.18990  0.83040  0.04970  Biso   1.000  F
  O7       1.0000 0.56080  0.33620  0.97558  Biso   1.000  O
  O8       1.0000 0.43920  0.66380  0.02442  Biso   1.000  O
  O9       1.0000 0.44270  0.50142  0.15099  Biso   1.000  O
  O10      1.0000 0.55730  0.49858  0.84901  Biso   1.000  O
  N1       1.0000 0.48890  0.45720  0.22378  Biso   1.000  N
  N2       1.0000 0.51110  0.54280  0.77622  Biso   1.000  N
  C21      1.0000 0.41390  0.34680  0.22910  Biso   1.000  C
  C22      1.0000 0.58610  0.65320  0.77090  Biso   1.000  C
  C23      1.0000 0.29960  0.39620  0.26770  Biso   1.000  C
  C24      1.0000 0.70040  0.60380  0.73230  Biso   1.000  C
  H5       1.0000 0.24000  0.41220  0.21290  Biso   1.000  H
  H6       1.0000 0.76000  0.58780  0.78710  Biso   1.000  H
  H7       1.0000 0.32980  0.47370  0.32930  Biso   1.000  H
  H8       1.0000 0.67020  0.52630  0.67070  Biso   1.000  H
  H9       1.0000 0.25730  0.33350  0.28520  Biso   1.000  H
  H10      1.0000 0.74270  0.66650  0.71480  Biso   1.000  H
  C25      1.0000 0.36810  0.23720  0.11980  Biso   1.000  C
  C26      1.0000 0.63190  0.76280  0.88020  Biso   1.000  C
  H11      1.0000 0.30480  0.26200  0.07290  Biso   1.000  H
  H12      1.0000 0.69520  0.73800  0.92710  Biso   1.000  H
  H13      1.0000 0.33060  0.16300  0.12640  Biso   1.000  H
  H14      1.0000 0.66940  0.83700  0.87360  Biso   1.000  H
  H15      1.0000 0.44010  0.21820  0.09160  Biso   1.000  H
  H16      1.0000 0.55990  0.78180  0.90840  Biso   1.000  H
  C27      1.0000 0.51500  0.31920  0.31100  Biso   1.000  C
  C28      1.0000 0.48500  0.68080  0.68900  Biso   1.000  C
  C29      1.0000 0.60520  0.23060  0.26590  Biso   1.000  C
  C30      1.0000 0.39480  0.76940  0.73410  Biso   1.000  C
  H17      1.0000 0.66540  0.21800  0.32240  Biso   1.000  H
  H18      1.0000 0.33460  0.78200  0.67760  Biso   1.000  H
  H19      1.0000 0.65120  0.26820  0.23090  Biso   1.000  H
  H20      1.0000 0.34880  0.73180  0.76910  Biso   1.000  H
  H21      1.0000 0.55570  0.15000  0.21620  Biso   1.000  H
  H22      1.0000 0.44430  0.85000  0.78380  Biso   1.000  H
  C31      1.0000 0.46480  0.27580  0.38890  Biso   1.000  C
  C32      1.0000 0.53520  0.72420  0.61110  Biso   1.000  C
  H23      1.0000 0.53560  0.25970  0.43610  Biso   1.000  H
  H24      1.0000 0.46440  0.74030  0.56390  Biso   1.000  H
  H25      1.0000 0.40300  0.19920  0.34990  Biso   1.000  H
  H26      1.0000 0.59700  0.80080  0.65010  Biso   1.000  H
  H27      1.0000 0.42470  0.34150  0.42890  Biso   1.000  H
  H28      1.0000 0.57530  0.65850  0.57110  Biso   1.000  H
  N3       1.0000 0.59660  0.44810  0.36950  Biso   1.000  N
  N4       1.0000 0.40340  0.55190  0.63050  Biso   1.000  N
  O11      1.0000 0.67720  0.47970  0.46246  Biso   1.000  O
  O12      1.0000 0.32280  0.52030  0.53754  Biso   1.000  O
  C33      1.0000 0.58750  0.51980  0.31150  Biso   1.000  C
  C34      1.0000 0.41250  0.48020  0.68850  Biso   1.000  C
  C35      1.0000 0.65850  0.64030  0.33530  Biso   1.000  C
  C36      1.0000 0.34150  0.35970  0.66470  Biso   1.000  C
  C37      1.0000 0.78570  0.70000  0.39290  Biso   1.000  C
  C38      1.0000 0.21430  0.30000  0.60710  Biso   1.000  C
  C39      1.0000 0.89390  0.64610  0.44290  Biso   1.000  C
  C40      1.0000 0.10610  0.35390  0.55710  Biso   1.000  C
  H29      1.0000 0.87040  0.62360  0.49710  Biso   1.000  H
  H30      1.0000 0.12960  0.37640  0.50290  Biso   1.000  H
  H31      1.0000 0.96950  0.71160  0.47740  Biso   1.000  H
  H32      1.0000 0.03050  0.28840  0.52260  Biso   1.000  H
  C41      1.0000 0.92810  0.53070  0.36690  Biso   1.000  C
  C42      1.0000 0.07190  0.46930  0.63310  Biso   1.000  C
  H33      1.0000 0.99620  0.50030  0.40480  Biso   1.000  H
  H34      1.0000 0.00380  0.49970  0.59520  Biso   1.000  H
  H35      1.0000 0.95610  0.55300  0.31500  Biso   1.000  H
  H36      1.0000 0.04390  0.44700  0.68500  Biso   1.000  H
  H37      1.0000 0.85390  0.46510  0.33220  Biso   1.000  H
  H38      1.0000 0.14610  0.53490  0.66780  Biso   1.000  H
  N5       1.0000 0.81010  0.81700  0.39386  Biso   1.000  N
  N6       1.0000 0.18990  0.18300  0.60614  Biso   1.000  N
  N7       1.0000 0.69580  0.83220  0.33558  Biso   1.000  N
  N8       1.0000 0.30420  0.16780  0.66442  Biso   1.000  N
  C43      1.0000 0.68120  0.94660  0.30910  Biso   1.000  C
  C44      1.0000 0.31880  0.05340  0.69090  Biso   1.000  C
  H39      1.0000 0.59450  0.93860  0.26740  Biso   1.000  H
  H40      1.0000 0.40550  0.06140  0.73260  Biso   1.000  H
  H41      1.0000 0.74000  0.95390  0.26970  Biso   1.000  H
  H42      1.0000 0.26000  0.04610  0.73030  Biso   1.000  H
  H43      1.0000 0.69970  0.02120  0.37320  Biso   1.000  H
  H44      1.0000 0.30030  0.97880  0.62680  Biso   1.000  H
  C45      1.0000 0.60670  0.73030  0.29860  Biso   1.000  C
  C46      1.0000 0.39330  0.26970  0.70140  Biso   1.000  C
  H45      1.0000 0.52370  0.72040  0.25550  Biso   1.000  H
  H46      1.0000 0.47630  0.27960  0.74450  Biso   1.000  H
  F25      1.0000 0.25600  0.71650  0.35400  Biso   1.000  F
  F26      1.0000 0.74400  0.28350  0.64600  Biso   1.000  F
  F27      1.0000 0.33040  0.82700  0.29510  Biso   1.000  F
  F28      1.0000 0.66960  0.17300  0.70490  Biso   1.000  F
  F29      1.0000 0.39870  0.88180  0.44790  Biso   1.000  F
  F30      1.0000 0.60130  0.11820  0.55210  Biso   1.000  F
  F31      1.0000 0.05500  0.05700  0.15890  Biso   1.000  F
  F32      1.0000 0.94500  0.94300  0.84110  Biso   1.000  F
  F33      1.0000 0.03600  0.21000  0.28210  Biso   1.000  F
  F34      1.0000 0.96400  0.79000  0.71790  Biso   1.000  F
  F35      1.0000 0.87790  0.06900  0.19240  Biso   1.000  F
  F36      1.0000 0.12210  0.93100  0.80760  Biso   1.000  F
  F37      1.0000 0.87900  0.75500  0.16000  Biso   1.000  F
  F38      1.0000 0.12100  0.24500  0.84000  Biso   1.000  F
  F39      1.0000 0.93200  0.66340  0.03920  Biso   1.000  F
  F40      1.0000 0.06800  0.33660  0.96080  Biso   1.000  F
  F41      1.0000 0.99890  0.62230  0.16810  Biso   1.000  F
  F42      1.0000 0.00110  0.37770  0.83190  Biso   1.000  F
  F43      1.0000 0.82220  0.16590  0.99750  Biso   1.000  F
  F44      1.0000 0.17780  0.83410  0.00250  Biso   1.000  F
  F45      1.0000 0.63400  0.12290  0.99920  Biso   1.000  F
  F46      1.0000 0.36600  0.87710  0.00080  Biso   1.000  F
  F47      1.0000 0.65890  0.11960  0.86610  Biso   1.000  F
  F48      1.0000 0.34110  0.88040  0.13390  Biso   1.000  F
