data_image0
_cell_length_a       29.303
_cell_length_b       11.041
_cell_length_c       20.924
_cell_angle_alpha    90
_cell_angle_beta     120.94
_cell_angle_gamma    90

_symmetry_space_group_name_H-M    "P 1"
_symmetry_int_tables_number       1

loop_
  _symmetry_equiv_pos_as_xyz
  'x, y, z'

loop_
  _atom_site_label
  _atom_site_occupancy
  _atom_site_fract_x
  _atom_site_fract_y
  _atom_site_fract_z
  _atom_site_thermal_displace_type
  _atom_site_B_iso_or_equiv
  _atom_site_type_symbol
  Cu1      1.0000 0.50000  0.66787  0.75000  Biso   1.000  Cu
  Cu2      1.0000 0.00000  0.16787  0.75000  Biso   1.000  Cu
  Cu3      1.0000 0.50000  0.33213  0.25000  Biso   1.000  Cu
  Cu4      1.0000 0.00000  0.83213  0.25000  Biso   1.000  Cu
  N1       1.0000 0.86457  0.67750  0.99990  Biso   1.000  N
  N2       1.0000 0.13543  0.67750  0.50010  Biso   1.000  N
  N3       1.0000 0.36457  0.17750  0.99990  Biso   1.000  N
  N4       1.0000 0.63543  0.17750  0.50010  Biso   1.000  N
  N5       1.0000 0.13543  0.32250  0.00010  Biso   1.000  N
  N6       1.0000 0.86457  0.32250  0.49990  Biso   1.000  N
  N7       1.0000 0.63543  0.82250  0.00010  Biso   1.000  N
  N8       1.0000 0.36457  0.82250  0.49990  Biso   1.000  N
  N9       1.0000 0.58155  0.66850  0.80499  Biso   1.000  N
  N10      1.0000 0.41845  0.66850  0.69501  Biso   1.000  N
  N11      1.0000 0.08155  0.16850  0.80499  Biso   1.000  N
  N12      1.0000 0.91845  0.16850  0.69501  Biso   1.000  N
  N13      1.0000 0.41845  0.33150  0.19501  Biso   1.000  N
  N14      1.0000 0.58155  0.33150  0.30499  Biso   1.000  N
  N15      1.0000 0.91845  0.83150  0.19501  Biso   1.000  N
  N16      1.0000 0.08155  0.83150  0.30499  Biso   1.000  N
  N17      1.0000 0.50000  0.48630  0.75000  Biso   1.000  N
  N18      1.0000 0.00000  0.98630  0.75000  Biso   1.000  N
  N19      1.0000 0.50000  0.51370  0.25000  Biso   1.000  N
  N20      1.0000 0.00000  0.01370  0.25000  Biso   1.000  N
  N21      1.0000 0.50000  0.85030  0.75000  Biso   1.000  N
  N22      1.0000 0.00000  0.35030  0.75000  Biso   1.000  N
  N23      1.0000 0.50000  0.14970  0.25000  Biso   1.000  N
  N24      1.0000 0.00000  0.64970  0.25000  Biso   1.000  N
  N25      1.0000 0.51630  0.70200  0.97940  Biso   1.000  N
  N26      1.0000 0.48370  0.70200  0.52060  Biso   1.000  N
  N27      1.0000 0.01630  0.20200  0.97940  Biso   1.000  N
  N28      1.0000 0.98370  0.20200  0.52060  Biso   1.000  N
  N29      1.0000 0.48370  0.29800  0.02060  Biso   1.000  N
  N30      1.0000 0.51630  0.29800  0.47940  Biso   1.000  N
  N31      1.0000 0.98370  0.79800  0.02060  Biso   1.000  N
  N32      1.0000 0.01630  0.79800  0.47940  Biso   1.000  N
  O1       1.0000 0.49904  0.67770  0.86344  Biso   1.000  O
  O2       1.0000 0.50096  0.67770  0.63656  Biso   1.000  O
  O3       1.0000 0.99904  0.17770  0.86344  Biso   1.000  O
  O4       1.0000 0.00096  0.17770  0.63656  Biso   1.000  O
  O5       1.0000 0.50096  0.32230  0.13656  Biso   1.000  O
  O6       1.0000 0.49904  0.32230  0.36344  Biso   1.000  O
  O7       1.0000 0.00096  0.82230  0.13656  Biso   1.000  O
  O8       1.0000 0.99904  0.82230  0.36344  Biso   1.000  O
  C1       1.0000 0.83810  0.58630  0.00550  Biso   1.000  C
  C2       1.0000 0.16190  0.58630  0.49450  Biso   1.000  C
  C3       1.0000 0.33810  0.08630  0.00550  Biso   1.000  C
  C4       1.0000 0.66190  0.08630  0.49450  Biso   1.000  C
  C5       1.0000 0.16190  0.41370  0.99450  Biso   1.000  C
  C6       1.0000 0.83810  0.41370  0.50550  Biso   1.000  C
  C7       1.0000 0.66190  0.91370  0.99450  Biso   1.000  C
  C8       1.0000 0.33810  0.91370  0.50550  Biso   1.000  C
  H1       1.0000 0.85750  0.52210  0.03620  Biso   1.000  H
  H2       1.0000 0.14250  0.52210  0.46380  Biso   1.000  H
  H3       1.0000 0.35750  0.02210  0.03620  Biso   1.000  H
  H4       1.0000 0.64250  0.02210  0.46380  Biso   1.000  H
  H5       1.0000 0.14250  0.47790  0.96380  Biso   1.000  H
  H6       1.0000 0.85750  0.47790  0.53620  Biso   1.000  H
  H7       1.0000 0.64250  0.97790  0.96380  Biso   1.000  H
  H8       1.0000 0.35750  0.97790  0.53620  Biso   1.000  H
  C9       1.0000 0.78248  0.57960  0.96790  Biso   1.000  C
  C10      1.0000 0.21752  0.57960  0.53210  Biso   1.000  C
  C11      1.0000 0.28248  0.07960  0.96790  Biso   1.000  C
  C12      1.0000 0.71752  0.07960  0.53210  Biso   1.000  C
  C13      1.0000 0.21752  0.42040  0.03210  Biso   1.000  C
  C14      1.0000 0.78248  0.42040  0.46790  Biso   1.000  C
  C15      1.0000 0.71752  0.92040  0.03210  Biso   1.000  C
  C16      1.0000 0.28248  0.92040  0.46790  Biso   1.000  C
  H9       1.0000 0.76590  0.51260  0.97420  Biso   1.000  H
  H10      1.0000 0.23410  0.51260  0.52580  Biso   1.000  H
  H11      1.0000 0.26590  0.01260  0.97420  Biso   1.000  H
  H12      1.0000 0.73410  0.01260  0.52580  Biso   1.000  H
  H13      1.0000 0.23410  0.48740  0.02580  Biso   1.000  H
  H14      1.0000 0.76590  0.48740  0.47420  Biso   1.000  H
  H15      1.0000 0.73410  0.98740  0.02580  Biso   1.000  H
  H16      1.0000 0.26590  0.98740  0.47420  Biso   1.000  H
  C17      1.0000 0.75250  0.67300  0.92170  Biso   1.000  C
  C18      1.0000 0.24750  0.67300  0.57830  Biso   1.000  C
  C19      1.0000 0.25250  0.17300  0.92170  Biso   1.000  C
  C20      1.0000 0.74750  0.17300  0.57830  Biso   1.000  C
  C21      1.0000 0.24750  0.32700  0.07830  Biso   1.000  C
  C22      1.0000 0.75250  0.32700  0.42170  Biso   1.000  C
  C23      1.0000 0.74750  0.82700  0.07830  Biso   1.000  C
  C24      1.0000 0.25250  0.82700  0.42170  Biso   1.000  C
  C25      1.0000 0.78018  0.77100  0.91500  Biso   1.000  C
  C26      1.0000 0.21982  0.77100  0.58500  Biso   1.000  C
  C27      1.0000 0.28018  0.27100  0.91500  Biso   1.000  C
  C28      1.0000 0.71982  0.27100  0.58500  Biso   1.000  C
  C29      1.0000 0.21982  0.22900  0.08500  Biso   1.000  C
  C30      1.0000 0.78018  0.22900  0.41500  Biso   1.000  C
  C31      1.0000 0.71982  0.72900  0.08500  Biso   1.000  C
  C32      1.0000 0.28018  0.72900  0.41500  Biso   1.000  C
  H17      1.0000 0.76190  0.83630  0.88430  Biso   1.000  H
  H18      1.0000 0.23810  0.83630  0.61570  Biso   1.000  H
  H19      1.0000 0.26190  0.33630  0.88430  Biso   1.000  H
  H20      1.0000 0.73810  0.33630  0.61570  Biso   1.000  H
  H21      1.0000 0.23810  0.16370  0.11570  Biso   1.000  H
  H22      1.0000 0.76190  0.16370  0.38430  Biso   1.000  H
  H23      1.0000 0.73810  0.66370  0.11570  Biso   1.000  H
  H24      1.0000 0.26190  0.66370  0.38430  Biso   1.000  H
  C33      1.0000 0.83590  0.76880  0.95550  Biso   1.000  C
  C34      1.0000 0.16410  0.76880  0.54450  Biso   1.000  C
  C35      1.0000 0.33590  0.26880  0.95550  Biso   1.000  C
  C36      1.0000 0.66410  0.26880  0.54450  Biso   1.000  C
  C37      1.0000 0.16410  0.23120  0.04450  Biso   1.000  C
  C38      1.0000 0.83590  0.23120  0.45550  Biso   1.000  C
  C39      1.0000 0.66410  0.73120  0.04450  Biso   1.000  C
  C40      1.0000 0.33590  0.73120  0.45550  Biso   1.000  C
  H25      1.0000 0.85390  0.83460  0.95110  Biso   1.000  H
  H26      1.0000 0.14610  0.83460  0.54890  Biso   1.000  H
  H27      1.0000 0.35390  0.33460  0.95110  Biso   1.000  H
  H28      1.0000 0.64610  0.33460  0.54890  Biso   1.000  H
  H29      1.0000 0.14610  0.16540  0.04890  Biso   1.000  H
  H30      1.0000 0.85390  0.16540  0.45110  Biso   1.000  H
  H31      1.0000 0.64610  0.66540  0.04890  Biso   1.000  H
  H32      1.0000 0.35390  0.66540  0.45110  Biso   1.000  H
  C41      1.0000 0.69324  0.67050  0.88070  Biso   1.000  C
  C42      1.0000 0.30676  0.67050  0.61930  Biso   1.000  C
  C43      1.0000 0.19324  0.17050  0.88070  Biso   1.000  C
  C44      1.0000 0.80676  0.17050  0.61930  Biso   1.000  C
  C45      1.0000 0.30676  0.32950  0.11930  Biso   1.000  C
  C46      1.0000 0.69324  0.32950  0.38070  Biso   1.000  C
  C47      1.0000 0.80676  0.82950  0.11930  Biso   1.000  C
  C48      1.0000 0.19324  0.82950  0.38070  Biso   1.000  C
  C49      1.0000 0.66575  0.59390  0.90110  Biso   1.000  C
  C50      1.0000 0.33425  0.59390  0.59890  Biso   1.000  C
  C51      1.0000 0.16575  0.09390  0.90110  Biso   1.000  C
  C52      1.0000 0.83425  0.09390  0.59890  Biso   1.000  C
  C53      1.0000 0.33425  0.40610  0.09890  Biso   1.000  C
  C54      1.0000 0.66575  0.40610  0.40110  Biso   1.000  C
  C55      1.0000 0.83425  0.90610  0.09890  Biso   1.000  C
  C56      1.0000 0.16575  0.90610  0.40110  Biso   1.000  C
  H33      1.0000 0.68430  0.54120  0.94100  Biso   1.000  H
  H34      1.0000 0.31570  0.54120  0.55900  Biso   1.000  H
  H35      1.0000 0.18430  0.04120  0.94100  Biso   1.000  H
  H36      1.0000 0.81570  0.04120  0.55900  Biso   1.000  H
  H37      1.0000 0.31570  0.45880  0.05900  Biso   1.000  H
  H38      1.0000 0.68430  0.45880  0.44100  Biso   1.000  H
  H39      1.0000 0.81570  0.95880  0.05900  Biso   1.000  H
  H40      1.0000 0.18430  0.95880  0.44100  Biso   1.000  H
  C57      1.0000 0.61083  0.59480  0.86270  Biso   1.000  C
  C58      1.0000 0.38917  0.59480  0.63730  Biso   1.000  C
  C59      1.0000 0.11083  0.09480  0.86270  Biso   1.000  C
  C60      1.0000 0.88917  0.09480  0.63730  Biso   1.000  C
  C61      1.0000 0.38917  0.40520  0.13730  Biso   1.000  C
  C62      1.0000 0.61083  0.40520  0.36270  Biso   1.000  C
  C63      1.0000 0.88917  0.90520  0.13730  Biso   1.000  C
  C64      1.0000 0.11083  0.90520  0.36270  Biso   1.000  C
  H41      1.0000 0.59340  0.54180  0.87770  Biso   1.000  H
  H42      1.0000 0.40660  0.54180  0.62230  Biso   1.000  H
  H43      1.0000 0.09340  0.04180  0.87770  Biso   1.000  H
  H44      1.0000 0.90660  0.04180  0.62230  Biso   1.000  H
  H45      1.0000 0.40660  0.45820  0.12230  Biso   1.000  H
  H46      1.0000 0.59340  0.45820  0.37770  Biso   1.000  H
  H47      1.0000 0.90660  0.95820  0.12230  Biso   1.000  H
  H48      1.0000 0.09340  0.95820  0.37770  Biso   1.000  H
  C65      1.0000 0.60774  0.74310  0.78420  Biso   1.000  C
  C66      1.0000 0.39226  0.74310  0.71580  Biso   1.000  C
  C67      1.0000 0.10774  0.24310  0.78420  Biso   1.000  C
  C68      1.0000 0.89226  0.24310  0.71580  Biso   1.000  C
  C69      1.0000 0.39226  0.25690  0.21580  Biso   1.000  C
  C70      1.0000 0.60774  0.25690  0.28420  Biso   1.000  C
  C71      1.0000 0.89226  0.75690  0.21580  Biso   1.000  C
  C72      1.0000 0.10774  0.75690  0.28420  Biso   1.000  C
  H49      1.0000 0.58820  0.79440  0.74380  Biso   1.000  H
  H50      1.0000 0.41180  0.79440  0.75620  Biso   1.000  H
  H51      1.0000 0.08820  0.29440  0.74380  Biso   1.000  H
  H52      1.0000 0.91180  0.29440  0.75620  Biso   1.000  H
  H53      1.0000 0.41180  0.20560  0.25620  Biso   1.000  H
  H54      1.0000 0.58820  0.20560  0.24380  Biso   1.000  H
  H55      1.0000 0.91180  0.70560  0.25620  Biso   1.000  H
  H56      1.0000 0.08820  0.70560  0.24380  Biso   1.000  H
  C73      1.0000 0.66269  0.74670  0.82030  Biso   1.000  C
  C74      1.0000 0.33731  0.74670  0.67970  Biso   1.000  C
  C75      1.0000 0.16269  0.24670  0.82030  Biso   1.000  C
  C76      1.0000 0.83731  0.24670  0.67970  Biso   1.000  C
  C77      1.0000 0.33731  0.25330  0.17970  Biso   1.000  C
  C78      1.0000 0.66269  0.25330  0.32030  Biso   1.000  C
  C79      1.0000 0.83731  0.75330  0.17970  Biso   1.000  C
  C80      1.0000 0.16269  0.75330  0.32030  Biso   1.000  C
  H57      1.0000 0.67930  0.80010  0.80420  Biso   1.000  H
  H58      1.0000 0.32070  0.80010  0.69580  Biso   1.000  H
  H59      1.0000 0.17930  0.30010  0.80420  Biso   1.000  H
  H60      1.0000 0.82070  0.30010  0.69580  Biso   1.000  H
  H61      1.0000 0.32070  0.19990  0.19580  Biso   1.000  H
  H62      1.0000 0.67930  0.19990  0.30420  Biso   1.000  H
  H63      1.0000 0.82070  0.69990  0.19580  Biso   1.000  H
  H64      1.0000 0.17930  0.69990  0.30420  Biso   1.000  H
  C81      1.0000 0.47464  0.42470  0.77780  Biso   1.000  C
  C82      1.0000 0.52536  0.42470  0.72220  Biso   1.000  C
  C83      1.0000 0.97464  0.92470  0.77780  Biso   1.000  C
  C84      1.0000 0.02536  0.92470  0.72220  Biso   1.000  C
  C85      1.0000 0.52536  0.57530  0.22220  Biso   1.000  C
  C86      1.0000 0.47464  0.57530  0.27780  Biso   1.000  C
  C87      1.0000 0.02536  0.07530  0.22220  Biso   1.000  C
  C88      1.0000 0.97464  0.07530  0.27780  Biso   1.000  C
  H65      1.0000 0.45700  0.46740  0.79690  Biso   1.000  H
  H66      1.0000 0.54300  0.46740  0.70310  Biso   1.000  H
  H67      1.0000 0.95700  0.96740  0.79690  Biso   1.000  H
  H68      1.0000 0.04300  0.96740  0.70310  Biso   1.000  H
  H69      1.0000 0.54300  0.53260  0.20310  Biso   1.000  H
  H70      1.0000 0.45700  0.53260  0.29690  Biso   1.000  H
  H71      1.0000 0.04300  0.03260  0.20310  Biso   1.000  H
  H72      1.0000 0.95700  0.03260  0.29690  Biso   1.000  H
  C89      1.0000 0.47394  0.29930  0.77890  Biso   1.000  C
  C90      1.0000 0.52606  0.29930  0.72110  Biso   1.000  C
  C91      1.0000 0.97394  0.79930  0.77890  Biso   1.000  C
  C92      1.0000 0.02606  0.79930  0.72110  Biso   1.000  C
  C93      1.0000 0.52606  0.70070  0.22110  Biso   1.000  C
  C94      1.0000 0.47394  0.70070  0.27890  Biso   1.000  C
  C95      1.0000 0.02606  0.20070  0.22110  Biso   1.000  C
  C96      1.0000 0.97394  0.20070  0.27890  Biso   1.000  C
  H73      1.0000 0.45620  0.25860  0.79870  Biso   1.000  H
  H74      1.0000 0.54380  0.25860  0.70130  Biso   1.000  H
  H75      1.0000 0.95620  0.75860  0.79870  Biso   1.000  H
  H76      1.0000 0.04380  0.75860  0.70130  Biso   1.000  H
  H77      1.0000 0.54380  0.74140  0.20130  Biso   1.000  H
  H78      1.0000 0.45620  0.74140  0.29870  Biso   1.000  H
  H79      1.0000 0.04380  0.24140  0.20130  Biso   1.000  H
  H80      1.0000 0.95620  0.24140  0.29870  Biso   1.000  H
  C97      1.0000 0.50000  0.23550  0.75000  Biso   1.000  C
  C98      1.0000 0.00000  0.73550  0.75000  Biso   1.000  C
  C99      1.0000 0.50000  0.76450  0.25000  Biso   1.000  C
  C100     1.0000 0.00000  0.26450  0.25000  Biso   1.000  C
  C101     1.0000 0.50000  0.10120  0.75000  Biso   1.000  C
  C102     1.0000 0.00000  0.60120  0.75000  Biso   1.000  C
  C103     1.0000 0.50000  0.89880  0.25000  Biso   1.000  C
  C104     1.0000 0.00000  0.39880  0.25000  Biso   1.000  C
  C105     1.0000 0.47349  0.03720  0.68380  Biso   1.000  C
  C106     1.0000 0.52651  0.03720  0.81620  Biso   1.000  C
  C107     1.0000 0.97349  0.53720  0.68380  Biso   1.000  C
  C108     1.0000 0.02651  0.53720  0.81620  Biso   1.000  C
  C109     1.0000 0.52651  0.96280  0.31620  Biso   1.000  C
  C110     1.0000 0.47349  0.96280  0.18380  Biso   1.000  C
  C111     1.0000 0.02651  0.46280  0.31620  Biso   1.000  C
  C112     1.0000 0.97349  0.46280  0.18380  Biso   1.000  C
  H81      1.0000 0.45590  0.07780  0.63840  Biso   1.000  H
  H82      1.0000 0.54410  0.07780  0.86160  Biso   1.000  H
  H83      1.0000 0.95590  0.57780  0.63840  Biso   1.000  H
  H84      1.0000 0.04410  0.57780  0.86160  Biso   1.000  H
  H85      1.0000 0.54410  0.92220  0.36160  Biso   1.000  H
  H86      1.0000 0.45590  0.92220  0.13840  Biso   1.000  H
  H87      1.0000 0.04410  0.42220  0.36160  Biso   1.000  H
  H88      1.0000 0.95590  0.42220  0.13840  Biso   1.000  H
  C113     1.0000 0.47351  0.91200  0.68611  Biso   1.000  C
  C114     1.0000 0.52649  0.91200  0.81389  Biso   1.000  C
  C115     1.0000 0.97351  0.41200  0.68611  Biso   1.000  C
  C116     1.0000 0.02649  0.41200  0.81389  Biso   1.000  C
  C117     1.0000 0.52649  0.08800  0.31389  Biso   1.000  C
  C118     1.0000 0.47351  0.08800  0.18611  Biso   1.000  C
  C119     1.0000 0.02649  0.58800  0.31389  Biso   1.000  C
  C120     1.0000 0.97351  0.58800  0.18611  Biso   1.000  C
  H89      1.0000 0.45440  0.86920  0.64170  Biso   1.000  H
  H90      1.0000 0.54560  0.86920  0.85830  Biso   1.000  H
  H91      1.0000 0.95440  0.36920  0.64170  Biso   1.000  H
  H92      1.0000 0.04560  0.36920  0.85830  Biso   1.000  H
  H93      1.0000 0.54560  0.13080  0.35830  Biso   1.000  H
  H94      1.0000 0.45440  0.13080  0.14170  Biso   1.000  H
  H95      1.0000 0.04560  0.63080  0.35830  Biso   1.000  H
  H96      1.0000 0.95440  0.63080  0.14170  Biso   1.000  H
  C121     1.0000 0.51866  0.64380  0.92720  Biso   1.000  C
  C122     1.0000 0.48134  0.64380  0.57280  Biso   1.000  C
  C123     1.0000 0.01866  0.14380  0.92720  Biso   1.000  C
  C124     1.0000 0.98134  0.14380  0.57280  Biso   1.000  C
  C125     1.0000 0.48134  0.35620  0.07280  Biso   1.000  C
  C126     1.0000 0.51866  0.35620  0.42720  Biso   1.000  C
  C127     1.0000 0.98134  0.85620  0.07280  Biso   1.000  C
  C128     1.0000 0.01866  0.85620  0.42720  Biso   1.000  C
  H97      1.0000 0.53690  0.57050  0.93980  Biso   1.000  H
  H98      1.0000 0.46310  0.57050  0.56020  Biso   1.000  H
  H99      1.0000 0.03690  0.07050  0.93980  Biso   1.000  H
  H100     1.0000 0.96310  0.07050  0.56020  Biso   1.000  H
  H101     1.0000 0.46310  0.42950  0.06020  Biso   1.000  H
  H102     1.0000 0.53690  0.42950  0.43980  Biso   1.000  H
  H103     1.0000 0.96310  0.92950  0.06020  Biso   1.000  H
  H104     1.0000 0.03690  0.92950  0.43980  Biso   1.000  H
  C129     1.0000 0.49210  0.82130  0.96480  Biso   1.000  C
  C130     1.0000 0.50790  0.82130  0.53520  Biso   1.000  C
  C131     1.0000 0.99210  0.32130  0.96480  Biso   1.000  C
  C132     1.0000 0.00790  0.32130  0.53520  Biso   1.000  C
  C133     1.0000 0.50790  0.17870  0.03520  Biso   1.000  C
  C134     1.0000 0.49210  0.17870  0.46480  Biso   1.000  C
  C135     1.0000 0.00790  0.67870  0.03520  Biso   1.000  C
  C136     1.0000 0.99210  0.67870  0.46480  Biso   1.000  C
  H105     1.0000 0.51660  0.88030  0.96600  Biso   1.000  H
  H106     1.0000 0.48340  0.88030  0.53400  Biso   1.000  H
  H107     1.0000 0.01660  0.38030  0.96600  Biso   1.000  H
  H108     1.0000 0.98340  0.38030  0.53400  Biso   1.000  H
  H109     1.0000 0.48340  0.11970  0.03400  Biso   1.000  H
  H110     1.0000 0.51660  0.11970  0.46600  Biso   1.000  H
  H111     1.0000 0.98340  0.61970  0.03400  Biso   1.000  H
  H112     1.0000 0.01660  0.61970  0.46600  Biso   1.000  H
  H113     1.0000 0.48350  0.84060  0.00220  Biso   1.000  H
  H114     1.0000 0.51650  0.84060  0.49780  Biso   1.000  H
  H115     1.0000 0.98350  0.34060  0.00220  Biso   1.000  H
  H116     1.0000 0.01650  0.34060  0.49780  Biso   1.000  H
  H117     1.0000 0.51650  0.15940  0.99780  Biso   1.000  H
  H118     1.0000 0.48350  0.15940  0.50220  Biso   1.000  H
  H119     1.0000 0.01650  0.65940  0.99780  Biso   1.000  H
  H120     1.0000 0.98350  0.65940  0.50220  Biso   1.000  H
  H121     1.0000 0.46020  0.82190  0.91660  Biso   1.000  H
  H122     1.0000 0.53980  0.82190  0.58340  Biso   1.000  H
  H123     1.0000 0.96020  0.32190  0.91660  Biso   1.000  H
  H124     1.0000 0.03980  0.32190  0.58340  Biso   1.000  H
  H125     1.0000 0.53980  0.17810  0.08340  Biso   1.000  H
  H126     1.0000 0.46020  0.17810  0.41660  Biso   1.000  H
  H127     1.0000 0.03980  0.67810  0.08340  Biso   1.000  H
  H128     1.0000 0.96020  0.67810  0.41660  Biso   1.000  H
  C137     1.0000 0.54140  0.65640  0.05560  Biso   1.000  C
  C138     1.0000 0.45860  0.65640  0.44440  Biso   1.000  C
  C139     1.0000 0.04140  0.15640  0.05560  Biso   1.000  C
  C140     1.0000 0.95860  0.15640  0.44440  Biso   1.000  C
  C141     1.0000 0.45860  0.34360  0.94440  Biso   1.000  C
  C142     1.0000 0.54140  0.34360  0.55560  Biso   1.000  C
  C143     1.0000 0.95860  0.84360  0.94440  Biso   1.000  C
  C144     1.0000 0.04140  0.84360  0.55560  Biso   1.000  C
  H129     1.0000 0.55450  0.57590  0.05760  Biso   1.000  H
  H130     1.0000 0.44550  0.57590  0.44240  Biso   1.000  H
  H131     1.0000 0.05450  0.07590  0.05760  Biso   1.000  H
  H132     1.0000 0.94550  0.07590  0.44240  Biso   1.000  H
  H133     1.0000 0.44550  0.42410  0.94240  Biso   1.000  H
  H134     1.0000 0.55450  0.42410  0.55760  Biso   1.000  H
  H135     1.0000 0.94550  0.92410  0.94240  Biso   1.000  H
  H136     1.0000 0.05450  0.92410  0.55760  Biso   1.000  H
  H137     1.0000 0.51580  0.65490  0.07120  Biso   1.000  H
  H138     1.0000 0.48420  0.65490  0.42880  Biso   1.000  H
  H139     1.0000 0.01580  0.15490  0.07120  Biso   1.000  H
  H140     1.0000 0.98420  0.15490  0.42880  Biso   1.000  H
  H141     1.0000 0.48420  0.34510  0.92880  Biso   1.000  H
  H142     1.0000 0.51580  0.34510  0.57120  Biso   1.000  H
  H143     1.0000 0.98420  0.84510  0.92880  Biso   1.000  H
  H144     1.0000 0.01580  0.84510  0.57120  Biso   1.000  H
  H145     1.0000 0.57050  0.70840  0.08810  Biso   1.000  H
  H146     1.0000 0.42950  0.70840  0.41190  Biso   1.000  H
  H147     1.0000 0.07050  0.20840  0.08810  Biso   1.000  H
  H148     1.0000 0.92950  0.20840  0.41190  Biso   1.000  H
  H149     1.0000 0.42950  0.29160  0.91190  Biso   1.000  H
  H150     1.0000 0.57050  0.29160  0.58810  Biso   1.000  H
  H151     1.0000 0.92950  0.79160  0.91190  Biso   1.000  H
  H152     1.0000 0.07050  0.79160  0.58810  Biso   1.000  H
  N33      1.0000 0.86970  0.98180  0.79130  Biso   1.000  N
  N34      1.0000 0.13030  0.98180  0.70870  Biso   1.000  N
  N35      1.0000 0.36970  0.48180  0.79130  Biso   1.000  N
  N36      1.0000 0.63030  0.48180  0.70870  Biso   1.000  N
  N37      1.0000 0.13030  0.01820  0.20870  Biso   1.000  N
  N38      1.0000 0.86970  0.01820  0.29130  Biso   1.000  N
  N39      1.0000 0.63030  0.51820  0.20870  Biso   1.000  N
  N40      1.0000 0.36970  0.51820  0.29130  Biso   1.000  N
  N41      1.0000 0.60730  0.06000  0.71200  Biso   1.000  N
  N42      1.0000 0.39270  0.06000  0.78800  Biso   1.000  N
  N43      1.0000 0.10730  0.56000  0.71200  Biso   1.000  N
  N44      1.0000 0.89270  0.56000  0.78800  Biso   1.000  N
  N45      1.0000 0.39270  0.94000  0.28800  Biso   1.000  N
  N46      1.0000 0.60730  0.94000  0.21200  Biso   1.000  N
  N47      1.0000 0.89270  0.44000  0.28800  Biso   1.000  N
  N48      1.0000 0.10730  0.44000  0.21200  Biso   1.000  N
  C145     1.0000 0.85810  0.06150  0.82640  Biso   1.000  C
  C146     1.0000 0.14190  0.06150  0.67360  Biso   1.000  C
  C147     1.0000 0.35810  0.56150  0.82640  Biso   1.000  C
  C148     1.0000 0.64190  0.56150  0.67360  Biso   1.000  C
  C149     1.0000 0.14190  0.93850  0.17360  Biso   1.000  C
  C150     1.0000 0.85810  0.93850  0.32640  Biso   1.000  C
  C151     1.0000 0.64190  0.43850  0.17360  Biso   1.000  C
  C152     1.0000 0.35810  0.43850  0.32640  Biso   1.000  C
  H153     1.0000 0.88540  0.10850  0.86300  Biso   1.000  H
  H154     1.0000 0.11460  0.10850  0.63700  Biso   1.000  H
  H155     1.0000 0.38540  0.60850  0.86300  Biso   1.000  H
  H156     1.0000 0.61460  0.60850  0.63700  Biso   1.000  H
  H157     1.0000 0.11460  0.89150  0.13700  Biso   1.000  H
  H158     1.0000 0.88540  0.89150  0.36300  Biso   1.000  H
  H159     1.0000 0.61460  0.39150  0.13700  Biso   1.000  H
  H160     1.0000 0.38540  0.39150  0.36300  Biso   1.000  H
  C153     1.0000 0.80640  0.07970  0.81160  Biso   1.000  C
  C154     1.0000 0.19360  0.07970  0.68840  Biso   1.000  C
  C155     1.0000 0.30640  0.57970  0.81160  Biso   1.000  C
  C156     1.0000 0.69360  0.57970  0.68840  Biso   1.000  C
  C157     1.0000 0.19360  0.92030  0.18840  Biso   1.000  C
  C158     1.0000 0.80640  0.92030  0.31160  Biso   1.000  C
  C159     1.0000 0.69360  0.42030  0.18840  Biso   1.000  C
  C160     1.0000 0.30640  0.42030  0.31160  Biso   1.000  C
  H161     1.0000 0.79960  0.13920  0.83710  Biso   1.000  H
  H162     1.0000 0.20040  0.13920  0.66290  Biso   1.000  H
  H163     1.0000 0.29960  0.63920  0.83710  Biso   1.000  H
  H164     1.0000 0.70040  0.63920  0.66290  Biso   1.000  H
  H165     1.0000 0.20040  0.86080  0.16290  Biso   1.000  H
  H166     1.0000 0.79960  0.86080  0.33710  Biso   1.000  H
  H167     1.0000 0.70040  0.36080  0.16290  Biso   1.000  H
  H168     1.0000 0.29960  0.36080  0.33710  Biso   1.000  H
  C161     1.0000 0.76580  0.00950  0.75930  Biso   1.000  C
  C162     1.0000 0.23420  0.00950  0.74070  Biso   1.000  C
  C163     1.0000 0.26580  0.50950  0.75930  Biso   1.000  C
  C164     1.0000 0.73420  0.50950  0.74070  Biso   1.000  C
  C165     1.0000 0.23420  0.99050  0.24070  Biso   1.000  C
  C166     1.0000 0.76580  0.99050  0.25930  Biso   1.000  C
  C167     1.0000 0.73420  0.49050  0.24070  Biso   1.000  C
  C168     1.0000 0.26580  0.49050  0.25930  Biso   1.000  C
  C169     1.0000 0.77690  0.92230  0.72070  Biso   1.000  C
  C170     1.0000 0.22310  0.92230  0.77930  Biso   1.000  C
  C171     1.0000 0.27690  0.42230  0.72070  Biso   1.000  C
  C172     1.0000 0.72310  0.42230  0.77930  Biso   1.000  C
  C173     1.0000 0.22310  0.07770  0.27930  Biso   1.000  C
  C174     1.0000 0.77690  0.07770  0.22070  Biso   1.000  C
  C175     1.0000 0.72310  0.57770  0.27930  Biso   1.000  C
  C176     1.0000 0.27690  0.57770  0.22070  Biso   1.000  C
  H169     1.0000 0.75040  0.87280  0.68480  Biso   1.000  H
  H170     1.0000 0.24960  0.87280  0.81520  Biso   1.000  H
  H171     1.0000 0.25040  0.37280  0.68480  Biso   1.000  H
  H172     1.0000 0.74960  0.37280  0.81520  Biso   1.000  H
  H173     1.0000 0.24960  0.12720  0.31520  Biso   1.000  H
  H174     1.0000 0.75040  0.12720  0.18480  Biso   1.000  H
  H175     1.0000 0.74960  0.62720  0.31520  Biso   1.000  H
  H176     1.0000 0.25040  0.62720  0.18480  Biso   1.000  H
  C177     1.0000 0.83050  0.91340  0.73910  Biso   1.000  C
  C178     1.0000 0.16950  0.91340  0.76090  Biso   1.000  C
  C179     1.0000 0.33050  0.41340  0.73910  Biso   1.000  C
  C180     1.0000 0.66950  0.41340  0.76090  Biso   1.000  C
  C181     1.0000 0.16950  0.08660  0.26090  Biso   1.000  C
  C182     1.0000 0.83050  0.08660  0.23910  Biso   1.000  C
  C183     1.0000 0.66950  0.58660  0.26090  Biso   1.000  C
  C184     1.0000 0.33050  0.58660  0.23910  Biso   1.000  C
  H177     1.0000 0.83890  0.85710  0.71370  Biso   1.000  H
  H178     1.0000 0.16110  0.85710  0.78630  Biso   1.000  H
  H179     1.0000 0.33890  0.35710  0.71370  Biso   1.000  H
  H180     1.0000 0.66110  0.35710  0.78630  Biso   1.000  H
  H181     1.0000 0.16110  0.14290  0.28630  Biso   1.000  H
  H182     1.0000 0.83890  0.14290  0.21370  Biso   1.000  H
  H183     1.0000 0.66110  0.64290  0.28630  Biso   1.000  H
  H184     1.0000 0.33890  0.64290  0.21370  Biso   1.000  H
  C185     1.0000 0.71010  0.02600  0.74260  Biso   1.000  C
  C186     1.0000 0.28990  0.02600  0.75740  Biso   1.000  C
  C187     1.0000 0.21010  0.52600  0.74260  Biso   1.000  C
  C188     1.0000 0.78990  0.52600  0.75740  Biso   1.000  C
  C189     1.0000 0.28990  0.97400  0.25740  Biso   1.000  C
  C190     1.0000 0.71010  0.97400  0.24260  Biso   1.000  C
  C191     1.0000 0.78990  0.47400  0.25740  Biso   1.000  C
  C192     1.0000 0.21010  0.47400  0.24260  Biso   1.000  C
  C193     1.0000 0.70130  0.07010  0.79840  Biso   1.000  C
  C194     1.0000 0.29870  0.07010  0.70160  Biso   1.000  C
  C195     1.0000 0.20130  0.57010  0.79840  Biso   1.000  C
  C196     1.0000 0.79870  0.57010  0.70160  Biso   1.000  C
  C197     1.0000 0.29870  0.92990  0.20160  Biso   1.000  C
  C198     1.0000 0.70130  0.92990  0.29840  Biso   1.000  C
  C199     1.0000 0.79870  0.42990  0.20160  Biso   1.000  C
  C200     1.0000 0.20130  0.42990  0.29840  Biso   1.000  C
  H185     1.0000 0.72950  0.08820  0.84580  Biso   1.000  H
  H186     1.0000 0.27050  0.08820  0.65420  Biso   1.000  H
  H187     1.0000 0.22950  0.58820  0.84580  Biso   1.000  H
  H188     1.0000 0.77050  0.58820  0.65420  Biso   1.000  H
  H189     1.0000 0.27050  0.91180  0.15420  Biso   1.000  H
  H190     1.0000 0.72950  0.91180  0.34580  Biso   1.000  H
  H191     1.0000 0.77050  0.41180  0.15420  Biso   1.000  H
  H192     1.0000 0.22950  0.41180  0.34580  Biso   1.000  H
  C201     1.0000 0.64850  0.08580  0.78010  Biso   1.000  C
  C202     1.0000 0.35150  0.08580  0.71990  Biso   1.000  C
  C203     1.0000 0.14850  0.58580  0.78010  Biso   1.000  C
  C204     1.0000 0.85150  0.58580  0.71990  Biso   1.000  C
  C205     1.0000 0.35150  0.91420  0.21990  Biso   1.000  C
  C206     1.0000 0.64850  0.91420  0.28010  Biso   1.000  C
  C207     1.0000 0.85150  0.41420  0.21990  Biso   1.000  C
  C208     1.0000 0.14850  0.41420  0.28010  Biso   1.000  C
  H193     1.0000 0.64180  0.11490  0.81620  Biso   1.000  H
  H194     1.0000 0.35820  0.11490  0.68380  Biso   1.000  H
  H195     1.0000 0.14180  0.61490  0.81620  Biso   1.000  H
  H196     1.0000 0.85820  0.61490  0.68380  Biso   1.000  H
  H197     1.0000 0.35820  0.88510  0.18380  Biso   1.000  H
  H198     1.0000 0.64180  0.88510  0.31620  Biso   1.000  H
  H199     1.0000 0.85820  0.38510  0.18380  Biso   1.000  H
  H200     1.0000 0.14180  0.38510  0.31620  Biso   1.000  H
  C209     1.0000 0.61620  0.01900  0.65990  Biso   1.000  C
  C210     1.0000 0.38380  0.01900  0.84010  Biso   1.000  C
  C211     1.0000 0.11620  0.51900  0.65990  Biso   1.000  C
  C212     1.0000 0.88380  0.51900  0.84010  Biso   1.000  C
  C213     1.0000 0.38380  0.98100  0.34010  Biso   1.000  C
  C214     1.0000 0.61620  0.98100  0.15990  Biso   1.000  C
  C215     1.0000 0.88380  0.48100  0.34010  Biso   1.000  C
  C216     1.0000 0.11620  0.48100  0.15990  Biso   1.000  C
  H201     1.0000 0.58720  0.00260  0.61280  Biso   1.000  H
  H202     1.0000 0.41280  0.00260  0.88720  Biso   1.000  H
  H203     1.0000 0.08720  0.50260  0.61280  Biso   1.000  H
  H204     1.0000 0.91280  0.50260  0.88720  Biso   1.000  H
  H205     1.0000 0.41280  0.99740  0.38720  Biso   1.000  H
  H206     1.0000 0.58720  0.99740  0.11280  Biso   1.000  H
  H207     1.0000 0.91280  0.49740  0.38720  Biso   1.000  H
  H208     1.0000 0.08720  0.49740  0.11280  Biso   1.000  H
  C217     1.0000 0.66750  0.99940  0.67300  Biso   1.000  C
  C218     1.0000 0.33250  0.99940  0.82700  Biso   1.000  C
  C219     1.0000 0.16750  0.49940  0.67300  Biso   1.000  C
  C220     1.0000 0.83250  0.49940  0.82700  Biso   1.000  C
  C221     1.0000 0.33250  0.00060  0.32700  Biso   1.000  C
  C222     1.0000 0.66750  0.00060  0.17300  Biso   1.000  C
  C223     1.0000 0.83250  0.50060  0.32700  Biso   1.000  C
  C224     1.0000 0.16750  0.50060  0.17300  Biso   1.000  C
  H209     1.0000 0.67270  0.96930  0.63560  Biso   1.000  H
  H210     1.0000 0.32730  0.96930  0.86440  Biso   1.000  H
  H211     1.0000 0.17270  0.46930  0.63560  Biso   1.000  H
  H212     1.0000 0.82730  0.46930  0.86440  Biso   1.000  H
  H213     1.0000 0.32730  0.03070  0.36440  Biso   1.000  H
  H214     1.0000 0.67270  0.03070  0.13560  Biso   1.000  H
  H215     1.0000 0.82730  0.53070  0.36440  Biso   1.000  H
  H216     1.0000 0.17270  0.53070  0.13560  Biso   1.000  H
  O9       1.0000 0.36090  0.21220  0.45880  Biso   1.000  O
  O10      1.0000 0.63910  0.21220  0.04120  Biso   1.000  O
  O11      1.0000 0.86090  0.71220  0.45880  Biso   1.000  O
  O12      1.0000 0.13910  0.71220  0.04120  Biso   1.000  O
  O13      1.0000 0.63910  0.78780  0.54120  Biso   1.000  O
  O14      1.0000 0.36090  0.78780  0.95880  Biso   1.000  O
  O15      1.0000 0.13910  0.28780  0.54120  Biso   1.000  O
  O16      1.0000 0.86090  0.28780  0.95880  Biso   1.000  O
  O17      1.0000 0.32080  0.36560  0.48360  Biso   1.000  O
  O18      1.0000 0.67920  0.36560  0.01640  Biso   1.000  O
  O19      1.0000 0.82080  0.86560  0.48360  Biso   1.000  O
  O20      1.0000 0.17920  0.86560  0.01640  Biso   1.000  O
  O21      1.0000 0.67920  0.63440  0.51640  Biso   1.000  O
  O22      1.0000 0.32080  0.63440  0.98360  Biso   1.000  O
  O23      1.0000 0.17920  0.13440  0.51640  Biso   1.000  O
  O24      1.0000 0.82080  0.13440  0.98360  Biso   1.000  O
  O25      1.0000 0.37780  0.24200  0.58170  Biso   1.000  O
  O26      1.0000 0.62220  0.24200  0.91830  Biso   1.000  O
  O27      1.0000 0.87780  0.74200  0.58170  Biso   1.000  O
  O28      1.0000 0.12220  0.74200  0.91830  Biso   1.000  O
  O29      1.0000 0.62220  0.75800  0.41830  Biso   1.000  O
  O30      1.0000 0.37780  0.75800  0.08170  Biso   1.000  O
  O31      1.0000 0.12220  0.25800  0.41830  Biso   1.000  O
  O32      1.0000 0.87780  0.25800  0.08170  Biso   1.000  O
  O33      1.0000 0.41090  0.37600  0.53100  Biso   1.000  O
  O34      1.0000 0.58910  0.37600  0.96900  Biso   1.000  O
  O35      1.0000 0.91090  0.87600  0.53100  Biso   1.000  O
  O36      1.0000 0.08910  0.87600  0.96900  Biso   1.000  O
  O37      1.0000 0.58910  0.62400  0.46900  Biso   1.000  O
  O38      1.0000 0.41090  0.62400  0.03100  Biso   1.000  O
  O39      1.0000 0.08910  0.12400  0.46900  Biso   1.000  O
  O40      1.0000 0.91090  0.12400  0.03100  Biso   1.000  O
  Cl1      1.0000 0.36910  0.29320  0.51510  Biso   1.000  Cl
  Cl2      1.0000 0.63090  0.29320  0.98490  Biso   1.000  Cl
  Cl3      1.0000 0.86910  0.79320  0.51510  Biso   1.000  Cl
  Cl4      1.0000 0.13090  0.79320  0.98490  Biso   1.000  Cl
  Cl5      1.0000 0.63090  0.70680  0.48490  Biso   1.000  Cl
  Cl6      1.0000 0.36910  0.70680  0.01510  Biso   1.000  Cl
  Cl7      1.0000 0.13090  0.20680  0.48490  Biso   1.000  Cl
  Cl8      1.0000 0.86910  0.20680  0.01510  Biso   1.000  Cl
  O41      1.0000 0.31830  0.25360  0.45590  Biso   1.000  O
  O42      1.0000 0.68170  0.25360  0.04410  Biso   1.000  O
  O43      1.0000 0.81830  0.75360  0.45590  Biso   1.000  O
  O44      1.0000 0.18170  0.75360  0.04410  Biso   1.000  O
  O45      1.0000 0.68170  0.74640  0.54410  Biso   1.000  O
  O46      1.0000 0.31830  0.74640  0.95590  Biso   1.000  O
  O47      1.0000 0.18170  0.24640  0.54410  Biso   1.000  O
  O48      1.0000 0.81830  0.24640  0.95590  Biso   1.000  O
  O49      1.0000 0.38090  0.41110  0.50460  Biso   1.000  O
  O50      1.0000 0.61910  0.41110  0.99540  Biso   1.000  O
  O51      1.0000 0.88090  0.91110  0.50460  Biso   1.000  O
  O52      1.0000 0.11910  0.91110  0.99540  Biso   1.000  O
  O53      1.0000 0.61910  0.58890  0.49540  Biso   1.000  O
  O54      1.0000 0.38090  0.58890  0.00460  Biso   1.000  O
  O55      1.0000 0.11910  0.08890  0.49540  Biso   1.000  O
  O56      1.0000 0.88090  0.08890  0.00460  Biso   1.000  O
  O57      1.0000 0.40570  0.20090  0.52030  Biso   1.000  O
  O58      1.0000 0.59430  0.20090  0.97970  Biso   1.000  O
  O59      1.0000 0.90570  0.70090  0.52030  Biso   1.000  O
  O60      1.0000 0.09430  0.70090  0.97970  Biso   1.000  O
  O61      1.0000 0.59430  0.79910  0.47970  Biso   1.000  O
  O62      1.0000 0.40570  0.79910  0.02030  Biso   1.000  O
  O63      1.0000 0.09430  0.29910  0.47970  Biso   1.000  O
  O64      1.0000 0.90570  0.29910  0.02030  Biso   1.000  O
  O65      1.0000 0.36940  0.29000  0.58400  Biso   1.000  O
  O66      1.0000 0.63060  0.29000  0.91600  Biso   1.000  O
  O67      1.0000 0.86940  0.79000  0.58400  Biso   1.000  O
  O68      1.0000 0.13060  0.79000  0.91600  Biso   1.000  O
  O69      1.0000 0.63060  0.71000  0.41600  Biso   1.000  O
  O70      1.0000 0.36940  0.71000  0.08400  Biso   1.000  O
  O71      1.0000 0.13060  0.21000  0.41600  Biso   1.000  O
  O72      1.0000 0.86940  0.21000  0.08400  Biso   1.000  O
