data_image0
_cell_length_a       10.32
_cell_length_b       12.501
_cell_length_c       13.001
_cell_angle_alpha    110.626
_cell_angle_beta     101.17
_cell_angle_gamma    93.891

_symmetry_space_group_name_H-M    "P 1"
_symmetry_int_tables_number       1

loop_
  _symmetry_equiv_pos_as_xyz
  'x, y, z'

loop_
  _atom_site_label
  _atom_site_occupancy
  _atom_site_fract_x
  _atom_site_fract_y
  _atom_site_fract_z
  _atom_site_thermal_displace_type
  _atom_site_B_iso_or_equiv
  _atom_site_type_symbol
  Cu1      1.0000 0.21874  0.93256  0.76383  Biso   1.000  Cu
  Cu2      1.0000 0.78126  0.06744  0.23617  Biso   1.000  Cu
  Cu3      1.0000 0.98809  0.00101  0.75258  Biso   1.000  Cu
  Cu4      1.0000 0.01191  0.99899  0.24742  Biso   1.000  Cu
  O1       1.0000 0.14400  0.84080  0.60330  Biso   1.000  O
  O2       1.0000 0.85600  0.15920  0.39670  Biso   1.000  O
  O3       1.0000 0.93130  0.87090  0.60810  Biso   1.000  O
  O4       1.0000 0.06870  0.12910  0.39190  Biso   1.000  O
  O5       1.0000 0.94120  0.90560  0.32330  Biso   1.000  O
  O6       1.0000 0.05880  0.09440  0.67670  Biso   1.000  O
  O7       1.0000 0.73050  0.93880  0.27460  Biso   1.000  O
  O8       1.0000 0.26950  0.06120  0.72540  Biso   1.000  O
  O9       1.0000 0.13880  0.81250  0.80320  Biso   1.000  O
  O10      1.0000 0.86120  0.18750  0.19680  Biso   1.000  O
  O11      1.0000 0.95710  0.89510  0.83030  Biso   1.000  O
  O12      1.0000 0.04290  0.10490  0.16970  Biso   1.000  O
  O13      1.0000 0.92170  0.87710  0.10100  Biso   1.000  O
  O14      1.0000 0.07830  0.12290  0.89900  Biso   1.000  O
  O15      1.0000 0.74680  0.96610  0.07380  Biso   1.000  O
  O16      1.0000 0.25320  0.03390  0.92620  Biso   1.000  O
  C1       1.0000 0.01840  0.82410  0.56050  Biso   1.000  C
  C2       1.0000 0.98160  0.17590  0.43950  Biso   1.000  C
  C3       1.0000 0.97880  0.73790  0.43770  Biso   1.000  C
  C4       1.0000 0.02120  0.26210  0.56230  Biso   1.000  C
  H1       1.0000 0.01000  0.66620  0.43660  Biso   1.000  H
  H2       1.0000 0.99000  0.33380  0.56340  Biso   1.000  H
  H3       1.0000 0.02840  0.76740  0.39470  Biso   1.000  H
  H4       1.0000 0.97160  0.23260  0.60530  Biso   1.000  H
  C5       1.0000 0.83150  0.70790  0.37320  Biso   1.000  C
  C6       1.0000 0.16850  0.29210  0.62680  Biso   1.000  C
  C7       1.0000 0.76680  0.81190  0.37430  Biso   1.000  C
  C8       1.0000 0.23320  0.18810  0.62570  Biso   1.000  C
  H5       1.0000 0.67280  0.78520  0.33860  Biso   1.000  H
  H6       1.0000 0.32720  0.21480  0.66140  Biso   1.000  H
  H7       1.0000 0.77250  0.85970  0.45260  Biso   1.000  H
  H8       1.0000 0.22750  0.14030  0.54740  Biso   1.000  H
  C9       1.0000 0.81660  0.88670  0.32060  Biso   1.000  C
  C10      1.0000 0.18340  0.11330  0.67940  Biso   1.000  C
  C11      1.0000 0.75200  0.63820  0.42430  Biso   1.000  C
  C12      1.0000 0.24800  0.36180  0.57570  Biso   1.000  C
  H9       1.0000 0.80250  0.57890  0.43560  Biso   1.000  H
  H10      1.0000 0.19750  0.42110  0.56440  Biso   1.000  H
  H11      1.0000 0.74390  0.68960  0.49780  Biso   1.000  H
  H12      1.0000 0.25610  0.31040  0.50220  Biso   1.000  H
  C13      1.0000 0.61220  0.58050  0.35200  Biso   1.000  C
  C14      1.0000 0.38780  0.41950  0.64800  Biso   1.000  C
  H13      1.0000 0.55710  0.63930  0.34750  Biso   1.000  H
  H14      1.0000 0.44290  0.36070  0.65250  Biso   1.000  H
  H15      1.0000 0.57110  0.53450  0.38690  Biso   1.000  H
  H16      1.0000 0.42890  0.46550  0.61310  Biso   1.000  H
  C15      1.0000 0.62010  0.50240  0.23200  Biso   1.000  C
  C16      1.0000 0.37990  0.49760  0.76800  Biso   1.000  C
  H17      1.0000 0.53090  0.46830  0.18590  Biso   1.000  H
  H18      1.0000 0.46910  0.53170  0.81410  Biso   1.000  H
  H19      1.0000 0.67010  0.44030  0.23570  Biso   1.000  H
  H20      1.0000 0.32990  0.55970  0.76430  Biso   1.000  H
  C17      1.0000 0.69080  0.57660  0.17800  Biso   1.000  C
  C18      1.0000 0.30920  0.42340  0.82200  Biso   1.000  C
  H21      1.0000 0.69610  0.52830  0.10250  Biso   1.000  H
  H22      1.0000 0.30390  0.47170  0.89750  Biso   1.000  H
  H23      1.0000 0.63940  0.63730  0.17250  Biso   1.000  H
  H24      1.0000 0.36060  0.36270  0.82750  Biso   1.000  H
  C19      1.0000 0.83000  0.62960  0.25040  Biso   1.000  C
  C20      1.0000 0.17000  0.37040  0.74960  Biso   1.000  C
  H25      1.0000 0.87310  0.67480  0.21590  Biso   1.000  H
  H26      1.0000 0.12690  0.32520  0.78410  Biso   1.000  H
  H27      1.0000 0.88170  0.56800  0.25210  Biso   1.000  H
  H28      1.0000 0.11830  0.43200  0.74790  Biso   1.000  H
  C21      1.0000 0.03100  0.82170  0.83700  Biso   1.000  C
  C22      1.0000 0.96900  0.17830  0.16300  Biso   1.000  C
  C23      1.0000 0.98990  0.73830  0.88830  Biso   1.000  C
  C24      1.0000 0.01010  0.26170  0.11170  Biso   1.000  C
  H29      1.0000 0.03090  0.77190  0.96860  Biso   1.000  H
  H30      1.0000 0.96910  0.22810  0.03140  Biso   1.000  H
  H31      1.0000 0.02880  0.66890  0.85700  Biso   1.000  H
  H32      1.0000 0.97120  0.33110  0.14300  Biso   1.000  H
  C25      1.0000 0.84120  0.70070  0.87540  Biso   1.000  C
  C26      1.0000 0.15880  0.29930  0.12460  Biso   1.000  C
  C27      1.0000 0.76460  0.80200  0.92150  Biso   1.000  C
  C28      1.0000 0.23540  0.19800  0.07850  Biso   1.000  C
  H33      1.0000 0.76020  0.84510  0.87210  Biso   1.000  H
  H34      1.0000 0.23980  0.15490  0.12790  Biso   1.000  H
  H35      1.0000 0.67380  0.76920  0.91400  Biso   1.000  H
  H36      1.0000 0.32620  0.23080  0.08600  Biso   1.000  H
  C29      1.0000 0.81420  0.88680  0.04020  Biso   1.000  C
  C30      1.0000 0.18580  0.11320  0.95980  Biso   1.000  C
  C31      1.0000 0.76790  0.64000  0.74740  Biso   1.000  C
  C32      1.0000 0.23210  0.36000  0.25260  Biso   1.000  C
  H37      1.0000 0.67240  0.62810  0.74120  Biso   1.000  H
  H38      1.0000 0.32760  0.37190  0.25880  Biso   1.000  H
  H39      1.0000 0.78510  0.69060  0.70800  Biso   1.000  H
  H40      1.0000 0.21490  0.30940  0.29200  Biso   1.000  H
  C33      1.0000 0.81160  0.52560  0.69090  Biso   1.000  C
  C34      1.0000 0.18840  0.47440  0.30910  Biso   1.000  C
  H41      1.0000 0.76000  0.49030  0.61330  Biso   1.000  H
  H42      1.0000 0.24000  0.50970  0.38670  Biso   1.000  H
  H43      1.0000 0.90490  0.53800  0.68950  Biso   1.000  H
  H44      1.0000 0.09510  0.46200  0.31050  Biso   1.000  H
  C35      1.0000 0.79320  0.44560  0.75140  Biso   1.000  C
  C36      1.0000 0.20680  0.55440  0.24860  Biso   1.000  C
  H45      1.0000 0.82660  0.37430  0.71550  Biso   1.000  H
  H46      1.0000 0.17340  0.62570  0.28450  Biso   1.000  H
  H47      1.0000 0.69880  0.42680  0.74620  Biso   1.000  H
  H48      1.0000 0.30120  0.57320  0.25380  Biso   1.000  H
  C37      1.0000 0.86670  0.50040  0.87480  Biso   1.000  C
  C38      1.0000 0.13330  0.49960  0.12520  Biso   1.000  C
  H49      1.0000 0.96210  0.51140  0.88010  Biso   1.000  H
  H50      1.0000 0.03790  0.48860  0.11990  Biso   1.000  H
  H51      1.0000 0.84890  0.44900  0.91310  Biso   1.000  H
  H52      1.0000 0.15110  0.55100  0.08690  Biso   1.000  H
  C39      1.0000 0.82330  0.61660  0.93280  Biso   1.000  C
  C40      1.0000 0.17670  0.38340  0.06720  Biso   1.000  C
  H53      1.0000 0.72990  0.60400  0.93410  Biso   1.000  H
  H54      1.0000 0.27010  0.39600  0.06590  Biso   1.000  H
  H55      1.0000 0.87470  0.65050  0.01040  Biso   1.000  H
  H56      1.0000 0.12530  0.34950  0.98960  Biso   1.000  H
  O17      1.0000 0.41640  0.88490  0.77280  Biso   1.000  O
  O18      1.0000 0.58360  0.11510  0.22720  Biso   1.000  O
  H57      1.0000 0.47240  0.91660  0.83940  Biso   1.000  H
  H58      1.0000 0.52760  0.08340  0.16060  Biso   1.000  H
  O19      1.0000 0.79230  0.05570  0.75280  Biso   1.000  O
  O20      1.0000 0.20770  0.94430  0.24720  Biso   1.000  O
  H59      1.0000 0.75580  0.05570  0.80770  Biso   1.000  H
  H60      1.0000 0.24420  0.94430  0.19230  Biso   1.000  H
  C41      1.0000 0.40900  0.70900  0.62300  Biso   1.000  C
  C42      1.0000 0.59100  0.29100  0.37700  Biso   1.000  C
  H61      1.0000 0.44310  0.67070  0.55830  Biso   1.000  H
  H62      1.0000 0.55690  0.32930  0.44170  Biso   1.000  H
  H63      1.0000 0.31450  0.70680  0.60060  Biso   1.000  H
  H64      1.0000 0.68550  0.29320  0.39940  Biso   1.000  H
  H65      1.0000 0.42780  0.67150  0.67620  Biso   1.000  H
  H66      1.0000 0.57220  0.32850  0.32380  Biso   1.000  H
  C43      1.0000 0.47400  0.83100  0.67700  Biso   1.000  C
  C44      1.0000 0.52600  0.16900  0.32300  Biso   1.000  C
  H67      1.0000 0.56990  0.83500  0.70260  Biso   1.000  H
  H68      1.0000 0.43010  0.16500  0.29740  Biso   1.000  H
  H69      1.0000 0.45810  0.86980  0.62430  Biso   1.000  H
  H70      1.0000 0.54190  0.13020  0.37570  Biso   1.000  H
  C45      1.0000 0.62320  0.11500  0.62590  Biso   1.000  C
  C46      1.0000 0.37680  0.88500  0.37410  Biso   1.000  C
  H71      1.0000 0.61540  0.17820  0.60000  Biso   1.000  H
  H72      1.0000 0.38460  0.82180  0.40000  Biso   1.000  H
  H73      1.0000 0.59990  0.04390  0.56720  Biso   1.000  H
  H74      1.0000 0.40010  0.95610  0.43280  Biso   1.000  H
  H75      1.0000 0.55410  0.12200  0.67370  Biso   1.000  H
  H76      1.0000 0.44590  0.87800  0.32630  Biso   1.000  H
  C47      1.0000 0.76000  0.12800  0.69600  Biso   1.000  C
  C48      1.0000 0.24000  0.87200  0.30400  Biso   1.000  C
  H77      1.0000 0.82160  0.12220  0.64690  Biso   1.000  H
  H78      1.0000 0.17840  0.87780  0.35310  Biso   1.000  H
  H79      1.0000 0.78010  0.20630  0.75180  Biso   1.000  H
  H80      1.0000 0.21990  0.79370  0.24820  Biso   1.000  H
  O21      1.0000 0.63960  0.05840  0.91490  Biso   1.000  O
  O22      1.0000 0.36040  0.94160  0.08510  Biso   1.000  O
  C49      1.0000 0.59300  0.25470  0.93490  Biso   1.000  C
  C50      1.0000 0.40700  0.74530  0.06510  Biso   1.000  C
  H81      1.0000 0.55430  0.31520  0.98260  Biso   1.000  H
  H82      1.0000 0.44570  0.68480  0.01740  Biso   1.000  H
  H83      1.0000 0.54350  0.23100  0.85800  Biso   1.000  H
  H84      1.0000 0.45650  0.76900  0.14200  Biso   1.000  H
  H85      1.0000 0.68410  0.28270  0.94070  Biso   1.000  H
  H86      1.0000 0.31590  0.71730  0.05930  Biso   1.000  H
  C51      1.0000 0.58850  0.15560  0.97090  Biso   1.000  C
  C52      1.0000 0.41150  0.84440  0.02910  Biso   1.000  C
  H87      1.0000 0.63500  0.18340  0.04990  Biso   1.000  H
  H88      1.0000 0.36500  0.81660  0.95010  Biso   1.000  H
  H89      1.0000 0.49570  0.13150  0.96700  Biso   1.000  H
  H90      1.0000 0.50430  0.86850  0.03300  Biso   1.000  H
  C53      1.0000 0.46300  0.75800  0.59900  Biso   1.000  C
  C54      1.0000 0.53700  0.24200  0.40100  Biso   1.000  C
  C55      1.0000 0.42700  0.76600  0.70700  Biso   1.000  C
  C56      1.0000 0.57300  0.23400  0.29300  Biso   1.000  C
  C57      1.0000 0.72300  0.04100  0.64630  Biso   1.000  C
  C58      1.0000 0.27700  0.95900  0.35370  Biso   1.000  C
  H91      1.0000 0.46680  0.67920  0.55470  Biso   1.000  H
  H92      1.0000 0.53320  0.32080  0.44530  Biso   1.000  H
  H93      1.0000 0.54830  0.80380  0.61530  Biso   1.000  H
  H94      1.0000 0.45170  0.19620  0.38470  Biso   1.000  H
  H95      1.0000 0.39650  0.78700  0.55680  Biso   1.000  H
  H96      1.0000 0.60350  0.21300  0.44320  Biso   1.000  H
  H97      1.0000 0.34190  0.71700  0.69110  Biso   1.000  H
  H98      1.0000 0.65810  0.28300  0.30890  Biso   1.000  H
  H99      1.0000 0.49420  0.73800  0.75080  Biso   1.000  H
  H100     1.0000 0.50580  0.26200  0.24920  Biso   1.000  H
  H101     1.0000 0.57320  0.08780  0.55040  Biso   1.000  H
  H102     1.0000 0.42680  0.91220  0.44960  Biso   1.000  H
  H103     1.0000 0.55680  0.12600  0.67510  Biso   1.000  H
  H104     1.0000 0.44320  0.87400  0.32490  Biso   1.000  H
  H105     1.0000 0.67070  0.19200  0.64640  Biso   1.000  H
  H106     1.0000 0.32930  0.80800  0.35360  Biso   1.000  H
  H107     1.0000 0.67810  0.96160  0.61190  Biso   1.000  H
  H108     1.0000 0.32190  0.03840  0.38810  Biso   1.000  H
  H109     1.0000 0.78920  0.04690  0.60390  Biso   1.000  H
  H110     1.0000 0.21080  0.95310  0.39610  Biso   1.000  H
