data_image0
_cell_length_a       16.3625
_cell_length_b       10.8968
_cell_length_c       21.5483
_cell_angle_alpha    90
_cell_angle_beta     108.094
_cell_angle_gamma    90

_symmetry_space_group_name_H-M    "P 1"
_symmetry_int_tables_number       1

loop_
  _symmetry_equiv_pos_as_xyz
  'x, y, z'

loop_
  _atom_site_label
  _atom_site_occupancy
  _atom_site_fract_x
  _atom_site_fract_y
  _atom_site_fract_z
  _atom_site_thermal_displace_type
  _atom_site_B_iso_or_equiv
  _atom_site_type_symbol
  Cu1      1.0000 0.75000  0.47233  0.00000  Biso   1.000  Cu
  Cu2      1.0000 0.25000  0.97233  0.50000  Biso   1.000  Cu
  Cu3      1.0000 0.25000  0.52767  0.00000  Biso   1.000  Cu
  Cu4      1.0000 0.75000  0.02767  0.50000  Biso   1.000  Cu
  N1       1.0000 0.65370  0.43861  0.04191  Biso   1.000  N
  N2       1.0000 0.84630  0.43861  0.95809  Biso   1.000  N
  N3       1.0000 0.15370  0.93861  0.54191  Biso   1.000  N
  N4       1.0000 0.34630  0.93861  0.45809  Biso   1.000  N
  N5       1.0000 0.34630  0.56139  0.95809  Biso   1.000  N
  N6       1.0000 0.15370  0.56139  0.04191  Biso   1.000  N
  N7       1.0000 0.84630  0.06139  0.45809  Biso   1.000  N
  N8       1.0000 0.65370  0.06139  0.54191  Biso   1.000  N
  C1       1.0000 0.60769  0.51839  0.06468  Biso   1.000  C
  C2       1.0000 0.89231  0.51839  0.93532  Biso   1.000  C
  C3       1.0000 0.10769  0.01839  0.56468  Biso   1.000  C
  C4       1.0000 0.39231  0.01839  0.43532  Biso   1.000  C
  C5       1.0000 0.39231  0.48161  0.93532  Biso   1.000  C
  C6       1.0000 0.10769  0.48161  0.06468  Biso   1.000  C
  C7       1.0000 0.89231  0.98161  0.43532  Biso   1.000  C
  C8       1.0000 0.60769  0.98161  0.56468  Biso   1.000  C
  H1       1.0000 0.61570  0.60400  0.06070  Biso   1.000  H
  H2       1.0000 0.88430  0.60400  0.93930  Biso   1.000  H
  H3       1.0000 0.11570  0.10400  0.56070  Biso   1.000  H
  H4       1.0000 0.38430  0.10400  0.43930  Biso   1.000  H
  H5       1.0000 0.38430  0.39600  0.93930  Biso   1.000  H
  H6       1.0000 0.11570  0.39600  0.06070  Biso   1.000  H
  H7       1.0000 0.88430  0.89600  0.43930  Biso   1.000  H
  H8       1.0000 0.61570  0.89600  0.56070  Biso   1.000  H
  N9       1.0000 0.53514  0.35715  0.10167  Biso   1.000  N
  N10      1.0000 0.96486  0.35715  0.89833  Biso   1.000  N
  N11      1.0000 0.03514  0.85715  0.60167  Biso   1.000  N
  N12      1.0000 0.46486  0.85715  0.39833  Biso   1.000  N
  N13      1.0000 0.46486  0.64285  0.89833  Biso   1.000  N
  N14      1.0000 0.03514  0.64285  0.10167  Biso   1.000  N
  N15      1.0000 0.96486  0.14285  0.39833  Biso   1.000  N
  N16      1.0000 0.53514  0.14285  0.60167  Biso   1.000  N
  C9       1.0000 0.54845  0.47697  0.09400  Biso   1.000  C
  C10      1.0000 0.95155  0.47697  0.90600  Biso   1.000  C
  C11      1.0000 0.04845  0.97697  0.59400  Biso   1.000  C
  C12      1.0000 0.45155  0.97697  0.40600  Biso   1.000  C
  C13      1.0000 0.45155  0.52303  0.90600  Biso   1.000  C
  C14      1.0000 0.04845  0.52303  0.09400  Biso   1.000  C
  C15      1.0000 0.95155  0.02303  0.40600  Biso   1.000  C
  C16      1.0000 0.54845  0.02303  0.59400  Biso   1.000  C
  H9       1.0000 0.51610  0.53550  0.10920  Biso   1.000  H
  H10      1.0000 0.98390  0.53550  0.89080  Biso   1.000  H
  H11      1.0000 0.01610  0.03550  0.60920  Biso   1.000  H
  H12      1.0000 0.48390  0.03550  0.39080  Biso   1.000  H
  H13      1.0000 0.48390  0.46450  0.89080  Biso   1.000  H
  H14      1.0000 0.01610  0.46450  0.10920  Biso   1.000  H
  H15      1.0000 0.98390  0.96450  0.39080  Biso   1.000  H
  H16      1.0000 0.51610  0.96450  0.60920  Biso   1.000  H
  N17      1.0000 0.75000  0.29430  0.00000  Biso   1.000  N
  N18      1.0000 0.25000  0.79430  0.50000  Biso   1.000  N
  N19      1.0000 0.25000  0.70570  0.00000  Biso   1.000  N
  N20      1.0000 0.75000  0.20570  0.50000  Biso   1.000  N
  C17      1.0000 0.58158  0.27829  0.07918  Biso   1.000  C
  C18      1.0000 0.91842  0.27829  0.92082  Biso   1.000  C
  C19      1.0000 0.08158  0.77829  0.57918  Biso   1.000  C
  C20      1.0000 0.41842  0.77829  0.42082  Biso   1.000  C
  C21      1.0000 0.41842  0.72171  0.92082  Biso   1.000  C
  C22      1.0000 0.08158  0.72171  0.07918  Biso   1.000  C
  C23      1.0000 0.91842  0.22171  0.42082  Biso   1.000  C
  C24      1.0000 0.58158  0.22171  0.57918  Biso   1.000  C
  H17      1.0000 0.57410  0.19270  0.08390  Biso   1.000  H
  H18      1.0000 0.92590  0.19270  0.91610  Biso   1.000  H
  H19      1.0000 0.07410  0.69270  0.58390  Biso   1.000  H
  H20      1.0000 0.42590  0.69270  0.41610  Biso   1.000  H
  H21      1.0000 0.42590  0.80730  0.91610  Biso   1.000  H
  H22      1.0000 0.07410  0.80730  0.08390  Biso   1.000  H
  H23      1.0000 0.92590  0.30730  0.41610  Biso   1.000  H
  H24      1.0000 0.57410  0.30730  0.58390  Biso   1.000  H
  N21      1.0000 0.75000  0.65320  0.00000  Biso   1.000  N
  N22      1.0000 0.25000  0.15320  0.50000  Biso   1.000  N
  N23      1.0000 0.25000  0.34680  0.00000  Biso   1.000  N
  N24      1.0000 0.75000  0.84680  0.50000  Biso   1.000  N
  C25      1.0000 0.64083  0.31809  0.04885  Biso   1.000  C
  C26      1.0000 0.85917  0.31809  0.95115  Biso   1.000  C
  C27      1.0000 0.14083  0.81809  0.54885  Biso   1.000  C
  C28      1.0000 0.35917  0.81809  0.45115  Biso   1.000  C
  C29      1.0000 0.35917  0.68191  0.95115  Biso   1.000  C
  C30      1.0000 0.14083  0.68191  0.04885  Biso   1.000  C
  C31      1.0000 0.85917  0.18191  0.45115  Biso   1.000  C
  C32      1.0000 0.64083  0.18191  0.54885  Biso   1.000  C
  C33      1.0000 0.69439  0.23472  0.02355  Biso   1.000  C
  C34      1.0000 0.80561  0.23472  0.97645  Biso   1.000  C
  C35      1.0000 0.19439  0.73472  0.52355  Biso   1.000  C
  C36      1.0000 0.30561  0.73472  0.47645  Biso   1.000  C
  C37      1.0000 0.30561  0.76528  0.97645  Biso   1.000  C
  C38      1.0000 0.19439  0.76528  0.02355  Biso   1.000  C
  C39      1.0000 0.80561  0.26528  0.47645  Biso   1.000  C
  C40      1.0000 0.69439  0.26528  0.52355  Biso   1.000  C
  C41      1.0000 0.69128  0.10756  0.02335  Biso   1.000  C
  C42      1.0000 0.80872  0.10756  0.97665  Biso   1.000  C
  C43      1.0000 0.19128  0.60756  0.52335  Biso   1.000  C
  C44      1.0000 0.30872  0.60756  0.47665  Biso   1.000  C
  C45      1.0000 0.30872  0.89244  0.97665  Biso   1.000  C
  C46      1.0000 0.19128  0.89244  0.02335  Biso   1.000  C
  C47      1.0000 0.80872  0.39244  0.47665  Biso   1.000  C
  C48      1.0000 0.69128  0.39244  0.52335  Biso   1.000  C
  H25      1.0000 0.65060  0.06500  0.03860  Biso   1.000  H
  H26      1.0000 0.84940  0.06500  0.96140  Biso   1.000  H
  H27      1.0000 0.15060  0.56500  0.53860  Biso   1.000  H
  H28      1.0000 0.34940  0.56500  0.46140  Biso   1.000  H
  H29      1.0000 0.34940  0.93500  0.96140  Biso   1.000  H
  H30      1.0000 0.15060  0.93500  0.03860  Biso   1.000  H
  H31      1.0000 0.84940  0.43500  0.46140  Biso   1.000  H
  H32      1.0000 0.65060  0.43500  0.53860  Biso   1.000  H
  C49      1.0000 0.75000  0.04390  0.00000  Biso   1.000  C
  C50      1.0000 0.25000  0.54390  0.50000  Biso   1.000  C
  C51      1.0000 0.25000  0.95610  0.00000  Biso   1.000  C
  C52      1.0000 0.75000  0.45610  0.50000  Biso   1.000  C
  C53      1.0000 0.75000  0.90810  0.00000  Biso   1.000  C
  C54      1.0000 0.25000  0.40810  0.50000  Biso   1.000  C
  C55      1.0000 0.25000  0.09190  0.00000  Biso   1.000  C
  C56      1.0000 0.75000  0.59190  0.50000  Biso   1.000  C
  C57      1.0000 0.67472  0.84310  0.97008  Biso   1.000  C
  C58      1.0000 0.82528  0.84310  0.02992  Biso   1.000  C
  C59      1.0000 0.17472  0.34310  0.47008  Biso   1.000  C
  C60      1.0000 0.32528  0.34310  0.52992  Biso   1.000  C
  C61      1.0000 0.32528  0.15690  0.02992  Biso   1.000  C
  C62      1.0000 0.17472  0.15690  0.97008  Biso   1.000  C
  C63      1.0000 0.82528  0.65690  0.52992  Biso   1.000  C
  C64      1.0000 0.67472  0.65690  0.47008  Biso   1.000  C
  H33      1.0000 0.62220  0.88520  0.95040  Biso   1.000  H
  H34      1.0000 0.87780  0.88520  0.04960  Biso   1.000  H
  H35      1.0000 0.12220  0.38520  0.45040  Biso   1.000  H
  H36      1.0000 0.37780  0.38520  0.54960  Biso   1.000  H
  H37      1.0000 0.37780  0.11480  0.04960  Biso   1.000  H
  H38      1.0000 0.12220  0.11480  0.95040  Biso   1.000  H
  H39      1.0000 0.87780  0.61480  0.54960  Biso   1.000  H
  H40      1.0000 0.62220  0.61480  0.45040  Biso   1.000  H
  C65      1.0000 0.67778  0.71610  0.96959  Biso   1.000  C
  C66      1.0000 0.82222  0.71610  0.03041  Biso   1.000  C
  C67      1.0000 0.17778  0.21610  0.46959  Biso   1.000  C
  C68      1.0000 0.32222  0.21610  0.53041  Biso   1.000  C
  C69      1.0000 0.32222  0.28390  0.03041  Biso   1.000  C
  C70      1.0000 0.17778  0.28390  0.96959  Biso   1.000  C
  C71      1.0000 0.82222  0.78390  0.53041  Biso   1.000  C
  C72      1.0000 0.67778  0.78390  0.46959  Biso   1.000  C
  H41      1.0000 0.62720  0.67190  0.94700  Biso   1.000  H
  H42      1.0000 0.87280  0.67190  0.05300  Biso   1.000  H
  H43      1.0000 0.12720  0.17190  0.44700  Biso   1.000  H
  H44      1.0000 0.37280  0.17190  0.55300  Biso   1.000  H
  H45      1.0000 0.37280  0.32810  0.05300  Biso   1.000  H
  H46      1.0000 0.12720  0.32810  0.94700  Biso   1.000  H
  H47      1.0000 0.87280  0.82810  0.55300  Biso   1.000  H
  H48      1.0000 0.62720  0.82810  0.44700  Biso   1.000  H
  O1       1.0000 0.84950  0.47149  0.10374  Biso   1.000  O
  O2       1.0000 0.65050  0.47149  0.89626  Biso   1.000  O
  O3       1.0000 0.34950  0.97149  0.60374  Biso   1.000  O
  O4       1.0000 0.15050  0.97149  0.39626  Biso   1.000  O
  O5       1.0000 0.15050  0.52851  0.89626  Biso   1.000  O
  O6       1.0000 0.34950  0.52851  0.10374  Biso   1.000  O
  O7       1.0000 0.65050  0.02851  0.39626  Biso   1.000  O
  O8       1.0000 0.84950  0.02851  0.60374  Biso   1.000  O
  N25      1.0000 0.92672  0.39339  0.20189  Biso   1.000  N
  N26      1.0000 0.57328  0.39339  0.79811  Biso   1.000  N
  N27      1.0000 0.42672  0.89339  0.70189  Biso   1.000  N
  N28      1.0000 0.07328  0.89339  0.29811  Biso   1.000  N
  N29      1.0000 0.07328  0.60661  0.79811  Biso   1.000  N
  N30      1.0000 0.42672  0.60661  0.20189  Biso   1.000  N
  N31      1.0000 0.57328  0.10661  0.29811  Biso   1.000  N
  N32      1.0000 0.92672  0.10661  0.70189  Biso   1.000  N
  C73      1.0000 0.87215  0.38408  0.14180  Biso   1.000  C
  C74      1.0000 0.62785  0.38408  0.85820  Biso   1.000  C
  C75      1.0000 0.37215  0.88408  0.64180  Biso   1.000  C
  C76      1.0000 0.12785  0.88408  0.35820  Biso   1.000  C
  C77      1.0000 0.12785  0.61592  0.85820  Biso   1.000  C
  C78      1.0000 0.37215  0.61592  0.14180  Biso   1.000  C
  C79      1.0000 0.62785  0.11592  0.35820  Biso   1.000  C
  C80      1.0000 0.87215  0.11592  0.64180  Biso   1.000  C
  H49      1.0000 0.84910  0.30540  0.12720  Biso   1.000  H
  H50      1.0000 0.65090  0.30540  0.87280  Biso   1.000  H
  H51      1.0000 0.34910  0.80540  0.62720  Biso   1.000  H
  H52      1.0000 0.15090  0.80540  0.37280  Biso   1.000  H
  H53      1.0000 0.15090  0.69460  0.87280  Biso   1.000  H
  H54      1.0000 0.34910  0.69460  0.12720  Biso   1.000  H
  H55      1.0000 0.65090  0.19460  0.37280  Biso   1.000  H
  H56      1.0000 0.84910  0.19460  0.62720  Biso   1.000  H
  C81      1.0000 0.96642  0.50990  0.22736  Biso   1.000  C
  C82      1.0000 0.53358  0.50990  0.77264  Biso   1.000  C
  C83      1.0000 0.46642  0.00990  0.72736  Biso   1.000  C
  C84      1.0000 0.03358  0.00990  0.27264  Biso   1.000  C
  C85      1.0000 0.03358  0.49010  0.77264  Biso   1.000  C
  C86      1.0000 0.46642  0.49010  0.22736  Biso   1.000  C
  C87      1.0000 0.53358  0.99010  0.27264  Biso   1.000  C
  C88      1.0000 0.96642  0.99010  0.72736  Biso   1.000  C
  H57      1.0000 0.94360  0.57460  0.19510  Biso   1.000  H
  H58      1.0000 0.55640  0.57460  0.80490  Biso   1.000  H
  H59      1.0000 0.44360  0.07460  0.69510  Biso   1.000  H
  H60      1.0000 0.05640  0.07460  0.30490  Biso   1.000  H
  H61      1.0000 0.05640  0.42540  0.80490  Biso   1.000  H
  H62      1.0000 0.44360  0.42540  0.19510  Biso   1.000  H
  H63      1.0000 0.55640  0.92540  0.30490  Biso   1.000  H
  H64      1.0000 0.94360  0.92540  0.69510  Biso   1.000  H
  H65      1.0000 0.02880  0.50390  0.23640  Biso   1.000  H
  H66      1.0000 0.47120  0.50390  0.76360  Biso   1.000  H
  H67      1.0000 0.52880  0.00390  0.73640  Biso   1.000  H
  H68      1.0000 0.97120  0.00390  0.26360  Biso   1.000  H
  H69      1.0000 0.97120  0.49610  0.76360  Biso   1.000  H
  H70      1.0000 0.52880  0.49610  0.23640  Biso   1.000  H
  H71      1.0000 0.47120  0.99610  0.26360  Biso   1.000  H
  H72      1.0000 0.02880  0.99610  0.73640  Biso   1.000  H
  H73      1.0000 0.95370  0.52960  0.26780  Biso   1.000  H
  H74      1.0000 0.54630  0.52960  0.73220  Biso   1.000  H
  H75      1.0000 0.45370  0.02960  0.76780  Biso   1.000  H
  H76      1.0000 0.04630  0.02960  0.23220  Biso   1.000  H
  H77      1.0000 0.04630  0.47040  0.73220  Biso   1.000  H
  H78      1.0000 0.45370  0.47040  0.26780  Biso   1.000  H
  H79      1.0000 0.54630  0.97040  0.23220  Biso   1.000  H
  H80      1.0000 0.95370  0.97040  0.76780  Biso   1.000  H
  C89      1.0000 0.95142  0.28670  0.24389  Biso   1.000  C
  C90      1.0000 0.54858  0.28670  0.75611  Biso   1.000  C
  C91      1.0000 0.45142  0.78670  0.74389  Biso   1.000  C
  C92      1.0000 0.04858  0.78670  0.25611  Biso   1.000  C
  C93      1.0000 0.04858  0.71330  0.75611  Biso   1.000  C
  C94      1.0000 0.45142  0.71330  0.24389  Biso   1.000  C
  C95      1.0000 0.54858  0.21330  0.25611  Biso   1.000  C
  C96      1.0000 0.95142  0.21330  0.74389  Biso   1.000  C
  H81      1.0000 0.92180  0.21400  0.22080  Biso   1.000  H
  H82      1.0000 0.57820  0.21400  0.77920  Biso   1.000  H
  H83      1.0000 0.42180  0.71400  0.72080  Biso   1.000  H
  H84      1.0000 0.07820  0.71400  0.27920  Biso   1.000  H
  H85      1.0000 0.07820  0.78600  0.77920  Biso   1.000  H
  H86      1.0000 0.42180  0.78600  0.22080  Biso   1.000  H
  H87      1.0000 0.57820  0.28600  0.27920  Biso   1.000  H
  H88      1.0000 0.92180  0.28600  0.72080  Biso   1.000  H
  H89      1.0000 0.93540  0.29940  0.28360  Biso   1.000  H
  H90      1.0000 0.56460  0.29940  0.71640  Biso   1.000  H
  H91      1.0000 0.43540  0.79940  0.78360  Biso   1.000  H
  H92      1.0000 0.06460  0.79940  0.21640  Biso   1.000  H
  H93      1.0000 0.06460  0.70060  0.71640  Biso   1.000  H
  H94      1.0000 0.43540  0.70060  0.28360  Biso   1.000  H
  H95      1.0000 0.56460  0.20060  0.21640  Biso   1.000  H
  H96      1.0000 0.93540  0.20060  0.78360  Biso   1.000  H
  H97      1.0000 0.01370  0.27470  0.25560  Biso   1.000  H
  H98      1.0000 0.48630  0.27470  0.74440  Biso   1.000  H
  H99      1.0000 0.51370  0.77470  0.75560  Biso   1.000  H
  H100     1.0000 0.98630  0.77470  0.24440  Biso   1.000  H
  H101     1.0000 0.98630  0.72530  0.74440  Biso   1.000  H
  H102     1.0000 0.51370  0.72530  0.25560  Biso   1.000  H
  H103     1.0000 0.48630  0.22530  0.24440  Biso   1.000  H
  H104     1.0000 0.01370  0.22530  0.75560  Biso   1.000  H
  F1       1.0000 0.54926  0.11359  0.89045  Biso   1.000  F
  F2       1.0000 0.95074  0.11359  0.10955  Biso   1.000  F
  F3       1.0000 0.04926  0.61359  0.39045  Biso   1.000  F
  F4       1.0000 0.45074  0.61359  0.60955  Biso   1.000  F
  F5       1.0000 0.45074  0.88641  0.10955  Biso   1.000  F
  F6       1.0000 0.04926  0.88641  0.89045  Biso   1.000  F
  F7       1.0000 0.95074  0.38641  0.60955  Biso   1.000  F
  F8       1.0000 0.54926  0.38641  0.39045  Biso   1.000  F
  B1       1.0000 0.46846  0.13820  0.89570  Biso   1.000  B
  B2       1.0000 0.03154  0.13820  0.10430  Biso   1.000  B
  B3       1.0000 0.96846  0.63820  0.39570  Biso   1.000  B
  B4       1.0000 0.53154  0.63820  0.60430  Biso   1.000  B
  B5       1.0000 0.53154  0.86180  0.10430  Biso   1.000  B
  B6       1.0000 0.96846  0.86180  0.89570  Biso   1.000  B
  B7       1.0000 0.03154  0.36180  0.60430  Biso   1.000  B
  B8       1.0000 0.46846  0.36180  0.39570  Biso   1.000  B
  F9       1.0000 0.42283  0.02906  0.88688  Biso   1.000  F
  F10      1.0000 0.07717  0.02906  0.11312  Biso   1.000  F
  F11      1.0000 0.92283  0.52906  0.38688  Biso   1.000  F
  F12      1.0000 0.57717  0.52906  0.61312  Biso   1.000  F
  F13      1.0000 0.57717  0.97094  0.11312  Biso   1.000  F
  F14      1.0000 0.92283  0.97094  0.88688  Biso   1.000  F
  F15      1.0000 0.07717  0.47094  0.61312  Biso   1.000  F
  F16      1.0000 0.42283  0.47094  0.38688  Biso   1.000  F
  F17      1.0000 0.42394  0.21674  0.84525  Biso   1.000  F
  F18      1.0000 0.07606  0.21674  0.15475  Biso   1.000  F
  F19      1.0000 0.92394  0.71674  0.34525  Biso   1.000  F
  F20      1.0000 0.57606  0.71674  0.65475  Biso   1.000  F
  F21      1.0000 0.57606  0.78326  0.15475  Biso   1.000  F
  F22      1.0000 0.92394  0.78326  0.84525  Biso   1.000  F
  F23      1.0000 0.07606  0.28326  0.65475  Biso   1.000  F
  F24      1.0000 0.42394  0.28326  0.34525  Biso   1.000  F
  F25      1.0000 0.47388  0.19230  0.95412  Biso   1.000  F
  F26      1.0000 0.02612  0.19230  0.04588  Biso   1.000  F
  F27      1.0000 0.97388  0.69230  0.45412  Biso   1.000  F
  F28      1.0000 0.52612  0.69230  0.54588  Biso   1.000  F
  F29      1.0000 0.52612  0.80770  0.04588  Biso   1.000  F
  F30      1.0000 0.97388  0.80770  0.95412  Biso   1.000  F
  F31      1.0000 0.02612  0.30770  0.54588  Biso   1.000  F
  F32      1.0000 0.47388  0.30770  0.45412  Biso   1.000  F
  O9       1.0000 0.25352  0.67251  0.67602  Biso   1.000  O
  O10      1.0000 0.24648  0.67251  0.32398  Biso   1.000  O
  O11      1.0000 0.75352  0.17251  0.17602  Biso   1.000  O
  O12      1.0000 0.74648  0.17251  0.82398  Biso   1.000  O
  O13      1.0000 0.74648  0.32749  0.32398  Biso   1.000  O
  O14      1.0000 0.75352  0.32749  0.67602  Biso   1.000  O
  O15      1.0000 0.24648  0.82749  0.82398  Biso   1.000  O
  O16      1.0000 0.25352  0.82749  0.17602  Biso   1.000  O
  N33      1.0000 0.26943  0.48590  0.72594  Biso   1.000  N
  N34      1.0000 0.23057  0.48590  0.27406  Biso   1.000  N
  N35      1.0000 0.76943  0.98590  0.22594  Biso   1.000  N
  N36      1.0000 0.73057  0.98590  0.77406  Biso   1.000  N
  N37      1.0000 0.73057  0.51410  0.27406  Biso   1.000  N
  N38      1.0000 0.76943  0.51410  0.72594  Biso   1.000  N
  N39      1.0000 0.23057  0.01410  0.77406  Biso   1.000  N
  N40      1.0000 0.26943  0.01410  0.22594  Biso   1.000  N
  C97      1.0000 0.25061  0.60500  0.72130  Biso   1.000  C
  C98      1.0000 0.24939  0.60500  0.27870  Biso   1.000  C
  C99      1.0000 0.75061  0.10500  0.22130  Biso   1.000  C
  C100     1.0000 0.74939  0.10500  0.77870  Biso   1.000  C
  C101     1.0000 0.74939  0.39500  0.27870  Biso   1.000  C
  C102     1.0000 0.75061  0.39500  0.72130  Biso   1.000  C
  C103     1.0000 0.24939  0.89500  0.77870  Biso   1.000  C
  C104     1.0000 0.25061  0.89500  0.22130  Biso   1.000  C
  H105     1.0000 0.23360  0.64090  0.75550  Biso   1.000  H
  H106     1.0000 0.26640  0.64090  0.24450  Biso   1.000  H
  H107     1.0000 0.73360  0.14090  0.25550  Biso   1.000  H
  H108     1.0000 0.76640  0.14090  0.74450  Biso   1.000  H
  H109     1.0000 0.76640  0.35910  0.24450  Biso   1.000  H
  H110     1.0000 0.73360  0.35910  0.75550  Biso   1.000  H
  H111     1.0000 0.26640  0.85910  0.74450  Biso   1.000  H
  H112     1.0000 0.23360  0.85910  0.25550  Biso   1.000  H
  C105     1.0000 0.29029  0.42310  0.67330  Biso   1.000  C
  C106     1.0000 0.20971  0.42310  0.32670  Biso   1.000  C
  C107     1.0000 0.79029  0.92310  0.17330  Biso   1.000  C
  C108     1.0000 0.70971  0.92310  0.82670  Biso   1.000  C
  C109     1.0000 0.70971  0.57690  0.32670  Biso   1.000  C
  C110     1.0000 0.79029  0.57690  0.67330  Biso   1.000  C
  C111     1.0000 0.20971  0.07690  0.82670  Biso   1.000  C
  C112     1.0000 0.29029  0.07690  0.17330  Biso   1.000  C
  H113     1.0000 0.23850  0.38380  0.64450  Biso   1.000  H
  H114     1.0000 0.26150  0.38380  0.35550  Biso   1.000  H
  H115     1.0000 0.73850  0.88380  0.14450  Biso   1.000  H
  H116     1.0000 0.76150  0.88380  0.85550  Biso   1.000  H
  H117     1.0000 0.76150  0.61620  0.35550  Biso   1.000  H
  H118     1.0000 0.73850  0.61620  0.64450  Biso   1.000  H
  H119     1.0000 0.26150  0.11620  0.85550  Biso   1.000  H
  H120     1.0000 0.23850  0.11620  0.14450  Biso   1.000  H
  H121     1.0000 0.33420  0.36060  0.69160  Biso   1.000  H
  H122     1.0000 0.16580  0.36060  0.30840  Biso   1.000  H
  H123     1.0000 0.83420  0.86060  0.19160  Biso   1.000  H
  H124     1.0000 0.66580  0.86060  0.80840  Biso   1.000  H
  H125     1.0000 0.66580  0.63940  0.30840  Biso   1.000  H
  H126     1.0000 0.83420  0.63940  0.69160  Biso   1.000  H
  H127     1.0000 0.16580  0.13940  0.80840  Biso   1.000  H
  H128     1.0000 0.33420  0.13940  0.19160  Biso   1.000  H
  H129     1.0000 0.31220  0.48260  0.64830  Biso   1.000  H
  H130     1.0000 0.18780  0.48260  0.35170  Biso   1.000  H
  H131     1.0000 0.81220  0.98260  0.14830  Biso   1.000  H
  H132     1.0000 0.68780  0.98260  0.85170  Biso   1.000  H
  H133     1.0000 0.68780  0.51740  0.35170  Biso   1.000  H
  H134     1.0000 0.81220  0.51740  0.64830  Biso   1.000  H
  H135     1.0000 0.18780  0.01740  0.85170  Biso   1.000  H
  H136     1.0000 0.31220  0.01740  0.14830  Biso   1.000  H
  C113     1.0000 0.25291  0.41070  0.77626  Biso   1.000  C
  C114     1.0000 0.24709  0.41070  0.22374  Biso   1.000  C
  C115     1.0000 0.75291  0.91070  0.27626  Biso   1.000  C
  C116     1.0000 0.74709  0.91070  0.72374  Biso   1.000  C
  C117     1.0000 0.74709  0.58930  0.22374  Biso   1.000  C
  C118     1.0000 0.75291  0.58930  0.77626  Biso   1.000  C
  C119     1.0000 0.24709  0.08930  0.72374  Biso   1.000  C
  C120     1.0000 0.25291  0.08930  0.27626  Biso   1.000  C
  H137     1.0000 0.24160  0.46370  0.80940  Biso   1.000  H
  H138     1.0000 0.25840  0.46370  0.19060  Biso   1.000  H
  H139     1.0000 0.74160  0.96370  0.30940  Biso   1.000  H
  H140     1.0000 0.75840  0.96370  0.69060  Biso   1.000  H
  H141     1.0000 0.75840  0.53630  0.19060  Biso   1.000  H
  H142     1.0000 0.74160  0.53630  0.80940  Biso   1.000  H
  H143     1.0000 0.25840  0.03630  0.69060  Biso   1.000  H
  H144     1.0000 0.24160  0.03630  0.30940  Biso   1.000  H
  H145     1.0000 0.30320  0.35920  0.79670  Biso   1.000  H
  H146     1.0000 0.19680  0.35920  0.20330  Biso   1.000  H
  H147     1.0000 0.80320  0.85920  0.29670  Biso   1.000  H
  H148     1.0000 0.69680  0.85920  0.70330  Biso   1.000  H
  H149     1.0000 0.69680  0.64080  0.20330  Biso   1.000  H
  H150     1.0000 0.80320  0.64080  0.79670  Biso   1.000  H
  H151     1.0000 0.19680  0.14080  0.70330  Biso   1.000  H
  H152     1.0000 0.30320  0.14080  0.29670  Biso   1.000  H
  H153     1.0000 0.20280  0.35840  0.75670  Biso   1.000  H
  H154     1.0000 0.29720  0.35840  0.24330  Biso   1.000  H
  H155     1.0000 0.70280  0.85840  0.25670  Biso   1.000  H
  H156     1.0000 0.79720  0.85840  0.74330  Biso   1.000  H
  H157     1.0000 0.79720  0.64160  0.24330  Biso   1.000  H
  H158     1.0000 0.70280  0.64160  0.75670  Biso   1.000  H
  H159     1.0000 0.29720  0.14160  0.74330  Biso   1.000  H
  H160     1.0000 0.20280  0.14160  0.25670  Biso   1.000  H
