data_image0
_cell_length_a       7.492
_cell_length_b       10.6557
_cell_length_c       12.1671
_cell_angle_alpha    90
_cell_angle_beta     100.442
_cell_angle_gamma    90

_symmetry_space_group_name_H-M    "P 1"
_symmetry_int_tables_number       1

loop_
  _symmetry_equiv_pos_as_xyz
  'x, y, z'

loop_
  _atom_site_label
  _atom_site_occupancy
  _atom_site_fract_x
  _atom_site_fract_y
  _atom_site_fract_z
  _atom_site_thermal_displace_type
  _atom_site_B_iso_or_equiv
  _atom_site_type_symbol
  Cu1      1.0000 0.50000  0.50000  0.50000  Biso   1.000  Cu
  Cu2      1.0000 0.50000  0.00000  0.00000  Biso   1.000  Cu
  O1       1.0000 0.60419  0.67742  0.38443  Biso   1.000  O
  O2       1.0000 0.39581  0.17742  0.11557  Biso   1.000  O
  O3       1.0000 0.39581  0.32258  0.61557  Biso   1.000  O
  O4       1.0000 0.60419  0.82258  0.88443  Biso   1.000  O
  O5       1.0000 0.34562  0.57154  0.36392  Biso   1.000  O
  O6       1.0000 0.65438  0.07154  0.13608  Biso   1.000  O
  O7       1.0000 0.65438  0.42846  0.63608  Biso   1.000  O
  O8       1.0000 0.34562  0.92846  0.86392  Biso   1.000  O
  O9       1.0000 0.96740  0.61389  0.39732  Biso   1.000  O
  O10      1.0000 0.03260  0.11389  0.10268  Biso   1.000  O
  O11      1.0000 0.03260  0.38611  0.60268  Biso   1.000  O
  O12      1.0000 0.96740  0.88611  0.89732  Biso   1.000  O
  N1       1.0000 0.23806  0.81306  0.07142  Biso   1.000  N
  N2       1.0000 0.76194  0.31306  0.42858  Biso   1.000  N
  N3       1.0000 0.76194  0.18694  0.92858  Biso   1.000  N
  N4       1.0000 0.23806  0.68694  0.57142  Biso   1.000  N
  H1       1.0000 0.15640  0.82870  0.01370  Biso   1.000  H
  H2       1.0000 0.84360  0.32870  0.48630  Biso   1.000  H
  H3       1.0000 0.84360  0.17130  0.98630  Biso   1.000  H
  H4       1.0000 0.15640  0.67130  0.51370  Biso   1.000  H
  N5       1.0000 0.39723  0.87667  0.09760  Biso   1.000  N
  N6       1.0000 0.60277  0.37667  0.40240  Biso   1.000  N
  N7       1.0000 0.60277  0.12333  0.90240  Biso   1.000  N
  N8       1.0000 0.39723  0.62333  0.59760  Biso   1.000  N
  C1       1.0000 0.44930  0.65405  0.33112  Biso   1.000  C
  C2       1.0000 0.55070  0.15405  0.16888  Biso   1.000  C
  C3       1.0000 0.55070  0.34595  0.66888  Biso   1.000  C
  C4       1.0000 0.44930  0.84595  0.83112  Biso   1.000  C
  C5       1.0000 0.38360  0.72637  0.22680  Biso   1.000  C
  C6       1.0000 0.61640  0.22637  0.27320  Biso   1.000  C
  C7       1.0000 0.61640  0.27363  0.77320  Biso   1.000  C
  C8       1.0000 0.38360  0.77363  0.72680  Biso   1.000  C
  C9       1.0000 0.22310  0.72211  0.14691  Biso   1.000  C
  C10      1.0000 0.77690  0.22211  0.35309  Biso   1.000  C
  C11      1.0000 0.77690  0.27789  0.85309  Biso   1.000  C
  C12      1.0000 0.22310  0.77789  0.64691  Biso   1.000  C
  C13      1.0000 0.48440  0.82428  0.19120  Biso   1.000  C
  C14      1.0000 0.51560  0.32428  0.30880  Biso   1.000  C
  C15      1.0000 0.51560  0.17572  0.80880  Biso   1.000  C
  C16      1.0000 0.48440  0.67572  0.69120  Biso   1.000  C
  H5       1.0000 0.59830  0.84950  0.22850  Biso   1.000  H
  H6       1.0000 0.40170  0.34950  0.27150  Biso   1.000  H
  H7       1.0000 0.40170  0.15050  0.77150  Biso   1.000  H
  H8       1.0000 0.59830  0.65050  0.72850  Biso   1.000  H
  C17      1.0000 0.05890  0.64195  0.13333  Biso   1.000  C
  C18      1.0000 0.94110  0.14195  0.36667  Biso   1.000  C
  C19      1.0000 0.94110  0.35805  0.86667  Biso   1.000  C
  C20      1.0000 0.05890  0.85805  0.63333  Biso   1.000  C
  C21      1.0000 0.88650  0.69302  0.09926  Biso   1.000  C
  C22      1.0000 0.11350  0.19302  0.40074  Biso   1.000  C
  C23      1.0000 0.11350  0.30698  0.90074  Biso   1.000  C
  C24      1.0000 0.88650  0.80698  0.59926  Biso   1.000  C
  H9       1.0000 0.87330  0.77890  0.08650  Biso   1.000  H
  H10      1.0000 0.12670  0.27890  0.41350  Biso   1.000  H
  H11      1.0000 0.12670  0.22110  0.91350  Biso   1.000  H
  H12      1.0000 0.87330  0.72110  0.58650  Biso   1.000  H
  C25      1.0000 0.73410  0.61600  0.08425  Biso   1.000  C
  C26      1.0000 0.26590  0.11600  0.41575  Biso   1.000  C
  C27      1.0000 0.26590  0.38400  0.91575  Biso   1.000  C
  C28      1.0000 0.73410  0.88400  0.58425  Biso   1.000  C
  H13      1.0000 0.61970  0.65030  0.05970  Biso   1.000  H
  H14      1.0000 0.38030  0.15030  0.44030  Biso   1.000  H
  H15      1.0000 0.38030  0.34970  0.94030  Biso   1.000  H
  H16      1.0000 0.61970  0.84970  0.55970  Biso   1.000  H
  C29      1.0000 0.75170  0.48864  0.10565  Biso   1.000  C
  C30      1.0000 0.24830  0.98864  0.39435  Biso   1.000  C
  C31      1.0000 0.24830  0.51136  0.89435  Biso   1.000  C
  C32      1.0000 0.75170  0.01136  0.60565  Biso   1.000  C
  H17      1.0000 0.64900  0.43800  0.09780  Biso   1.000  H
  H18      1.0000 0.35100  0.93800  0.40220  Biso   1.000  H
  H19      1.0000 0.35100  0.56200  0.90220  Biso   1.000  H
  H20      1.0000 0.64900  0.06200  0.59780  Biso   1.000  H
  C33      1.0000 0.92250  0.43654  0.13886  Biso   1.000  C
  C34      1.0000 0.07750  0.93654  0.36114  Biso   1.000  C
  C35      1.0000 0.07750  0.56346  0.86114  Biso   1.000  C
  C36      1.0000 0.92250  0.06346  0.63886  Biso   1.000  C
  H21      1.0000 0.93450  0.35090  0.15280  Biso   1.000  H
  H22      1.0000 0.06550  0.85090  0.34720  Biso   1.000  H
  H23      1.0000 0.06550  0.64910  0.84720  Biso   1.000  H
  H24      1.0000 0.93450  0.14910  0.65280  Biso   1.000  H
  C37      1.0000 0.07590  0.51226  0.15133  Biso   1.000  C
  C38      1.0000 0.92410  0.01226  0.34867  Biso   1.000  C
  C39      1.0000 0.92410  0.48774  0.84867  Biso   1.000  C
  C40      1.0000 0.07590  0.98774  0.65133  Biso   1.000  C
  H25      1.0000 0.19050  0.47670  0.17170  Biso   1.000  H
  H26      1.0000 0.80950  0.97670  0.32830  Biso   1.000  H
  H27      1.0000 0.80950  0.52330  0.82830  Biso   1.000  H
  H28      1.0000 0.19050  0.02330  0.67170  Biso   1.000  H
  H29      1.0000 0.85980  0.63300  0.38500  Biso   1.000  H
  H30      1.0000 0.14020  0.13300  0.11500  Biso   1.000  H
  H31      1.0000 0.14020  0.36700  0.61500  Biso   1.000  H
  H32      1.0000 0.85980  0.86700  0.88500  Biso   1.000  H
  H33      1.0000 0.99900  0.57800  0.34390  Biso   1.000  H
  H34      1.0000 0.00100  0.07800  0.15610  Biso   1.000  H
  H35      1.0000 0.00100  0.42200  0.65610  Biso   1.000  H
  H36      1.0000 0.99900  0.92200  0.84390  Biso   1.000  H
