data_image0
_cell_length_a       18.9657
_cell_length_b       10.8842
_cell_length_c       11.7477
_cell_angle_alpha    90
_cell_angle_beta     125.406
_cell_angle_gamma    90

_symmetry_space_group_name_H-M    "P 1"
_symmetry_int_tables_number       1

loop_
  _symmetry_equiv_pos_as_xyz
  'x, y, z'

loop_
  _atom_site_label
  _atom_site_occupancy
  _atom_site_fract_x
  _atom_site_fract_y
  _atom_site_fract_z
  _atom_site_thermal_displace_type
  _atom_site_B_iso_or_equiv
  _atom_site_type_symbol
  Cu1      1.0000 0.25000  0.75000  0.00000  Biso   1.000  Cu
  Cu2      1.0000 0.75000  0.75000  0.50000  Biso   1.000  Cu
  Cu3      1.0000 0.75000  0.25000  0.00000  Biso   1.000  Cu
  Cu4      1.0000 0.25000  0.25000  0.50000  Biso   1.000  Cu
  O1       1.0000 0.05963  0.36056  0.66053  Biso   1.000  O
  O2       1.0000 0.94037  0.36056  0.83947  Biso   1.000  O
  O3       1.0000 0.55963  0.86056  0.66053  Biso   1.000  O
  O4       1.0000 0.44037  0.86056  0.83947  Biso   1.000  O
  O5       1.0000 0.94037  0.63944  0.33947  Biso   1.000  O
  O6       1.0000 0.05963  0.63944  0.16053  Biso   1.000  O
  O7       1.0000 0.44037  0.13944  0.33947  Biso   1.000  O
  O8       1.0000 0.55963  0.13944  0.16053  Biso   1.000  O
  O9       1.0000 0.18774  0.39450  0.12737  Biso   1.000  O
  O10      1.0000 0.81226  0.39450  0.37263  Biso   1.000  O
  O11      1.0000 0.68774  0.89450  0.12737  Biso   1.000  O
  O12      1.0000 0.31226  0.89450  0.37263  Biso   1.000  O
  O13      1.0000 0.81226  0.60550  0.87263  Biso   1.000  O
  O14      1.0000 0.18774  0.60550  0.62737  Biso   1.000  O
  O15      1.0000 0.31226  0.10550  0.87263  Biso   1.000  O
  O16      1.0000 0.68774  0.10550  0.62737  Biso   1.000  O
  N1       1.0000 0.12401  0.41051  0.89120  Biso   1.000  N
  N2       1.0000 0.87599  0.41051  0.60880  Biso   1.000  N
  N3       1.0000 0.62401  0.91051  0.89120  Biso   1.000  N
  N4       1.0000 0.37599  0.91051  0.60880  Biso   1.000  N
  N5       1.0000 0.87599  0.58949  0.10880  Biso   1.000  N
  N6       1.0000 0.12401  0.58949  0.39120  Biso   1.000  N
  N7       1.0000 0.37599  0.08949  0.10880  Biso   1.000  N
  N8       1.0000 0.62401  0.08949  0.39120  Biso   1.000  N
  N9       1.0000 0.06556  0.01960  0.67880  Biso   1.000  N
  N10      1.0000 0.93444  0.01960  0.82120  Biso   1.000  N
  N11      1.0000 0.56556  0.51960  0.67880  Biso   1.000  N
  N12      1.0000 0.43444  0.51960  0.82120  Biso   1.000  N
  N13      1.0000 0.93444  0.98040  0.32120  Biso   1.000  N
  N14      1.0000 0.06556  0.98040  0.17880  Biso   1.000  N
  N15      1.0000 0.43444  0.48040  0.32120  Biso   1.000  N
  N16      1.0000 0.56556  0.48040  0.17880  Biso   1.000  N
  N17      1.0000 0.20417  0.90500  0.02996  Biso   1.000  N
  N18      1.0000 0.79583  0.90500  0.47004  Biso   1.000  N
  N19      1.0000 0.70417  0.40500  0.02996  Biso   1.000  N
  N20      1.0000 0.29583  0.40500  0.47004  Biso   1.000  N
  N21      1.0000 0.79583  0.09500  0.97004  Biso   1.000  N
  N22      1.0000 0.20417  0.09500  0.52996  Biso   1.000  N
  N23      1.0000 0.29583  0.59500  0.97004  Biso   1.000  N
  N24      1.0000 0.70417  0.59500  0.52996  Biso   1.000  N
  N25      1.0000 0.23713  0.17796  0.33463  Biso   1.000  N
  N26      1.0000 0.76287  0.17796  0.16537  Biso   1.000  N
  N27      1.0000 0.73713  0.67796  0.33463  Biso   1.000  N
  N28      1.0000 0.26287  0.67796  0.16537  Biso   1.000  N
  N29      1.0000 0.76287  0.82204  0.66537  Biso   1.000  N
  N30      1.0000 0.23713  0.82204  0.83463  Biso   1.000  N
  N31      1.0000 0.26287  0.32204  0.66537  Biso   1.000  N
  N32      1.0000 0.73713  0.32204  0.83463  Biso   1.000  N
  C1       1.0000 0.09554  0.33050  0.78160  Biso   1.000  C
  C2       1.0000 0.90446  0.33050  0.71840  Biso   1.000  C
  C3       1.0000 0.59554  0.83050  0.78160  Biso   1.000  C
  C4       1.0000 0.40446  0.83050  0.71840  Biso   1.000  C
  C5       1.0000 0.90446  0.66950  0.21840  Biso   1.000  C
  C6       1.0000 0.09554  0.66950  0.28160  Biso   1.000  C
  C7       1.0000 0.40446  0.16950  0.21840  Biso   1.000  C
  C8       1.0000 0.59554  0.16950  0.28160  Biso   1.000  C
  C9       1.0000 0.11542  0.20580  0.84060  Biso   1.000  C
  C10      1.0000 0.88458  0.20580  0.65940  Biso   1.000  C
  C11      1.0000 0.61542  0.70580  0.84060  Biso   1.000  C
  C12      1.0000 0.38458  0.70580  0.65940  Biso   1.000  C
  C13      1.0000 0.88458  0.79420  0.15940  Biso   1.000  C
  C14      1.0000 0.11542  0.79420  0.34060  Biso   1.000  C
  C15      1.0000 0.38458  0.29420  0.15940  Biso   1.000  C
  C16      1.0000 0.61542  0.29420  0.34060  Biso   1.000  C
  C17      1.0000 0.15368  0.21364  0.98170  Biso   1.000  C
  C18      1.0000 0.84632  0.21364  0.51830  Biso   1.000  C
  C19      1.0000 0.65368  0.71364  0.98170  Biso   1.000  C
  C20      1.0000 0.34632  0.71364  0.51830  Biso   1.000  C
  C21      1.0000 0.84632  0.78636  0.01830  Biso   1.000  C
  C22      1.0000 0.15368  0.78636  0.48170  Biso   1.000  C
  C23      1.0000 0.34632  0.28636  0.01830  Biso   1.000  C
  C24      1.0000 0.65368  0.28636  0.48170  Biso   1.000  C
  C25      1.0000 0.15825  0.34994  0.01470  Biso   1.000  C
  C26      1.0000 0.84175  0.34994  0.48530  Biso   1.000  C
  C27      1.0000 0.65825  0.84994  0.01470  Biso   1.000  C
  C28      1.0000 0.34175  0.84994  0.48530  Biso   1.000  C
  C29      1.0000 0.84175  0.65006  0.98530  Biso   1.000  C
  C30      1.0000 0.15825  0.65006  0.51470  Biso   1.000  C
  C31      1.0000 0.34175  0.15006  0.98530  Biso   1.000  C
  C32      1.0000 0.65825  0.15006  0.51470  Biso   1.000  C
  C33      1.0000 0.08982  0.10160  0.75340  Biso   1.000  C
  C34      1.0000 0.91018  0.10160  0.74660  Biso   1.000  C
  C35      1.0000 0.58982  0.60160  0.75340  Biso   1.000  C
  C36      1.0000 0.41018  0.60160  0.74660  Biso   1.000  C
  C37      1.0000 0.91018  0.89840  0.24660  Biso   1.000  C
  C38      1.0000 0.08982  0.89840  0.25340  Biso   1.000  C
  C39      1.0000 0.41018  0.39840  0.24660  Biso   1.000  C
  C40      1.0000 0.58982  0.39840  0.25340  Biso   1.000  C
  C41      1.0000 0.18701  0.12452  0.08670  Biso   1.000  C
  C42      1.0000 0.81299  0.12452  0.41330  Biso   1.000  C
  C43      1.0000 0.68701  0.62452  0.08670  Biso   1.000  C
  C44      1.0000 0.31299  0.62452  0.41330  Biso   1.000  C
  C45      1.0000 0.81299  0.87548  0.91330  Biso   1.000  C
  C46      1.0000 0.18701  0.87548  0.58670  Biso   1.000  C
  C47      1.0000 0.31299  0.37548  0.91330  Biso   1.000  C
  C48      1.0000 0.68701  0.37548  0.58670  Biso   1.000  C
  C49      1.0000 0.19560  0.00122  0.05820  Biso   1.000  C
  C50      1.0000 0.80440  0.00122  0.44180  Biso   1.000  C
  C51      1.0000 0.69560  0.50122  0.05820  Biso   1.000  C
  C52      1.0000 0.30440  0.50122  0.44180  Biso   1.000  C
  C53      1.0000 0.80440  0.99878  0.94180  Biso   1.000  C
  C54      1.0000 0.19560  0.99878  0.55820  Biso   1.000  C
  C55      1.0000 0.30440  0.49878  0.94180  Biso   1.000  C
  C56      1.0000 0.69560  0.49878  0.55820  Biso   1.000  C
  C57      1.0000 0.21531  0.15460  0.22410  Biso   1.000  C
  C58      1.0000 0.78469  0.15460  0.27590  Biso   1.000  C
  C59      1.0000 0.71531  0.65460  0.22410  Biso   1.000  C
  C60      1.0000 0.28469  0.65460  0.27590  Biso   1.000  C
  C61      1.0000 0.78469  0.84540  0.77590  Biso   1.000  C
  C62      1.0000 0.21531  0.84540  0.72410  Biso   1.000  C
  C63      1.0000 0.28469  0.34540  0.77590  Biso   1.000  C
  C64      1.0000 0.71531  0.34540  0.72410  Biso   1.000  C
  O17      1.0000 0.38889  0.82916  0.14329  Biso   1.000  O
  O18      1.0000 0.61111  0.82916  0.35671  Biso   1.000  O
  O19      1.0000 0.88889  0.32916  0.14329  Biso   1.000  O
  O20      1.0000 0.11111  0.32916  0.35671  Biso   1.000  O
  O21      1.0000 0.61111  0.17084  0.85671  Biso   1.000  O
  O22      1.0000 0.38889  0.17084  0.64329  Biso   1.000  O
  O23      1.0000 0.11111  0.67084  0.85671  Biso   1.000  O
  O24      1.0000 0.88889  0.67084  0.64329  Biso   1.000  O
  H1       1.0000 0.11400  0.48300  0.87800  Biso   1.000  H
  H2       1.0000 0.88600  0.48300  0.62200  Biso   1.000  H
  H3       1.0000 0.61400  0.98300  0.87800  Biso   1.000  H
  H4       1.0000 0.38600  0.98300  0.62200  Biso   1.000  H
  H5       1.0000 0.88600  0.51700  0.12200  Biso   1.000  H
  H6       1.0000 0.11400  0.51700  0.37800  Biso   1.000  H
  H7       1.0000 0.38600  0.01700  0.12200  Biso   1.000  H
  H8       1.0000 0.61400  0.01700  0.37800  Biso   1.000  H
  H9       1.0000 0.41300  0.80800  0.22400  Biso   1.000  H
  H10      1.0000 0.58700  0.80800  0.27600  Biso   1.000  H
  H11      1.0000 0.91300  0.30800  0.22400  Biso   1.000  H
  H12      1.0000 0.08700  0.30800  0.27600  Biso   1.000  H
  H13      1.0000 0.58700  0.19200  0.77600  Biso   1.000  H
  H14      1.0000 0.41300  0.19200  0.72400  Biso   1.000  H
  H15      1.0000 0.08700  0.69200  0.77600  Biso   1.000  H
  H16      1.0000 0.91300  0.69200  0.72400  Biso   1.000  H
  H17      1.0000 0.41800  0.79500  0.11900  Biso   1.000  H
  H18      1.0000 0.58200  0.79500  0.38100  Biso   1.000  H
  H19      1.0000 0.91800  0.29500  0.11900  Biso   1.000  H
  H20      1.0000 0.08200  0.29500  0.38100  Biso   1.000  H
  H21      1.0000 0.58200  0.20500  0.88100  Biso   1.000  H
  H22      1.0000 0.41800  0.20500  0.61900  Biso   1.000  H
  H23      1.0000 0.08200  0.70500  0.88100  Biso   1.000  H
  H24      1.0000 0.91800  0.70500  0.61900  Biso   1.000  H
  O25      1.0000 0.50224  0.73630  0.08750  Biso   1.000  O
  O26      1.0000 0.49776  0.73630  0.41250  Biso   1.000  O
  O27      1.0000 0.00224  0.23630  0.08750  Biso   1.000  O
  O28      1.0000 0.99776  0.23630  0.41250  Biso   1.000  O
  O29      1.0000 0.49776  0.26370  0.91250  Biso   1.000  O
  O30      1.0000 0.50224  0.26370  0.58750  Biso   1.000  O
  O31      1.0000 0.99776  0.76370  0.91250  Biso   1.000  O
  O32      1.0000 0.00224  0.76370  0.58750  Biso   1.000  O
  H25      1.0000 0.49000  0.76400  0.03000  Biso   1.000  H
  H26      1.0000 0.51000  0.76400  0.47000  Biso   1.000  H
  H27      1.0000 0.99000  0.26400  0.03000  Biso   1.000  H
  H28      1.0000 0.01000  0.26400  0.47000  Biso   1.000  H
  H29      1.0000 0.51000  0.23600  0.97000  Biso   1.000  H
  H30      1.0000 0.49000  0.23600  0.53000  Biso   1.000  H
  H31      1.0000 0.01000  0.73600  0.97000  Biso   1.000  H
  H32      1.0000 0.99000  0.73600  0.53000  Biso   1.000  H
  H33      1.0000 0.51300  0.67400  0.10000  Biso   1.000  H
  H34      1.0000 0.48700  0.67400  0.40000  Biso   1.000  H
  H35      1.0000 0.01300  0.17400  0.10000  Biso   1.000  H
  H36      1.0000 0.98700  0.17400  0.40000  Biso   1.000  H
  H37      1.0000 0.48700  0.32600  0.90000  Biso   1.000  H
  H38      1.0000 0.51300  0.32600  0.60000  Biso   1.000  H
  H39      1.0000 0.98700  0.82600  0.90000  Biso   1.000  H
  H40      1.0000 0.01300  0.82600  0.60000  Biso   1.000  H
