data_image0
_cell_length_a       5.222
_cell_length_b       8.635
_cell_length_c       11.558
_cell_angle_alpha    90
_cell_angle_beta     100.115
_cell_angle_gamma    90

_symmetry_space_group_name_H-M    "P 1"
_symmetry_int_tables_number       1

loop_
  _symmetry_equiv_pos_as_xyz
  'x, y, z'

loop_
  _atom_site_label
  _atom_site_occupancy
  _atom_site_fract_x
  _atom_site_fract_y
  _atom_site_fract_z
  _atom_site_thermal_displace_type
  _atom_site_B_iso_or_equiv
  _atom_site_type_symbol
  Cu1      1.0000 0.00244  0.37347  0.37233  Biso   1.000  Cu
  Cu2      1.0000 0.99756  0.87347  0.62767  Biso   1.000  Cu
  O1       1.0000 0.64610  0.45880  0.24020  Biso   1.000  O
  O2       1.0000 0.35390  0.95880  0.75980  Biso   1.000  O
  O3       1.0000 0.01340  0.55320  0.48630  Biso   1.000  O
  O4       1.0000 0.98660  0.05320  0.51370  Biso   1.000  O
  O5       1.0000 0.23900  0.76780  0.54290  Biso   1.000  O
  O6       1.0000 0.76100  0.26780  0.45710  Biso   1.000  O
  O7       1.0000 0.41810  0.90790  0.35730  Biso   1.000  O
  O8       1.0000 0.58190  0.40790  0.64270  Biso   1.000  O
  H1       1.0000 0.38200  0.90700  0.42700  Biso   1.000  H
  H2       1.0000 0.61800  0.40700  0.57300  Biso   1.000  H
  N1       1.0000 0.10380  0.20350  0.26900  Biso   1.000  N
  N2       1.0000 0.89620  0.70350  0.73100  Biso   1.000  N
  H3       1.0000 0.14670  0.11750  0.31200  Biso   1.000  H
  H4       1.0000 0.85330  0.61750  0.68800  Biso   1.000  H
  H5       1.0000 0.96840  0.18080  0.21190  Biso   1.000  H
  H6       1.0000 0.03160  0.68080  0.78810  Biso   1.000  H
  N3       1.0000 0.27800  0.48520  0.32360  Biso   1.000  N
  N4       1.0000 0.72200  0.98520  0.67640  Biso   1.000  N
  C1       1.0000 0.32720  0.25470  0.21600  Biso   1.000  C
  C2       1.0000 0.67280  0.75470  0.78400  Biso   1.000  C
  H7       1.0000 0.27450  0.26050  0.13140  Biso   1.000  H
  H8       1.0000 0.72550  0.76050  0.86860  Biso   1.000  H
  H9       1.0000 0.46540  0.17860  0.23290  Biso   1.000  H
  H10      1.0000 0.53460  0.67860  0.76710  Biso   1.000  H
  C3       1.0000 0.43050  0.41160  0.26220  Biso   1.000  C
  C4       1.0000 0.56950  0.91160  0.73780  Biso   1.000  C
  C5       1.0000 0.35730  0.62940  0.38220  Biso   1.000  C
  C6       1.0000 0.64270  0.12940  0.61780  Biso   1.000  C
  H11      1.0000 0.54150  0.62410  0.41830  Biso   1.000  H
  H12      1.0000 0.45850  0.12410  0.58170  Biso   1.000  H
  C7       1.0000 0.31110  0.76970  0.29800  Biso   1.000  C
  C8       1.0000 0.68890  0.26970  0.70200  Biso   1.000  C
  H13      1.0000 0.40540  0.75020  0.23320  Biso   1.000  H
  H14      1.0000 0.59460  0.25020  0.76680  Biso   1.000  H
  C9       1.0000 0.02730  0.79250  0.24510  Biso   1.000  C
  C10      1.0000 0.97270  0.29250  0.75490  Biso   1.000  C
  H15      1.0000 0.00980  0.88040  0.19340  Biso   1.000  H
  H16      1.0000 0.99020  0.38040  0.80660  Biso   1.000  H
  H17      1.0000 0.92910  0.80990  0.30680  Biso   1.000  H
  H18      1.0000 0.07090  0.30990  0.69320  Biso   1.000  H
  H19      1.0000 0.96290  0.70170  0.20160  Biso   1.000  H
  H20      1.0000 0.03710  0.20170  0.79840  Biso   1.000  H
  C11      1.0000 0.19040  0.64830  0.47820  Biso   1.000  C
  C12      1.0000 0.80960  0.14830  0.52180  Biso   1.000  C
  O9       1.0000 0.78050  0.11510  0.02560  Biso   1.000  O
  O10      1.0000 0.21950  0.61510  0.97440  Biso   1.000  O
  H21      1.0000 0.67970  0.03880  0.00330  Biso   1.000  H
  H22      1.0000 0.32030  0.53880  0.99670  Biso   1.000  H
  H23      1.0000 0.72620  0.19390  0.98350  Biso   1.000  H
  H24      1.0000 0.27380  0.69390  0.01650  Biso   1.000  H
  O11      1.0000 0.74780  0.45210  0.01680  Biso   1.000  O
  O12      1.0000 0.25220  0.95210  0.98320  Biso   1.000  O
  H25      1.0000 0.82870  0.42190  0.08370  Biso   1.000  H
  H26      1.0000 0.17130  0.92190  0.91630  Biso   1.000  H
  H27      1.0000 0.80950  0.54000  0.00130  Biso   1.000  H
  H28      1.0000 0.19050  0.04000  0.99870  Biso   1.000  H
