data_image0
_cell_length_a       10.7765
_cell_length_b       28.1439
_cell_length_c       28.487
_cell_angle_alpha    90
_cell_angle_beta     98.706
_cell_angle_gamma    90

_symmetry_space_group_name_H-M    "P 1"
_symmetry_int_tables_number       1

loop_
  _symmetry_equiv_pos_as_xyz
  'x, y, z'

loop_
  _atom_site_label
  _atom_site_occupancy
  _atom_site_fract_x
  _atom_site_fract_y
  _atom_site_fract_z
  _atom_site_thermal_displace_type
  _atom_site_B_iso_or_equiv
  _atom_site_type_symbol
  C1       1.0000 0.00000  0.77220  0.25000  Biso   1.000  C
  C2       1.0000 0.50000  0.27220  0.25000  Biso   1.000  C
  C3       1.0000 0.00000  0.22780  0.75000  Biso   1.000  C
  C4       1.0000 0.50000  0.72780  0.75000  Biso   1.000  C
  C5       1.0000 0.64520  0.88980  0.13030  Biso   1.000  C
  C6       1.0000 0.35480  0.88980  0.36970  Biso   1.000  C
  C7       1.0000 0.14520  0.38980  0.13030  Biso   1.000  C
  C8       1.0000 0.85480  0.38980  0.36970  Biso   1.000  C
  C9       1.0000 0.35480  0.11020  0.86970  Biso   1.000  C
  C10      1.0000 0.64520  0.11020  0.63030  Biso   1.000  C
  C11      1.0000 0.85480  0.61020  0.86970  Biso   1.000  C
  C12      1.0000 0.14520  0.61020  0.63030  Biso   1.000  C
  H1       1.0000 0.55840  0.88760  0.12820  Biso   1.000  H
  H2       1.0000 0.44160  0.88760  0.37180  Biso   1.000  H
  H3       1.0000 0.05840  0.38760  0.12820  Biso   1.000  H
  H4       1.0000 0.94160  0.38760  0.37180  Biso   1.000  H
  H5       1.0000 0.44160  0.11240  0.87180  Biso   1.000  H
  H6       1.0000 0.55840  0.11240  0.62820  Biso   1.000  H
  H7       1.0000 0.94160  0.61240  0.87180  Biso   1.000  H
  H8       1.0000 0.05840  0.61240  0.62820  Biso   1.000  H
  C13      1.0000 0.69370  0.91949  0.10170  Biso   1.000  C
  C14      1.0000 0.30630  0.91949  0.39830  Biso   1.000  C
  C15      1.0000 0.19370  0.41949  0.10170  Biso   1.000  C
  C16      1.0000 0.80630  0.41949  0.39830  Biso   1.000  C
  C17      1.0000 0.30630  0.08051  0.89830  Biso   1.000  C
  C18      1.0000 0.69370  0.08051  0.60170  Biso   1.000  C
  C19      1.0000 0.80630  0.58051  0.89830  Biso   1.000  C
  C20      1.0000 0.19370  0.58051  0.60170  Biso   1.000  C
  C21      1.0000 0.82150  0.92290  0.10620  Biso   1.000  C
  C22      1.0000 0.17850  0.92290  0.39380  Biso   1.000  C
  C23      1.0000 0.32150  0.42290  0.10620  Biso   1.000  C
  C24      1.0000 0.67850  0.42290  0.39380  Biso   1.000  C
  C25      1.0000 0.17850  0.07710  0.89380  Biso   1.000  C
  C26      1.0000 0.82150  0.07710  0.60620  Biso   1.000  C
  C27      1.0000 0.67850  0.57710  0.89380  Biso   1.000  C
  C28      1.0000 0.32150  0.57710  0.60620  Biso   1.000  C
  H9       1.0000 0.85590  0.94440  0.08700  Biso   1.000  H
  H10      1.0000 0.14410  0.94440  0.41300  Biso   1.000  H
  H11      1.0000 0.35590  0.44440  0.08700  Biso   1.000  H
  H12      1.0000 0.64410  0.44440  0.41300  Biso   1.000  H
  H13      1.0000 0.14410  0.05560  0.91300  Biso   1.000  H
  H14      1.0000 0.85590  0.05560  0.58700  Biso   1.000  H
  H15      1.0000 0.64410  0.55560  0.91300  Biso   1.000  H
  H16      1.0000 0.35590  0.55560  0.58700  Biso   1.000  H
  C29      1.0000 0.90980  0.89340  0.14110  Biso   1.000  C
  C30      1.0000 0.09020  0.89340  0.35890  Biso   1.000  C
  C31      1.0000 0.40980  0.39340  0.14110  Biso   1.000  C
  C32      1.0000 0.59020  0.39340  0.35890  Biso   1.000  C
  C33      1.0000 0.09020  0.10660  0.85890  Biso   1.000  C
  C34      1.0000 0.90980  0.10660  0.64110  Biso   1.000  C
  C35      1.0000 0.59020  0.60660  0.85890  Biso   1.000  C
  C36      1.0000 0.40980  0.60660  0.64110  Biso   1.000  C
  H17      1.0000 0.99680  0.89620  0.14480  Biso   1.000  H
  H18      1.0000 0.00320  0.89620  0.35520  Biso   1.000  H
  H19      1.0000 0.49680  0.39620  0.14480  Biso   1.000  H
  H20      1.0000 0.50320  0.39620  0.35520  Biso   1.000  H
  H21      1.0000 0.00320  0.10380  0.85520  Biso   1.000  H
  H22      1.0000 0.99680  0.10380  0.64480  Biso   1.000  H
  H23      1.0000 0.50320  0.60380  0.85520  Biso   1.000  H
  H24      1.0000 0.49680  0.60380  0.64480  Biso   1.000  H
  C37      1.0000 0.61880  0.95041  0.06561  Biso   1.000  C
  C38      1.0000 0.38120  0.95041  0.43439  Biso   1.000  C
  C39      1.0000 0.11880  0.45041  0.06561  Biso   1.000  C
  C40      1.0000 0.88120  0.45041  0.43439  Biso   1.000  C
  C41      1.0000 0.38120  0.04959  0.93439  Biso   1.000  C
  C42      1.0000 0.61880  0.04959  0.56561  Biso   1.000  C
  C43      1.0000 0.88120  0.54959  0.93439  Biso   1.000  C
  C44      1.0000 0.11880  0.54959  0.56561  Biso   1.000  C
  C45      1.0000 0.04380  0.74110  0.21088  Biso   1.000  C
  C46      1.0000 0.95620  0.74110  0.28912  Biso   1.000  C
  C47      1.0000 0.54380  0.24110  0.21088  Biso   1.000  C
  C48      1.0000 0.45620  0.24110  0.28912  Biso   1.000  C
  C49      1.0000 0.95620  0.25890  0.78912  Biso   1.000  C
  C50      1.0000 0.04380  0.25890  0.71088  Biso   1.000  C
  C51      1.0000 0.45620  0.75890  0.78912  Biso   1.000  C
  C52      1.0000 0.54380  0.75890  0.71088  Biso   1.000  C
  H25      1.0000 0.06410  0.76080  0.18510  Biso   1.000  H
  H26      1.0000 0.93590  0.76080  0.31490  Biso   1.000  H
  H27      1.0000 0.56410  0.26080  0.18510  Biso   1.000  H
  H28      1.0000 0.43590  0.26080  0.31490  Biso   1.000  H
  H29      1.0000 0.93590  0.23920  0.81490  Biso   1.000  H
  H30      1.0000 0.06410  0.23920  0.68510  Biso   1.000  H
  H31      1.0000 0.43590  0.73920  0.81490  Biso   1.000  H
  H32      1.0000 0.56410  0.73920  0.68510  Biso   1.000  H
  H33      1.0000 0.11750  0.72280  0.22370  Biso   1.000  H
  H34      1.0000 0.88250  0.72280  0.27630  Biso   1.000  H
  H35      1.0000 0.61750  0.22280  0.22370  Biso   1.000  H
  H36      1.0000 0.38250  0.22280  0.27630  Biso   1.000  H
  H37      1.0000 0.88250  0.27720  0.77630  Biso   1.000  H
  H38      1.0000 0.11750  0.27720  0.72370  Biso   1.000  H
  H39      1.0000 0.38250  0.77720  0.77630  Biso   1.000  H
  H40      1.0000 0.61750  0.77720  0.72370  Biso   1.000  H
  C53      1.0000 0.06480  0.64021  0.10320  Biso   1.000  C
  C54      1.0000 0.93520  0.64021  0.39680  Biso   1.000  C
  C55      1.0000 0.56480  0.14021  0.10320  Biso   1.000  C
  C56      1.0000 0.43520  0.14021  0.39680  Biso   1.000  C
  C57      1.0000 0.93520  0.35979  0.89680  Biso   1.000  C
  C58      1.0000 0.06480  0.35979  0.60320  Biso   1.000  C
  C59      1.0000 0.43520  0.85979  0.89680  Biso   1.000  C
  C60      1.0000 0.56480  0.85979  0.60320  Biso   1.000  C
  H41      1.0000 0.13180  0.63900  0.08610  Biso   1.000  H
  H42      1.0000 0.86820  0.63900  0.41390  Biso   1.000  H
  H43      1.0000 0.63180  0.13900  0.08610  Biso   1.000  H
  H44      1.0000 0.36820  0.13900  0.41390  Biso   1.000  H
  H45      1.0000 0.86820  0.36100  0.91390  Biso   1.000  H
  H46      1.0000 0.13180  0.36100  0.58610  Biso   1.000  H
  H47      1.0000 0.36820  0.86100  0.91390  Biso   1.000  H
  H48      1.0000 0.63180  0.86100  0.58610  Biso   1.000  H
  O1       1.0000 0.67980  0.97782  0.04246  Biso   1.000  O
  O2       1.0000 0.32020  0.97782  0.45754  Biso   1.000  O
  O3       1.0000 0.17980  0.47782  0.04246  Biso   1.000  O
  O4       1.0000 0.82020  0.47782  0.45754  Biso   1.000  O
  O5       1.0000 0.32020  0.02218  0.95754  Biso   1.000  O
  O6       1.0000 0.67980  0.02218  0.54246  Biso   1.000  O
  O7       1.0000 0.82020  0.52218  0.95754  Biso   1.000  O
  O8       1.0000 0.17980  0.52218  0.54246  Biso   1.000  O
  O9       1.0000 0.50410  0.94600  0.06122  Biso   1.000  O
  O10      1.0000 0.49590  0.94600  0.43878  Biso   1.000  O
  O11      1.0000 0.00410  0.44600  0.06122  Biso   1.000  O
  O12      1.0000 0.99590  0.44600  0.43878  Biso   1.000  O
  O13      1.0000 0.49590  0.05400  0.93878  Biso   1.000  O
  O14      1.0000 0.50410  0.05400  0.56122  Biso   1.000  O
  O15      1.0000 0.99590  0.55400  0.93878  Biso   1.000  O
  O16      1.0000 0.00410  0.55400  0.56122  Biso   1.000  O
  O17      1.0000 0.89660  0.53499  0.05487  Biso   1.000  O
  O18      1.0000 0.10340  0.53499  0.44513  Biso   1.000  O
  O19      1.0000 0.39660  0.03499  0.05487  Biso   1.000  O
  O20      1.0000 0.60340  0.03499  0.44513  Biso   1.000  O
  O21      1.0000 0.10340  0.46501  0.94513  Biso   1.000  O
  O22      1.0000 0.89660  0.46501  0.55487  Biso   1.000  O
  O23      1.0000 0.60340  0.96501  0.94513  Biso   1.000  O
  O24      1.0000 0.39660  0.96501  0.55487  Biso   1.000  O
  O25      1.0000 0.07230  0.56759  0.03640  Biso   1.000  O
  O26      1.0000 0.92770  0.56759  0.46360  Biso   1.000  O
  O27      1.0000 0.57230  0.06759  0.03640  Biso   1.000  O
  O28      1.0000 0.42770  0.06759  0.46360  Biso   1.000  O
  O29      1.0000 0.92770  0.43241  0.96360  Biso   1.000  O
  O30      1.0000 0.07230  0.43241  0.53640  Biso   1.000  O
  O31      1.0000 0.42770  0.93241  0.96360  Biso   1.000  O
  O32      1.0000 0.57230  0.93241  0.53640  Biso   1.000  O
  O33      1.0000 0.70840  0.45045  0.01617  Biso   1.000  O
  O34      1.0000 0.29160  0.45045  0.48383  Biso   1.000  O
  O35      1.0000 0.20840  0.95045  0.01617  Biso   1.000  O
  O36      1.0000 0.79160  0.95045  0.48383  Biso   1.000  O
  O37      1.0000 0.29160  0.54955  0.98383  Biso   1.000  O
  O38      1.0000 0.70840  0.54955  0.51617  Biso   1.000  O
  O39      1.0000 0.79160  0.04955  0.98383  Biso   1.000  O
  O40      1.0000 0.20840  0.04955  0.51617  Biso   1.000  O
  C61      1.0000 0.88540  0.80224  0.22759  Biso   1.000  C
  C62      1.0000 0.11460  0.80224  0.27241  Biso   1.000  C
  C63      1.0000 0.38540  0.30224  0.22759  Biso   1.000  C
  C64      1.0000 0.61460  0.30224  0.27241  Biso   1.000  C
  C65      1.0000 0.11460  0.19776  0.77241  Biso   1.000  C
  C66      1.0000 0.88540  0.19776  0.72759  Biso   1.000  C
  C67      1.0000 0.61460  0.69776  0.77241  Biso   1.000  C
  C68      1.0000 0.38540  0.69776  0.72759  Biso   1.000  C
  H49      1.0000 0.82200  0.78220  0.20960  Biso   1.000  H
  H50      1.0000 0.17800  0.78220  0.29040  Biso   1.000  H
  H51      1.0000 0.32200  0.28220  0.20960  Biso   1.000  H
  H52      1.0000 0.67800  0.28220  0.29040  Biso   1.000  H
  H53      1.0000 0.17800  0.21780  0.79040  Biso   1.000  H
  H54      1.0000 0.82200  0.21780  0.70960  Biso   1.000  H
  H55      1.0000 0.67800  0.71780  0.79040  Biso   1.000  H
  H56      1.0000 0.32200  0.71780  0.70960  Biso   1.000  H
  H57      1.0000 0.84840  0.81870  0.25200  Biso   1.000  H
  H58      1.0000 0.15160  0.81870  0.24800  Biso   1.000  H
  H59      1.0000 0.34840  0.31870  0.25200  Biso   1.000  H
  H60      1.0000 0.65160  0.31870  0.24800  Biso   1.000  H
  H61      1.0000 0.15160  0.18130  0.74800  Biso   1.000  H
  H62      1.0000 0.84840  0.18130  0.75200  Biso   1.000  H
  H63      1.0000 0.65160  0.68130  0.74800  Biso   1.000  H
  H64      1.0000 0.34840  0.68130  0.75200  Biso   1.000  H
  C69      1.0000 0.84760  0.86158  0.16720  Biso   1.000  C
  C70      1.0000 0.15240  0.86158  0.33280  Biso   1.000  C
  C71      1.0000 0.34760  0.36158  0.16720  Biso   1.000  C
  C72      1.0000 0.65240  0.36158  0.33280  Biso   1.000  C
  C73      1.0000 0.15240  0.13842  0.83280  Biso   1.000  C
  C74      1.0000 0.84760  0.13842  0.66720  Biso   1.000  C
  C75      1.0000 0.65240  0.63842  0.83280  Biso   1.000  C
  C76      1.0000 0.34760  0.63842  0.66720  Biso   1.000  C
  C77      1.0000 0.72400  0.86056  0.16490  Biso   1.000  C
  C78      1.0000 0.27600  0.86056  0.33510  Biso   1.000  C
  C79      1.0000 0.22400  0.36056  0.16490  Biso   1.000  C
  C80      1.0000 0.77600  0.36056  0.33510  Biso   1.000  C
  C81      1.0000 0.27600  0.13944  0.83510  Biso   1.000  C
  C82      1.0000 0.72400  0.13944  0.66490  Biso   1.000  C
  C83      1.0000 0.77600  0.63944  0.83510  Biso   1.000  C
  C84      1.0000 0.22400  0.63944  0.66490  Biso   1.000  C
  H65      1.0000 0.68760  0.84110  0.18550  Biso   1.000  H
  H66      1.0000 0.31240  0.84110  0.31450  Biso   1.000  H
  H67      1.0000 0.18760  0.34110  0.18550  Biso   1.000  H
  H68      1.0000 0.81240  0.34110  0.31450  Biso   1.000  H
  H69      1.0000 0.31240  0.15890  0.81450  Biso   1.000  H
  H70      1.0000 0.68760  0.15890  0.68550  Biso   1.000  H
  H71      1.0000 0.81240  0.65890  0.81450  Biso   1.000  H
  H72      1.0000 0.18760  0.65890  0.68550  Biso   1.000  H
  C85      1.0000 0.96080  0.67775  0.15970  Biso   1.000  C
  C86      1.0000 0.03920  0.67775  0.34030  Biso   1.000  C
  C87      1.0000 0.46080  0.17775  0.15970  Biso   1.000  C
  C88      1.0000 0.53920  0.17775  0.34030  Biso   1.000  C
  C89      1.0000 0.03920  0.32225  0.84030  Biso   1.000  C
  C90      1.0000 0.96080  0.32225  0.65970  Biso   1.000  C
  C91      1.0000 0.53920  0.82225  0.84030  Biso   1.000  C
  C92      1.0000 0.46080  0.82225  0.65970  Biso   1.000  C
  C93      1.0000 0.86360  0.64420  0.15350  Biso   1.000  C
  C94      1.0000 0.13640  0.64420  0.34650  Biso   1.000  C
  C95      1.0000 0.36360  0.14420  0.15350  Biso   1.000  C
  C96      1.0000 0.63640  0.14420  0.34650  Biso   1.000  C
  C97      1.0000 0.13640  0.35580  0.84650  Biso   1.000  C
  C98      1.0000 0.86360  0.35580  0.65350  Biso   1.000  C
  C99      1.0000 0.63640  0.85580  0.84650  Biso   1.000  C
  C100     1.0000 0.36360  0.85580  0.65350  Biso   1.000  C
  H73      1.0000 0.79690  0.64550  0.17070  Biso   1.000  H
  H74      1.0000 0.20310  0.64550  0.32930  Biso   1.000  H
  H75      1.0000 0.29690  0.14550  0.17070  Biso   1.000  H
  H76      1.0000 0.70310  0.14550  0.32930  Biso   1.000  H
  H77      1.0000 0.20310  0.35450  0.82930  Biso   1.000  H
  H78      1.0000 0.79690  0.35450  0.67070  Biso   1.000  H
  H79      1.0000 0.70310  0.85450  0.82930  Biso   1.000  H
  H80      1.0000 0.29690  0.85450  0.67070  Biso   1.000  H
  C101     1.0000 0.87340  0.60740  0.11870  Biso   1.000  C
  C102     1.0000 0.12660  0.60740  0.38130  Biso   1.000  C
  C103     1.0000 0.37340  0.10740  0.11870  Biso   1.000  C
  C104     1.0000 0.62660  0.10740  0.38130  Biso   1.000  C
  C105     1.0000 0.12660  0.39260  0.88130  Biso   1.000  C
  C106     1.0000 0.87340  0.39260  0.61870  Biso   1.000  C
  C107     1.0000 0.62660  0.89260  0.88130  Biso   1.000  C
  C108     1.0000 0.37340  0.89260  0.61870  Biso   1.000  C
  H81      1.0000 0.81120  0.58420  0.11360  Biso   1.000  H
  H82      1.0000 0.18880  0.58420  0.38640  Biso   1.000  H
  H83      1.0000 0.31120  0.08420  0.11360  Biso   1.000  H
  H84      1.0000 0.68880  0.08420  0.38640  Biso   1.000  H
  H85      1.0000 0.18880  0.41580  0.88640  Biso   1.000  H
  H86      1.0000 0.81120  0.41580  0.61360  Biso   1.000  H
  H87      1.0000 0.68880  0.91580  0.88640  Biso   1.000  H
  H88      1.0000 0.31120  0.91580  0.61360  Biso   1.000  H
  C109     1.0000 0.96970  0.60567  0.09360  Biso   1.000  C
  C110     1.0000 0.03030  0.60567  0.40640  Biso   1.000  C
  C111     1.0000 0.46970  0.10567  0.09360  Biso   1.000  C
  C112     1.0000 0.53030  0.10567  0.40640  Biso   1.000  C
  C113     1.0000 0.03030  0.39433  0.90640  Biso   1.000  C
  C114     1.0000 0.96970  0.39433  0.59360  Biso   1.000  C
  C115     1.0000 0.53030  0.89433  0.90640  Biso   1.000  C
  C116     1.0000 0.46970  0.89433  0.59360  Biso   1.000  C
  C117     1.0000 0.06380  0.67612  0.13670  Biso   1.000  C
  C118     1.0000 0.93620  0.67612  0.36330  Biso   1.000  C
  C119     1.0000 0.56380  0.17612  0.13670  Biso   1.000  C
  C120     1.0000 0.43620  0.17612  0.36330  Biso   1.000  C
  C121     1.0000 0.93620  0.32388  0.86330  Biso   1.000  C
  C122     1.0000 0.06380  0.32388  0.63670  Biso   1.000  C
  C123     1.0000 0.43620  0.82388  0.86330  Biso   1.000  C
  C124     1.0000 0.56380  0.82388  0.63670  Biso   1.000  C
  H89      1.0000 0.12930  0.69780  0.14320  Biso   1.000  H
  H90      1.0000 0.87070  0.69780  0.35680  Biso   1.000  H
  H91      1.0000 0.62930  0.19780  0.14320  Biso   1.000  H
  H92      1.0000 0.37070  0.19780  0.35680  Biso   1.000  H
  H93      1.0000 0.87070  0.30220  0.85680  Biso   1.000  H
  H94      1.0000 0.12930  0.30220  0.64320  Biso   1.000  H
  H95      1.0000 0.37070  0.80220  0.85680  Biso   1.000  H
  H96      1.0000 0.62930  0.80220  0.64320  Biso   1.000  H
  C125     1.0000 0.98320  0.56647  0.05950  Biso   1.000  C
  C126     1.0000 0.01680  0.56647  0.44050  Biso   1.000  C
  C127     1.0000 0.48320  0.06647  0.05950  Biso   1.000  C
  C128     1.0000 0.51680  0.06647  0.44050  Biso   1.000  C
  C129     1.0000 0.01680  0.43353  0.94050  Biso   1.000  C
  C130     1.0000 0.98320  0.43353  0.55950  Biso   1.000  C
  C131     1.0000 0.51680  0.93353  0.94050  Biso   1.000  C
  C132     1.0000 0.48320  0.93353  0.55950  Biso   1.000  C
  Cu1      1.0000 0.89678  0.48106  0.01088  Biso   1.000  Cu
  Cu2      1.0000 0.10322  0.48106  0.48912  Biso   1.000  Cu
  Cu3      1.0000 0.39678  0.98106  0.01088  Biso   1.000  Cu
  Cu4      1.0000 0.60322  0.98106  0.48912  Biso   1.000  Cu
  Cu5      1.0000 0.10322  0.51894  0.98912  Biso   1.000  Cu
  Cu6      1.0000 0.89678  0.51894  0.51088  Biso   1.000  Cu
  Cu7      1.0000 0.60322  0.01894  0.98912  Biso   1.000  Cu
  Cu8      1.0000 0.39678  0.01894  0.51088  Biso   1.000  Cu
  O41      1.0000 0.93420  0.83557  0.19698  Biso   1.000  O
  O42      1.0000 0.06580  0.83557  0.30302  Biso   1.000  O
  O43      1.0000 0.43420  0.33557  0.19698  Biso   1.000  O
  O44      1.0000 0.56580  0.33557  0.30302  Biso   1.000  O
  O45      1.0000 0.06580  0.16443  0.80302  Biso   1.000  O
  O46      1.0000 0.93420  0.16443  0.69698  Biso   1.000  O
  O47      1.0000 0.56580  0.66443  0.80302  Biso   1.000  O
  O48      1.0000 0.43420  0.66443  0.69698  Biso   1.000  O
  O49      1.0000 0.94080  0.71014  0.19438  Biso   1.000  O
  O50      1.0000 0.05920  0.71014  0.30562  Biso   1.000  O
  O51      1.0000 0.44080  0.21014  0.19438  Biso   1.000  O
  O52      1.0000 0.55920  0.21014  0.30562  Biso   1.000  O
  O53      1.0000 0.05920  0.28986  0.80562  Biso   1.000  O
  O54      1.0000 0.94080  0.28986  0.69438  Biso   1.000  O
  O55      1.0000 0.55920  0.78986  0.80562  Biso   1.000  O
  O56      1.0000 0.44080  0.78986  0.69438  Biso   1.000  O
