data_image0
_cell_length_a       5.2865
_cell_length_b       8.718
_cell_length_c       17.773
_cell_angle_alpha    90
_cell_angle_beta     90
_cell_angle_gamma    90

_symmetry_space_group_name_H-M    "P 1"
_symmetry_int_tables_number       1

loop_
  _symmetry_equiv_pos_as_xyz
  'x, y, z'

loop_
  _atom_site_label
  _atom_site_occupancy
  _atom_site_fract_x
  _atom_site_fract_y
  _atom_site_fract_z
  _atom_site_thermal_displace_type
  _atom_site_B_iso_or_equiv
  _atom_site_type_symbol
  Cu1      1.0000 0.04950  0.26930  0.67085  Biso   1.000  Cu
  Cu2      1.0000 0.45050  0.73070  0.17085  Biso   1.000  Cu
  Cu3      1.0000 0.54950  0.23070  0.32915  Biso   1.000  Cu
  Cu4      1.0000 0.95050  0.76930  0.82915  Biso   1.000  Cu
  C1       1.0000 0.44400  0.13690  0.57760  Biso   1.000  C
  C2       1.0000 0.05600  0.86310  0.07760  Biso   1.000  C
  C3       1.0000 0.94400  0.36310  0.42240  Biso   1.000  C
  C4       1.0000 0.55600  0.63690  0.92240  Biso   1.000  C
  H1       1.0000 0.45130  0.13000  0.52320  Biso   1.000  H
  H2       1.0000 0.04870  0.87000  0.02320  Biso   1.000  H
  H3       1.0000 0.95130  0.37000  0.47680  Biso   1.000  H
  H4       1.0000 0.54870  0.63000  0.97680  Biso   1.000  H
  H5       1.0000 0.56080  0.06200  0.59820  Biso   1.000  H
  H6       1.0000 0.93920  0.93800  0.09820  Biso   1.000  H
  H7       1.0000 0.06080  0.43800  0.40180  Biso   1.000  H
  H8       1.0000 0.43920  0.56200  0.90180  Biso   1.000  H
  C5       1.0000 0.52200  0.29480  0.60200  Biso   1.000  C
  C6       1.0000 0.97800  0.70520  0.10200  Biso   1.000  C
  C7       1.0000 0.02200  0.20520  0.39800  Biso   1.000  C
  C8       1.0000 0.47800  0.79480  0.89800  Biso   1.000  C
  C9       1.0000 0.39700  0.52120  0.67420  Biso   1.000  C
  C10      1.0000 0.10300  0.47880  0.17420  Biso   1.000  C
  C11      1.0000 0.89700  0.97880  0.32580  Biso   1.000  C
  C12      1.0000 0.60300  0.02120  0.82580  Biso   1.000  C
  H9       1.0000 0.56420  0.51700  0.69820  Biso   1.000  H
  H10      1.0000 0.93580  0.48300  0.19820  Biso   1.000  H
  H11      1.0000 0.06420  0.98300  0.30180  Biso   1.000  H
  H12      1.0000 0.43580  0.01700  0.80180  Biso   1.000  H
  C13      1.0000 0.39300  0.65300  0.61740  Biso   1.000  C
  C14      1.0000 0.10700  0.34700  0.11740  Biso   1.000  C
  C15      1.0000 0.89300  0.84700  0.38260  Biso   1.000  C
  C16      1.0000 0.60700  0.15300  0.88260  Biso   1.000  C
  H13      1.0000 0.51220  0.62920  0.57700  Biso   1.000  H
  H14      1.0000 0.98780  0.37080  0.07700  Biso   1.000  H
  H15      1.0000 0.01220  0.87080  0.42300  Biso   1.000  H
  H16      1.0000 0.48780  0.12920  0.92300  Biso   1.000  H
  C17      1.0000 0.13500  0.67900  0.58210  Biso   1.000  C
  C18      1.0000 0.36500  0.32100  0.08210  Biso   1.000  C
  C19      1.0000 0.63500  0.82100  0.41790  Biso   1.000  C
  C20      1.0000 0.86500  0.17900  0.91790  Biso   1.000  C
  H17      1.0000 0.14160  0.76520  0.54890  Biso   1.000  H
  H18      1.0000 0.35840  0.23480  0.04890  Biso   1.000  H
  H19      1.0000 0.64160  0.73480  0.45110  Biso   1.000  H
  H20      1.0000 0.85840  0.26520  0.95110  Biso   1.000  H
  H21      1.0000 0.01230  0.69740  0.62100  Biso   1.000  H
  H22      1.0000 0.48770  0.30260  0.12100  Biso   1.000  H
  H23      1.0000 0.51230  0.80260  0.37900  Biso   1.000  H
  H24      1.0000 0.98770  0.19740  0.87900  Biso   1.000  H
  H25      1.0000 0.08680  0.58880  0.55420  Biso   1.000  H
  H26      1.0000 0.41320  0.41120  0.05420  Biso   1.000  H
  H27      1.0000 0.58680  0.91120  0.44580  Biso   1.000  H
  H28      1.0000 0.91320  0.08880  0.94580  Biso   1.000  H
  C21      1.0000 0.20200  0.54600  0.73260  Biso   1.000  C
  C22      1.0000 0.29800  0.45400  0.23260  Biso   1.000  C
  C23      1.0000 0.70200  0.95400  0.26740  Biso   1.000  C
  C24      1.0000 0.79800  0.04600  0.76740  Biso   1.000  C
  O1       1.0000 0.74200  0.34320  0.58870  Biso   1.000  O
  O2       1.0000 0.75800  0.65680  0.08870  Biso   1.000  O
  O3       1.0000 0.24200  0.15680  0.41130  Biso   1.000  O
  O4       1.0000 0.25800  0.84320  0.91130  Biso   1.000  O
  O5       1.0000 0.01500  0.44870  0.74150  Biso   1.000  O
  O6       1.0000 0.48500  0.55130  0.24150  Biso   1.000  O
  O7       1.0000 0.51500  0.05130  0.25850  Biso   1.000  O
  O8       1.0000 0.98500  0.94870  0.75850  Biso   1.000  O
  O9       1.0000 0.22100  0.66660  0.77200  Biso   1.000  O
  O10      1.0000 0.27900  0.33340  0.27200  Biso   1.000  O
  O11      1.0000 0.72100  0.83340  0.22800  Biso   1.000  O
  O12      1.0000 0.77900  0.16660  0.72800  Biso   1.000  O
  O13      1.0000 0.48300  0.79130  0.65590  Biso   1.000  O
  O14      1.0000 0.01700  0.20870  0.15590  Biso   1.000  O
  O15      1.0000 0.98300  0.70870  0.34410  Biso   1.000  O
  O16      1.0000 0.51700  0.29130  0.84410  Biso   1.000  O
  H29      1.0000 0.38000  0.79700  0.69500  Biso   1.000  H
  H30      1.0000 0.12000  0.20300  0.19500  Biso   1.000  H
  H31      1.0000 0.88000  0.70300  0.30500  Biso   1.000  H
  H32      1.0000 0.62000  0.29700  0.80500  Biso   1.000  H
  N1       1.0000 0.18100  0.10200  0.60400  Biso   1.000  N
  N2       1.0000 0.31900  0.89800  0.10400  Biso   1.000  N
  N3       1.0000 0.68100  0.39800  0.39600  Biso   1.000  N
  N4       1.0000 0.81900  0.60200  0.89600  Biso   1.000  N
  H33      1.0000 0.18070  0.01260  0.62930  Biso   1.000  H
  H34      1.0000 0.31930  0.98740  0.12930  Biso   1.000  H
  H35      1.0000 0.68070  0.48740  0.37070  Biso   1.000  H
  H36      1.0000 0.81930  0.51260  0.87070  Biso   1.000  H
  H37      1.0000 0.07820  0.09170  0.56390  Biso   1.000  H
  H38      1.0000 0.42180  0.90830  0.06390  Biso   1.000  H
  H39      1.0000 0.57820  0.40830  0.43610  Biso   1.000  H
  H40      1.0000 0.92180  0.59170  0.93610  Biso   1.000  H
  N5       1.0000 0.34400  0.37420  0.63870  Biso   1.000  N
  N6       1.0000 0.15600  0.62580  0.13870  Biso   1.000  N
  N7       1.0000 0.84400  0.12580  0.36130  Biso   1.000  N
  N8       1.0000 0.65600  0.87420  0.86130  Biso   1.000  N
