data_image0
_cell_length_a       7.344
_cell_length_b       13.178
_cell_length_c       8.799
_cell_angle_alpha    90
_cell_angle_beta     114.25
_cell_angle_gamma    90

_symmetry_space_group_name_H-M    "P 1"
_symmetry_int_tables_number       1

loop_
  _symmetry_equiv_pos_as_xyz
  'x, y, z'

loop_
  _atom_site_label
  _atom_site_occupancy
  _atom_site_fract_x
  _atom_site_fract_y
  _atom_site_fract_z
  _atom_site_thermal_displace_type
  _atom_site_B_iso_or_equiv
  _atom_site_type_symbol
  Cu1      1.0000 0.85064  0.14165  0.18176  Biso   1.000  Cu
  Cu2      1.0000 0.14936  0.64165  0.81824  Biso   1.000  Cu
  C1       1.0000 0.27080  0.07170  0.38400  Biso   1.000  C
  C2       1.0000 0.72920  0.57170  0.61600  Biso   1.000  C
  H1       1.0000 0.26170  0.04140  0.28570  Biso   1.000  H
  H2       1.0000 0.73830  0.54140  0.71430  Biso   1.000  H
  C3       1.0000 0.44500  0.06210  0.52450  Biso   1.000  C
  C4       1.0000 0.55500  0.56210  0.47550  Biso   1.000  C
  H3       1.0000 0.55340  0.02730  0.52110  Biso   1.000  H
  H4       1.0000 0.44660  0.52730  0.47890  Biso   1.000  H
  C5       1.0000 0.45590  0.10540  0.67150  Biso   1.000  C
  C6       1.0000 0.54410  0.60540  0.32850  Biso   1.000  C
  H5       1.0000 0.57180  0.09930  0.76880  Biso   1.000  H
  H6       1.0000 0.42820  0.59930  0.23120  Biso   1.000  H
  C7       1.0000 0.29440  0.15740  0.67220  Biso   1.000  C
  C8       1.0000 0.70560  0.65740  0.32780  Biso   1.000  C
  H7       1.0000 0.29860  0.18680  0.76970  Biso   1.000  H
  H8       1.0000 0.70140  0.68680  0.23030  Biso   1.000  H
  C9       1.0000 0.12590  0.16510  0.52550  Biso   1.000  C
  C10      1.0000 0.87410  0.66510  0.47450  Biso   1.000  C
  C11      1.0000 0.90040  0.27480  0.61610  Biso   1.000  C
  C12      1.0000 0.09960  0.77480  0.38390  Biso   1.000  C
  C13      1.0000 0.70470  0.30300  0.52800  Biso   1.000  C
  C14      1.0000 0.29530  0.80300  0.47200  Biso   1.000  C
  H9       1.0000 0.62790  0.34220  0.56740  Biso   1.000  H
  H10      1.0000 0.37210  0.84220  0.43260  Biso   1.000  H
  C15      1.0000 0.64280  0.26210  0.36840  Biso   1.000  C
  C16      1.0000 0.35720  0.76210  0.63160  Biso   1.000  C
  C17      1.0000 0.03940  0.30430  0.78840  Biso   1.000  C
  C18      1.0000 0.96060  0.80430  0.21160  Biso   1.000  C
  H11      1.0000 0.97020  0.34640  0.83650  Biso   1.000  H
  H12      1.0000 0.02980  0.84640  0.16350  Biso   1.000  H
  H13      1.0000 0.15030  0.34100  0.78470  Biso   1.000  H
  H14      1.0000 0.84970  0.84100  0.21530  Biso   1.000  H
  H15      1.0000 0.08720  0.24430  0.85510  Biso   1.000  H
  H16      1.0000 0.91280  0.74430  0.14490  Biso   1.000  H
  C19      1.0000 0.44520  0.27490  0.22220  Biso   1.000  C
  C20      1.0000 0.55480  0.77490  0.77780  Biso   1.000  C
  H17      1.0000 0.44660  0.23860  0.12810  Biso   1.000  H
  H18      1.0000 0.55340  0.73860  0.87190  Biso   1.000  H
  H19      1.0000 0.42180  0.34560  0.19510  Biso   1.000  H
  H20      1.0000 0.57820  0.84560  0.80490  Biso   1.000  H
  H21      1.0000 0.34080  0.24860  0.25010  Biso   1.000  H
  H22      1.0000 0.65920  0.74860  0.74990  Biso   1.000  H
  C21      1.0000 0.98490  0.03980  0.92710  Biso   1.000  C
  C22      1.0000 0.01510  0.53980  0.07290  Biso   1.000  C
  C23      1.0000 0.94380  0.95320  0.69070  Biso   1.000  C
  C24      1.0000 0.05620  0.45320  0.30930  Biso   1.000  C
  C25      1.0000 0.51670  0.97390  0.13550  Biso   1.000  C
  C26      1.0000 0.48330  0.47390  0.86450  Biso   1.000  C
  C27      1.0000 0.33990  0.82770  0.06030  Biso   1.000  C
  C28      1.0000 0.66010  0.32770  0.93970  Biso   1.000  C
  N1       1.0000 0.11350  0.12310  0.38360  Biso   1.000  N
  N2       1.0000 0.88650  0.62310  0.61640  Biso   1.000  N
  N3       1.0000 0.94940  0.21560  0.50980  Biso   1.000  N
  N4       1.0000 0.05060  0.71560  0.49020  Biso   1.000  N
  N5       1.0000 0.79040  0.20970  0.35570  Biso   1.000  N
  N6       1.0000 0.20960  0.70970  0.64430  Biso   1.000  N
  N7       1.0000 0.94860  0.07290  0.03010  Biso   1.000  N
  N8       1.0000 0.05140  0.57290  0.96990  Biso   1.000  N
  N9       1.0000 0.04840  0.00790  0.82010  Biso   1.000  N
  N10      1.0000 0.95160  0.50790  0.17990  Biso   1.000  N
  N11      1.0000 0.86360  0.90480  0.57470  Biso   1.000  N
  N12      1.0000 0.13640  0.40480  0.42530  Biso   1.000  N
  N13      1.0000 0.61050  0.04140  0.12360  Biso   1.000  N
  N14      1.0000 0.38950  0.54140  0.87640  Biso   1.000  N
  N15      1.0000 0.41320  0.90240  0.16280  Biso   1.000  N
  N16      1.0000 0.58680  0.40240  0.83720  Biso   1.000  N
  N17      1.0000 0.26960  0.75680  0.98150  Biso   1.000  N
  N18      1.0000 0.73040  0.25680  0.01850  Biso   1.000  N
