data_image0
_cell_length_a       9.512
_cell_length_b       10.115
_cell_length_c       11.708
_cell_angle_alpha    75.042
_cell_angle_beta     76.605
_cell_angle_gamma    70.64

_symmetry_space_group_name_H-M    "P 1"
_symmetry_int_tables_number       1

loop_
  _symmetry_equiv_pos_as_xyz
  'x, y, z'

loop_
  _atom_site_label
  _atom_site_occupancy
  _atom_site_fract_x
  _atom_site_fract_y
  _atom_site_fract_z
  _atom_site_thermal_displace_type
  _atom_site_B_iso_or_equiv
  _atom_site_type_symbol
  Cu1      1.0000 0.43591  0.38355  0.88643  Biso   1.000  Cu
  Cu2      1.0000 0.56409  0.61645  0.11357  Biso   1.000  Cu
  N1       1.0000 0.61020  0.38260  0.74750  Biso   1.000  N
  N2       1.0000 0.38980  0.61740  0.25250  Biso   1.000  N
  N3       1.0000 0.26570  0.37160  0.02500  Biso   1.000  N
  N4       1.0000 0.73430  0.62840  0.97500  Biso   1.000  N
  O1       1.0000 0.59790  0.31360  0.01320  Biso   1.000  O
  O2       1.0000 0.40210  0.68640  0.98680  Biso   1.000  O
  O3       1.0000 0.62580  0.40650  0.15720  Biso   1.000  O
  O4       1.0000 0.37420  0.59350  0.84280  Biso   1.000  O
  O5       1.0000 0.55330  0.80980  0.13400  Biso   1.000  O
  O6       1.0000 0.44670  0.19020  0.86600  Biso   1.000  O
  O7       1.0000 0.69610  0.66510  0.26770  Biso   1.000  O
  O8       1.0000 0.30390  0.33490  0.73230  Biso   1.000  O
  Br1      1.0000 0.73287  0.00478  0.54567  Biso   1.000  Br
  Br2      1.0000 0.26713  0.99522  0.45433  Biso   1.000  Br
  C1       1.0000 0.61640  0.30600  0.11590  Biso   1.000  C
  C2       1.0000 0.38360  0.69400  0.88410  Biso   1.000  C
  C3       1.0000 0.63660  0.16460  0.20090  Biso   1.000  C
  C4       1.0000 0.36340  0.83540  0.79910  Biso   1.000  C
  C5       1.0000 0.66790  0.15030  0.31460  Biso   1.000  C
  C6       1.0000 0.33210  0.84970  0.68540  Biso   1.000  C
  H1       1.0000 0.67340  0.22900  0.33860  Biso   1.000  H
  H2       1.0000 0.32660  0.77100  0.66140  Biso   1.000  H
  C7       1.0000 0.69080  0.01940  0.39150  Biso   1.000  C
  C8       1.0000 0.30920  0.98060  0.60850  Biso   1.000  C
  C9       1.0000 0.68160  0.90130  0.35990  Biso   1.000  C
  C10      1.0000 0.31840  0.09870  0.64010  Biso   1.000  C
  H3       1.0000 0.69850  0.81340  0.41260  Biso   1.000  H
  H4       1.0000 0.30150  0.18660  0.58740  Biso   1.000  H
  C11      1.0000 0.64640  0.91560  0.24750  Biso   1.000  C
  C12      1.0000 0.35360  0.08440  0.75250  Biso   1.000  C
  C13      1.0000 0.62430  0.04620  0.16940  Biso   1.000  C
  C14      1.0000 0.37570  0.95380  0.83060  Biso   1.000  C
  H5       1.0000 0.60080  0.05500  0.09450  Biso   1.000  H
  H6       1.0000 0.39920  0.94500  0.90550  Biso   1.000  H
  C15      1.0000 0.63180  0.78650  0.21550  Biso   1.000  C
  C16      1.0000 0.36820  0.21350  0.78450  Biso   1.000  C
  C17      1.0000 0.58900  0.47430  0.64470  Biso   1.000  C
  C18      1.0000 0.41100  0.52570  0.35530  Biso   1.000  C
  H7       1.0000 0.49540  0.54220  0.63990  Biso   1.000  H
  H8       1.0000 0.50460  0.45780  0.36010  Biso   1.000  H
  C19      1.0000 0.69890  0.47370  0.54510  Biso   1.000  C
  C20      1.0000 0.30110  0.52630  0.45490  Biso   1.000  C
  H9       1.0000 0.67820  0.54000  0.47510  Biso   1.000  H
  H10      1.0000 0.32180  0.46000  0.52490  Biso   1.000  H
  C21      1.0000 0.83880  0.37610  0.54820  Biso   1.000  C
  C22      1.0000 0.16120  0.62390  0.45180  Biso   1.000  C
  C23      1.0000 0.86060  0.27960  0.65470  Biso   1.000  C
  C24      1.0000 0.13940  0.72040  0.34530  Biso   1.000  C
  H11      1.0000 0.95260  0.20970  0.66130  Biso   1.000  H
  H12      1.0000 0.04740  0.79030  0.33870  Biso   1.000  H
  C25      1.0000 0.74490  0.28730  0.75130  Biso   1.000  C
  C26      1.0000 0.25510  0.71270  0.24870  Biso   1.000  C
  H13      1.0000 0.76240  0.22240  0.82270  Biso   1.000  H
  H14      1.0000 0.23760  0.77760  0.17730  Biso   1.000  H
  C27      1.0000 0.96100  0.37590  0.44070  Biso   1.000  C
  C28      1.0000 0.03900  0.62410  0.55930  Biso   1.000  C
  H15      1.0000 0.05540  0.31100  0.46380  Biso   1.000  H
  H16      1.0000 0.94460  0.68900  0.53620  Biso   1.000  H
  H17      1.0000 0.97350  0.47090  0.41330  Biso   1.000  H
  H18      1.0000 0.02650  0.52910  0.58670  Biso   1.000  H
  C29      1.0000 0.92650  0.33090  0.33810  Biso   1.000  C
  C30      1.0000 0.07350  0.66910  0.66190  Biso   1.000  C
  H19      1.0000 0.92430  0.23230  0.36240  Biso   1.000  H
  H20      1.0000 0.07570  0.76770  0.63760  Biso   1.000  H
  H21      1.0000 0.82770  0.38980  0.31980  Biso   1.000  H
  H22      1.0000 0.17230  0.61020  0.68020  Biso   1.000  H
  C31      1.0000 0.04320  0.34560  0.22740  Biso   1.000  C
  C32      1.0000 0.95680  0.65440  0.77260  Biso   1.000  C
  C33      1.0000 0.05860  0.47460  0.16490  Biso   1.000  C
  C34      1.0000 0.94140  0.52540  0.83510  Biso   1.000  C
  H23      1.0000 0.99450  0.55720  0.19040  Biso   1.000  H
  H24      1.0000 0.00550  0.44280  0.80960  Biso   1.000  H
  C35      1.0000 0.16690  0.48660  0.06460  Biso   1.000  C
  C36      1.0000 0.83310  0.51340  0.93540  Biso   1.000  C
  H25      1.0000 0.17160  0.57720  0.02300  Biso   1.000  H
  H26      1.0000 0.82840  0.42280  0.97700  Biso   1.000  H
  C37      1.0000 0.24970  0.24510  0.08560  Biso   1.000  C
  C38      1.0000 0.75030  0.75490  0.91440  Biso   1.000  C
  H27      1.0000 0.31580  0.16360  0.05970  Biso   1.000  H
  H28      1.0000 0.68420  0.83640  0.94030  Biso   1.000  H
  C39      1.0000 0.14120  0.22770  0.18430  Biso   1.000  C
  C40      1.0000 0.85880  0.77230  0.81570  Biso   1.000  C
  H29      1.0000 0.13410  0.13660  0.22190  Biso   1.000  H
  H30      1.0000 0.86590  0.86340  0.77810  Biso   1.000  H
