data_image0
_cell_length_a       3.9119
_cell_length_b       13.525
_cell_length_c       7.6733
_cell_angle_alpha    90
_cell_angle_beta     97.291
_cell_angle_gamma    90

_symmetry_space_group_name_H-M    "P 1"
_symmetry_int_tables_number       1

loop_
  _symmetry_equiv_pos_as_xyz
  'x, y, z'

loop_
  _atom_site_label
  _atom_site_occupancy
  _atom_site_fract_x
  _atom_site_fract_y
  _atom_site_fract_z
  _atom_site_thermal_displace_type
  _atom_site_B_iso_or_equiv
  _atom_site_type_symbol
  Cu1      1.0000 0.27848  0.03265  0.12107  Biso   1.000  Cu
  Cu2      1.0000 0.27848  0.46735  0.12107  Biso   1.000  Cu
  Cu3      1.0000 0.72152  0.96735  0.87893  Biso   1.000  Cu
  Cu4      1.0000 0.72152  0.53265  0.87893  Biso   1.000  Cu
  Br1      1.0000 0.18719  0.07305  0.79657  Biso   1.000  Br
  Br2      1.0000 0.18719  0.42695  0.79657  Biso   1.000  Br
  Br3      1.0000 0.81281  0.92695  0.20343  Biso   1.000  Br
  Br4      1.0000 0.81281  0.57305  0.20343  Biso   1.000  Br
  N1       1.0000 0.38800  0.16220  0.25060  Biso   1.000  N
  N2       1.0000 0.38800  0.33780  0.25060  Biso   1.000  N
  N3       1.0000 0.61200  0.83780  0.74940  Biso   1.000  N
  N4       1.0000 0.61200  0.66220  0.74940  Biso   1.000  N
  C1       1.0000 0.30740  0.25000  0.17740  Biso   1.000  C
  C2       1.0000 0.69260  0.75000  0.82260  Biso   1.000  C
  H1       1.0000 0.18550  0.25000  0.06510  Biso   1.000  H
  H2       1.0000 0.81450  0.75000  0.93490  Biso   1.000  H
  C3       1.0000 0.56030  0.16290  0.41410  Biso   1.000  C
  C4       1.0000 0.56030  0.33710  0.41410  Biso   1.000  C
  C5       1.0000 0.43970  0.83710  0.58590  Biso   1.000  C
  C6       1.0000 0.43970  0.66290  0.58590  Biso   1.000  C
  H3       1.0000 0.61700  0.10310  0.47030  Biso   1.000  H
  H4       1.0000 0.61700  0.39690  0.47030  Biso   1.000  H
  H5       1.0000 0.38300  0.89690  0.52970  Biso   1.000  H
  H6       1.0000 0.38300  0.60310  0.52970  Biso   1.000  H
  C7       1.0000 0.65300  0.25000  0.50080  Biso   1.000  C
  C8       1.0000 0.34700  0.75000  0.49920  Biso   1.000  C
  H7       1.0000 0.77610  0.25000  0.61250  Biso   1.000  H
  H8       1.0000 0.22390  0.75000  0.38750  Biso   1.000  H
