data_image0
_cell_length_a       6.69166
_cell_length_b       5.10538
_cell_length_c       11.6002
_cell_angle_alpha    90
_cell_angle_beta     90
_cell_angle_gamma    90

_symmetry_space_group_name_H-M    "P 1"
_symmetry_int_tables_number       1

loop_
  _symmetry_equiv_pos_as_xyz
  'x, y, z'

loop_
  _atom_site_label
  _atom_site_occupancy
  _atom_site_fract_x
  _atom_site_fract_y
  _atom_site_fract_z
  _atom_site_thermal_displace_type
  _atom_site_B_iso_or_equiv
  _atom_site_type_symbol
  Cu1      1.0000 0.00000  0.00000  0.00000  Biso   1.000  Cu
  Cu2      1.0000 0.50000  0.00000  0.50000  Biso   1.000  Cu
  O1       1.0000 0.00000  0.67307  0.29713  Biso   1.000  O
  O2       1.0000 0.50000  0.32693  0.79713  Biso   1.000  O
  O3       1.0000 0.50000  0.67307  0.20287  Biso   1.000  O
  O4       1.0000 0.00000  0.32693  0.70287  Biso   1.000  O
  O5       1.0000 0.00000  0.59037  0.11102  Biso   1.000  O
  O6       1.0000 0.50000  0.40963  0.61102  Biso   1.000  O
  O7       1.0000 0.50000  0.59037  0.38898  Biso   1.000  O
  O8       1.0000 0.00000  0.40963  0.88898  Biso   1.000  O
  N1       1.0000 0.00000  0.74057  0.19615  Biso   1.000  N
  N2       1.0000 0.50000  0.25943  0.69615  Biso   1.000  N
  N3       1.0000 0.50000  0.74057  0.30385  Biso   1.000  N
  N4       1.0000 0.00000  0.25943  0.80385  Biso   1.000  N
  O9       1.0000 0.00000  0.98942  0.17277  Biso   1.000  O
  O10      1.0000 0.50000  0.01058  0.67277  Biso   1.000  O
  O11      1.0000 0.50000  0.98942  0.32723  Biso   1.000  O
  O12      1.0000 0.00000  0.01058  0.82723  Biso   1.000  O
  C1       1.0000 0.39437  0.82726  0.93508  Biso   1.000  C
  C2       1.0000 0.10563  0.17274  0.43508  Biso   1.000  C
  C3       1.0000 0.10563  0.82726  0.56492  Biso   1.000  C
  C4       1.0000 0.39437  0.17274  0.06492  Biso   1.000  C
  C5       1.0000 0.60563  0.17274  0.06492  Biso   1.000  C
  C6       1.0000 0.89437  0.82726  0.56492  Biso   1.000  C
  C7       1.0000 0.89437  0.17274  0.43508  Biso   1.000  C
  C8       1.0000 0.60563  0.82726  0.93508  Biso   1.000  C
  H1       1.0000 0.31154  0.69101  0.88348  Biso   1.000  H
  H2       1.0000 0.18846  0.30899  0.38348  Biso   1.000  H
  H3       1.0000 0.18846  0.69101  0.61652  Biso   1.000  H
  H4       1.0000 0.31154  0.30899  0.11652  Biso   1.000  H
  H5       1.0000 0.68846  0.30899  0.11652  Biso   1.000  H
  H6       1.0000 0.81154  0.69101  0.61652  Biso   1.000  H
  H7       1.0000 0.81154  0.30899  0.38348  Biso   1.000  H
  H8       1.0000 0.68846  0.69101  0.88348  Biso   1.000  H
  N5       1.0000 0.29468  0.00000  0.00000  Biso   1.000  N
  N6       1.0000 0.20532  0.00000  0.50000  Biso   1.000  N
  N7       1.0000 0.70532  0.00000  0.00000  Biso   1.000  N
  N8       1.0000 0.79468  0.00000  0.50000  Biso   1.000  N
