data_image0
_cell_length_a       7.0857
_cell_length_b       10.333
_cell_length_c       11.285
_cell_angle_alpha    71.599
_cell_angle_beta     83.047
_cell_angle_gamma    83.238

_symmetry_space_group_name_H-M    "P 1"
_symmetry_int_tables_number       1

loop_
  _symmetry_equiv_pos_as_xyz
  'x, y, z'

loop_
  _atom_site_label
  _atom_site_occupancy
  _atom_site_fract_x
  _atom_site_fract_y
  _atom_site_fract_z
  _atom_site_thermal_displace_type
  _atom_site_B_iso_or_equiv
  _atom_site_type_symbol
  Cu1      1.0000 0.44587  0.25130  0.64775  Biso   1.000  Cu
  Cu2      1.0000 0.55413  0.74870  0.35225  Biso   1.000  Cu
  Cl1      1.0000 0.72336  0.24361  0.33013  Biso   1.000  Cl
  Cl2      1.0000 0.27664  0.75639  0.66987  Biso   1.000  Cl
  O1       1.0000 0.24770  0.33591  0.80519  Biso   1.000  O
  O2       1.0000 0.75230  0.66409  0.19481  Biso   1.000  O
  O3       1.0000 0.76280  0.00253  0.06675  Biso   1.000  O
  O4       1.0000 0.23720  0.99747  0.93325  Biso   1.000  O
  O5       1.0000 0.62260  0.39725  0.63047  Biso   1.000  O
  O6       1.0000 0.37740  0.60275  0.36953  Biso   1.000  O
  O7       1.0000 0.64940  0.15338  0.44828  Biso   1.000  O
  O8       1.0000 0.35060  0.84662  0.55172  Biso   1.000  O
  O9       1.0000 0.77350  0.36601  0.34748  Biso   1.000  O
  O10      1.0000 0.22650  0.63399  0.65252  Biso   1.000  O
  O11      1.0000 0.58230  0.27800  0.24260  Biso   1.000  O
  O12      1.0000 0.41770  0.72200  0.75740  Biso   1.000  O
  O13      1.0000 0.89000  0.17390  0.28510  Biso   1.000  O
  O14      1.0000 0.11000  0.82610  0.71490  Biso   1.000  O
  N1       1.0000 0.57570  0.11207  0.78297  Biso   1.000  N
  N2       1.0000 0.42430  0.88793  0.21703  Biso   1.000  N
  N3       1.0000 0.89810  0.92111  0.90744  Biso   1.000  N
  N4       1.0000 0.10190  0.07889  0.09256  Biso   1.000  N
  N5       1.0000 0.66330  0.61476  0.49263  Biso   1.000  N
  N6       1.0000 0.33670  0.38524  0.50737  Biso   1.000  N
  N7       1.0000 0.74810  0.86600  0.37570  Biso   1.000  N
  N8       1.0000 0.25190  0.13400  0.62430  Biso   1.000  N
  C1       1.0000 0.64990  0.98100  0.76050  Biso   1.000  C
  C2       1.0000 0.35010  0.01900  0.23950  Biso   1.000  C
  C3       1.0000 0.72930  0.87630  0.87490  Biso   1.000  C
  C4       1.0000 0.27070  0.12370  0.12510  Biso   1.000  C
  C5       1.0000 0.90090  0.97970  0.99590  Biso   1.000  C
  C6       1.0000 0.09910  0.02030  0.00410  Biso   1.000  C
  C7       1.0000 0.58290  0.50220  0.53649  Biso   1.000  C
  C8       1.0000 0.41710  0.49780  0.46351  Biso   1.000  C
  C9       1.0000 0.81850  0.65360  0.54480  Biso   1.000  C
  C10      1.0000 0.18150  0.34640  0.45520  Biso   1.000  C
  C11      1.0000 0.90120  0.77360  0.44410  Biso   1.000  C
  C12      1.0000 0.09880  0.22640  0.55590  Biso   1.000  C
  O15      1.0000 0.15300  0.69277  0.17184  Biso   1.000  O
  O16      1.0000 0.84700  0.30723  0.82816  Biso   1.000  O
  C13      1.0000 0.23460  0.50650  0.07970  Biso   1.000  C
  C14      1.0000 0.76540  0.49350  0.92030  Biso   1.000  C
  C15      1.0000 0.25130  0.65090  0.06820  Biso   1.000  C
  C16      1.0000 0.74870  0.34910  0.93180  Biso   1.000  C
  H1       1.0000 0.25400  0.41400  0.77300  Biso   1.000  H
  H2       1.0000 0.74600  0.58600  0.22700  Biso   1.000  H
  H3       1.0000 0.14300  0.32800  0.81800  Biso   1.000  H
  H4       1.0000 0.85700  0.67200  0.18200  Biso   1.000  H
  H5       1.0000 0.50000  0.09500  0.84000  Biso   1.000  H
  H6       1.0000 0.50000  0.90500  0.16000  Biso   1.000  H
  H7       1.0000 0.66300  0.14400  0.80500  Biso   1.000  H
  H8       1.0000 0.33700  0.85600  0.19500  Biso   1.000  H
  H9       1.0000 0.75170  0.99890  0.69050  Biso   1.000  H
  H10      1.0000 0.24830  0.00110  0.30950  Biso   1.000  H
  H11      1.0000 0.54580  0.94250  0.73490  Biso   1.000  H
  H12      1.0000 0.45420  0.05750  0.26510  Biso   1.000  H
  H13      1.0000 0.99000  0.91300  0.87200  Biso   1.000  H
  H14      1.0000 0.01000  0.08700  0.12800  Biso   1.000  H
  H15      1.0000 0.63050  0.86210  0.94670  Biso   1.000  H
  H16      1.0000 0.36950  0.13790  0.05330  Biso   1.000  H
  H17      1.0000 0.76280  0.78780  0.85770  Biso   1.000  H
  H18      1.0000 0.23720  0.21220  0.14230  Biso   1.000  H
  H19      1.0000 0.79200  0.91500  0.30800  Biso   1.000  H
  H20      1.0000 0.20800  0.08500  0.69200  Biso   1.000  H
  H21      1.0000 0.69200  0.91600  0.41700  Biso   1.000  H
  H22      1.0000 0.30800  0.08400  0.58300  Biso   1.000  H
  H23      1.0000 0.76990  0.68000  0.62070  Biso   1.000  H
  H24      1.0000 0.23010  0.32000  0.37930  Biso   1.000  H
  H25      1.0000 0.91730  0.57610  0.56810  Biso   1.000  H
  H26      1.0000 0.08270  0.42390  0.43190  Biso   1.000  H
  H27      1.0000 0.99230  0.73950  0.38470  Biso   1.000  H
  H28      1.0000 0.00770  0.26050  0.61530  Biso   1.000  H
  H29      1.0000 0.97170  0.82450  0.48300  Biso   1.000  H
  H30      1.0000 0.02830  0.17550  0.51700  Biso   1.000  H
  H31      1.0000 0.28950  0.48810  0.00200  Biso   1.000  H
  H32      1.0000 0.71050  0.51190  0.99800  Biso   1.000  H
  H33      1.0000 0.09970  0.48830  0.09460  Biso   1.000  H
  H34      1.0000 0.90030  0.51170  0.90540  Biso   1.000  H
  H35      1.0000 0.30330  0.44700  0.15000  Biso   1.000  H
  H36      1.0000 0.69670  0.55300  0.85000  Biso   1.000  H
  H37      1.0000 0.20000  0.66100  0.22500  Biso   1.000  H
  H38      1.0000 0.80000  0.33900  0.77500  Biso   1.000  H
  H39      1.0000 0.38810  0.66580  0.06220  Biso   1.000  H
  H40      1.0000 0.61190  0.33420  0.93780  Biso   1.000  H
  H41      1.0000 0.19930  0.70970  0.98950  Biso   1.000  H
  H42      1.0000 0.80070  0.29030  0.01050  Biso   1.000  H
