data_image0
_cell_length_a       9.168
_cell_length_b       10.344
_cell_length_c       13.087
_cell_angle_alpha    91.34
_cell_angle_beta     96.76
_cell_angle_gamma    111.68

_symmetry_space_group_name_H-M    "P 1"
_symmetry_int_tables_number       1

loop_
  _symmetry_equiv_pos_as_xyz
  'x, y, z'

loop_
  _atom_site_label
  _atom_site_occupancy
  _atom_site_fract_x
  _atom_site_fract_y
  _atom_site_fract_z
  _atom_site_thermal_displace_type
  _atom_site_B_iso_or_equiv
  _atom_site_type_symbol
  Cu1      1.0000 0.00000  0.00000  0.00000  Biso   1.000  Cu
  Cu2      1.0000 0.72013  0.74228  0.79306  Biso   1.000  Cu
  Cu3      1.0000 0.27987  0.25772  0.20694  Biso   1.000  Cu
  Cl1      1.0000 0.70340  0.30770  0.94476  Biso   1.000  Cl
  Cl2      1.0000 0.29660  0.69230  0.05524  Biso   1.000  Cl
  Cl3      1.0000 0.98530  0.03110  0.62241  Biso   1.000  Cl
  Cl4      1.0000 0.01470  0.96890  0.37759  Biso   1.000  Cl
  Cl5      1.0000 0.74750  0.71750  0.16951  Biso   1.000  Cl
  Cl6      1.0000 0.25250  0.28250  0.83049  Biso   1.000  Cl
  O1       1.0000 0.87300  0.11100  0.98290  Biso   1.000  O
  O2       1.0000 0.12700  0.88900  0.01710  Biso   1.000  O
  O3       1.0000 0.97060  0.98390  0.84850  Biso   1.000  O
  O4       1.0000 0.02940  0.01610  0.15150  Biso   1.000  O
  O5       1.0000 0.69060  0.33540  0.71860  Biso   1.000  O
  O6       1.0000 0.30940  0.66460  0.28140  Biso   1.000  O
  O7       1.0000 0.82630  0.23030  0.58470  Biso   1.000  O
  O8       1.0000 0.17370  0.76970  0.41530  Biso   1.000  O
  O9       1.0000 0.73110  0.73060  0.94100  Biso   1.000  O
  O10      1.0000 0.26890  0.26940  0.05900  Biso   1.000  O
  O11      1.0000 0.48530  0.45850  0.19880  Biso   1.000  O
  O12      1.0000 0.51470  0.54150  0.80120  Biso   1.000  O
  N1       1.0000 0.55930  0.83720  0.77320  Biso   1.000  N
  N2       1.0000 0.44070  0.16280  0.22680  Biso   1.000  N
  N3       1.0000 0.68960  0.74180  0.64580  Biso   1.000  N
  N4       1.0000 0.31040  0.25820  0.35420  Biso   1.000  N
  N5       1.0000 0.88760  0.66730  0.76280  Biso   1.000  N
  N6       1.0000 0.11240  0.33270  0.23720  Biso   1.000  N
  C1       1.0000 0.85300  0.14230  0.88990  Biso   1.000  C
  C2       1.0000 0.14700  0.85770  0.11010  Biso   1.000  C
  C3       1.0000 0.91270  0.07090  0.81120  Biso   1.000  C
  C4       1.0000 0.08730  0.92910  0.18880  Biso   1.000  C
  C5       1.0000 0.90230  0.10110  0.71050  Biso   1.000  C
  C6       1.0000 0.09770  0.89890  0.28950  Biso   1.000  C
  C7       1.0000 0.82990  0.19460  0.67240  Biso   1.000  C
  C8       1.0000 0.17010  0.80540  0.32760  Biso   1.000  C
  C9       1.0000 0.75990  0.26190  0.75220  Biso   1.000  C
  C10      1.0000 0.24010  0.73810  0.24780  Biso   1.000  C
  C11      1.0000 0.77800  0.22930  0.85660  Biso   1.000  C
  C12      1.0000 0.22200  0.77070  0.14340  Biso   1.000  C
  C13      1.0000 0.49670  0.48190  0.10890  Biso   1.000  C
  C14      1.0000 0.50330  0.51810  0.89110  Biso   1.000  C
  C15      1.0000 0.62890  0.62410  0.97320  Biso   1.000  C
  C16      1.0000 0.37110  0.37590  0.02680  Biso   1.000  C
  C17      1.0000 0.61710  0.59870  0.07640  Biso   1.000  C
  C18      1.0000 0.38290  0.40130  0.92360  Biso   1.000  C
  C19      1.0000 0.49950  0.88720  0.84580  Biso   1.000  C
  C20      1.0000 0.50050  0.11280  0.15420  Biso   1.000  C
  C21      1.0000 0.38750  0.94500  0.82360  Biso   1.000  C
  C22      1.0000 0.61250  0.05500  0.17640  Biso   1.000  C
  C23      1.0000 0.33250  0.94750  0.72190  Biso   1.000  C
  C24      1.0000 0.66750  0.05250  0.27810  Biso   1.000  C
  C25      1.0000 0.39130  0.89530  0.64650  Biso   1.000  C
  C26      1.0000 0.60870  0.10470  0.35350  Biso   1.000  C
  C27      1.0000 0.50530  0.83880  0.67330  Biso   1.000  C
  C28      1.0000 0.49470  0.16120  0.32670  Biso   1.000  C
  C29      1.0000 0.57440  0.77870  0.59830  Biso   1.000  C
  C30      1.0000 0.42560  0.22130  0.40170  Biso   1.000  C
  C31      1.0000 0.53500  0.75460  0.49480  Biso   1.000  C
  C32      1.0000 0.46500  0.24540  0.50520  Biso   1.000  C
  C33      1.0000 0.61260  0.69310  0.43810  Biso   1.000  C
  C34      1.0000 0.38740  0.30690  0.56190  Biso   1.000  C
  C35      1.0000 0.73910  0.66260  0.48610  Biso   1.000  C
  C36      1.0000 0.26090  0.33740  0.51390  Biso   1.000  C
  C37      1.0000 0.77160  0.68420  0.59290  Biso   1.000  C
  C38      1.0000 0.22840  0.31580  0.40710  Biso   1.000  C
  C39      1.0000 0.89140  0.64990  0.66030  Biso   1.000  C
  C40      1.0000 0.10860  0.35010  0.33970  Biso   1.000  C
  C41      1.0000 0.00320  0.60670  0.62540  Biso   1.000  C
  C42      1.0000 0.99680  0.39330  0.37460  Biso   1.000  C
  C43      1.0000 0.10190  0.56970  0.69610  Biso   1.000  C
  C44      1.0000 0.89810  0.43030  0.30390  Biso   1.000  C
  C45      1.0000 0.09260  0.58470  0.79980  Biso   1.000  C
  C46      1.0000 0.90740  0.41530  0.20020  Biso   1.000  C
  C47      1.0000 0.98570  0.63430  0.83030  Biso   1.000  C
  C48      1.0000 0.01430  0.36570  0.16970  Biso   1.000  C
  H1       1.0000 0.53600  0.88240  0.91610  Biso   1.000  H
  H2       1.0000 0.46400  0.11760  0.08390  Biso   1.000  H
  H3       1.0000 0.34960  0.98240  0.87710  Biso   1.000  H
  H4       1.0000 0.65040  0.01760  0.12290  Biso   1.000  H
  H5       1.0000 0.25350  0.98500  0.70380  Biso   1.000  H
  H6       1.0000 0.74650  0.01500  0.29620  Biso   1.000  H
  H7       1.0000 0.35430  0.89780  0.57600  Biso   1.000  H
  H8       1.0000 0.64570  0.10220  0.42400  Biso   1.000  H
  H9       1.0000 0.45320  0.78030  0.46090  Biso   1.000  H
  H10      1.0000 0.54680  0.21970  0.53910  Biso   1.000  H
  H11      1.0000 0.57980  0.67140  0.36610  Biso   1.000  H
  H12      1.0000 0.42020  0.32860  0.63390  Biso   1.000  H
  H13      1.0000 0.80060  0.62860  0.44740  Biso   1.000  H
  H14      1.0000 0.19940  0.37140  0.55260  Biso   1.000  H
  H15      1.0000 0.01230  0.60280  0.55390  Biso   1.000  H
  H16      1.0000 0.98770  0.39720  0.44610  Biso   1.000  H
  H17      1.0000 0.17550  0.53400  0.67360  Biso   1.000  H
  H18      1.0000 0.82450  0.46600  0.32640  Biso   1.000  H
  H19      1.0000 0.16050  0.56040  0.84950  Biso   1.000  H
  H20      1.0000 0.83950  0.43960  0.15050  Biso   1.000  H
  H21      1.0000 0.98100  0.64580  0.90190  Biso   1.000  H
  H22      1.0000 0.01900  0.35420  0.09810  Biso   1.000  H
