data_image0
_cell_length_a       12.856
_cell_length_b       14.594
_cell_length_c       9.7441
_cell_angle_alpha    90
_cell_angle_beta     107.27
_cell_angle_gamma    90

_symmetry_space_group_name_H-M    "P 1"
_symmetry_int_tables_number       1

loop_
  _symmetry_equiv_pos_as_xyz
  'x, y, z'

loop_
  _atom_site_label
  _atom_site_occupancy
  _atom_site_fract_x
  _atom_site_fract_y
  _atom_site_fract_z
  _atom_site_thermal_displace_type
  _atom_site_B_iso_or_equiv
  _atom_site_type_symbol
  Cu1      1.0000 0.83173  0.94163  0.08254  Biso   1.000  Cu
  Cu2      1.0000 0.16827  0.44163  0.41746  Biso   1.000  Cu
  Cu3      1.0000 0.16827  0.05837  0.91746  Biso   1.000  Cu
  Cu4      1.0000 0.83173  0.55837  0.58254  Biso   1.000  Cu
  O1       1.0000 0.95640  0.87216  0.04770  Biso   1.000  O
  O2       1.0000 0.04360  0.37216  0.45230  Biso   1.000  O
  O3       1.0000 0.04360  0.12784  0.95230  Biso   1.000  O
  O4       1.0000 0.95640  0.62784  0.54770  Biso   1.000  O
  N1       1.0000 0.69790  0.93930  0.15270  Biso   1.000  N
  N2       1.0000 0.30210  0.43930  0.34730  Biso   1.000  N
  N3       1.0000 0.30210  0.06070  0.84730  Biso   1.000  N
  N4       1.0000 0.69790  0.56070  0.65270  Biso   1.000  N
  N5       1.0000 0.72620  0.88430  0.91220  Biso   1.000  N
  N6       1.0000 0.27380  0.38430  0.58780  Biso   1.000  N
  N7       1.0000 0.27380  0.11570  0.08780  Biso   1.000  N
  N8       1.0000 0.72620  0.61570  0.41220  Biso   1.000  N
  N9       1.0000 0.07550  0.51730  0.26100  Biso   1.000  N
  N10      1.0000 0.92450  0.01730  0.23900  Biso   1.000  N
  N11      1.0000 0.92450  0.48270  0.73900  Biso   1.000  N
  N12      1.0000 0.07550  0.98270  0.76100  Biso   1.000  N
  O5       1.0000 0.83520  0.06489  0.94100  Biso   1.000  O
  O6       1.0000 0.16480  0.56489  0.55900  Biso   1.000  O
  O7       1.0000 0.16480  0.93511  0.05900  Biso   1.000  O
  O8       1.0000 0.83520  0.43511  0.44100  Biso   1.000  O
  N13      1.0000 0.01910  0.63200  0.11730  Biso   1.000  N
  N14      1.0000 0.98090  0.13200  0.38270  Biso   1.000  N
  N15      1.0000 0.98090  0.36800  0.88270  Biso   1.000  N
  N16      1.0000 0.01910  0.86800  0.61730  Biso   1.000  N
  N17      1.0000 0.93550  0.57110  0.08350  Biso   1.000  N
  N18      1.0000 0.06450  0.07110  0.41650  Biso   1.000  N
  N19      1.0000 0.06450  0.42890  0.91650  Biso   1.000  N
  N20      1.0000 0.93550  0.92890  0.58350  Biso   1.000  N
  C1       1.0000 0.97310  0.50310  0.17170  Biso   1.000  C
  C2       1.0000 0.02690  0.00310  0.32830  Biso   1.000  C
  C3       1.0000 0.02690  0.49690  0.82830  Biso   1.000  C
  C4       1.0000 0.97310  0.99690  0.67170  Biso   1.000  C
  H1       1.0000 0.93350  0.45000  0.17330  Biso   1.000  H
  H2       1.0000 0.06650  0.95000  0.32670  Biso   1.000  H
  H3       1.0000 0.06650  0.55000  0.82670  Biso   1.000  H
  H4       1.0000 0.93350  0.05000  0.67330  Biso   1.000  H
  C5       1.0000 0.01280  0.71980  0.04340  Biso   1.000  C
  C6       1.0000 0.98720  0.21980  0.45660  Biso   1.000  C
  C7       1.0000 0.98720  0.28020  0.95660  Biso   1.000  C
  C8       1.0000 0.01280  0.78020  0.54340  Biso   1.000  C
  H5       1.0000 0.97800  0.71070  0.94150  Biso   1.000  H
  H6       1.0000 0.02200  0.21070  0.55850  Biso   1.000  H
  H7       1.0000 0.02200  0.28930  0.05850  Biso   1.000  H
  H8       1.0000 0.97800  0.78930  0.44150  Biso   1.000  H
  H9       1.0000 0.08610  0.74200  0.05530  Biso   1.000  H
  H10      1.0000 0.91390  0.24200  0.44470  Biso   1.000  H
  H11      1.0000 0.91390  0.25800  0.94470  Biso   1.000  H
  H12      1.0000 0.08610  0.75800  0.55530  Biso   1.000  H
  C9       1.0000 0.10020  0.60040  0.22390  Biso   1.000  C
  C10      1.0000 0.89980  0.10040  0.27610  Biso   1.000  C
  C11      1.0000 0.89980  0.39960  0.77610  Biso   1.000  C
  C12      1.0000 0.10020  0.89960  0.72390  Biso   1.000  C
  H13      1.0000 0.16490  0.63140  0.26680  Biso   1.000  H
  H14      1.0000 0.83510  0.13140  0.23320  Biso   1.000  H
  H15      1.0000 0.83510  0.36860  0.73320  Biso   1.000  H
  H16      1.0000 0.16490  0.86860  0.76680  Biso   1.000  H
  O9       1.0000 0.89660  0.77304  0.17920  Biso   1.000  O
  O10      1.0000 0.10340  0.27304  0.32080  Biso   1.000  O
  O11      1.0000 0.10340  0.22696  0.82080  Biso   1.000  O
  O12      1.0000 0.89660  0.72696  0.67920  Biso   1.000  O
  C13      1.0000 0.95010  0.79200  0.09840  Biso   1.000  C
  C14      1.0000 0.04990  0.29200  0.40160  Biso   1.000  C
  C15      1.0000 0.04990  0.20800  0.90160  Biso   1.000  C
  C16      1.0000 0.95010  0.70800  0.59840  Biso   1.000  C
  C17      1.0000 0.75030  0.86180  0.79270  Biso   1.000  C
  C18      1.0000 0.24970  0.36180  0.70730  Biso   1.000  C
  C19      1.0000 0.24970  0.13820  0.20730  Biso   1.000  C
  C20      1.0000 0.75030  0.63820  0.29270  Biso   1.000  C
  H17      1.0000 0.82200  0.86670  0.79100  Biso   1.000  H
  H18      1.0000 0.17800  0.36670  0.70900  Biso   1.000  H
  H19      1.0000 0.17800  0.13330  0.20900  Biso   1.000  H
  H20      1.0000 0.82200  0.63330  0.29100  Biso   1.000  H
  C21      1.0000 0.62340  0.87720  0.91830  Biso   1.000  C
  C22      1.0000 0.37660  0.37720  0.58170  Biso   1.000  C
  C23      1.0000 0.37660  0.12280  0.08170  Biso   1.000  C
  C24      1.0000 0.62340  0.62280  0.41830  Biso   1.000  C
  C25      1.0000 0.60010  0.95100  0.32570  Biso   1.000  C
  C26      1.0000 0.39990  0.45100  0.17430  Biso   1.000  C
  C27      1.0000 0.39990  0.04900  0.67430  Biso   1.000  C
  C28      1.0000 0.60010  0.54900  0.82570  Biso   1.000  C
  H21      1.0000 0.59900  0.96720  0.41760  Biso   1.000  H
  H22      1.0000 0.40100  0.46720  0.08240  Biso   1.000  H
  H23      1.0000 0.40100  0.03280  0.58240  Biso   1.000  H
  H24      1.0000 0.59900  0.53280  0.91760  Biso   1.000  H
  C29      1.0000 0.69370  0.96090  0.28460  Biso   1.000  C
  C30      1.0000 0.30630  0.46090  0.21540  Biso   1.000  C
  C31      1.0000 0.30630  0.03910  0.71540  Biso   1.000  C
  C32      1.0000 0.69370  0.53910  0.78460  Biso   1.000  C
  H25      1.0000 0.75620  0.98340  0.35120  Biso   1.000  H
  H26      1.0000 0.24380  0.48340  0.14880  Biso   1.000  H
  H27      1.0000 0.24380  0.01660  0.64880  Biso   1.000  H
  H28      1.0000 0.75620  0.51660  0.85120  Biso   1.000  H
  C33      1.0000 0.67170  0.83140  0.67090  Biso   1.000  C
  C34      1.0000 0.32830  0.33140  0.82910  Biso   1.000  C
  C35      1.0000 0.32830  0.16860  0.32910  Biso   1.000  C
  C36      1.0000 0.67170  0.66860  0.17090  Biso   1.000  C
  H29      1.0000 0.69020  0.81520  0.58890  Biso   1.000  H
  H30      1.0000 0.30980  0.31520  0.91110  Biso   1.000  H
  H31      1.0000 0.30980  0.18480  0.41110  Biso   1.000  H
  H32      1.0000 0.69020  0.68480  0.08890  Biso   1.000  H
  C37      1.0000 0.60880  0.90410  0.05660  Biso   1.000  C
  C38      1.0000 0.39120  0.40410  0.44340  Biso   1.000  C
  C39      1.0000 0.39120  0.09590  0.94340  Biso   1.000  C
  C40      1.0000 0.60880  0.59590  0.55660  Biso   1.000  C
  C41      1.0000 0.51180  0.89270  0.09060  Biso   1.000  C
  C42      1.0000 0.48820  0.39270  0.40940  Biso   1.000  C
  C43      1.0000 0.48820  0.10730  0.90940  Biso   1.000  C
  C44      1.0000 0.51180  0.60730  0.59060  Biso   1.000  C
  H33      1.0000 0.45010  0.86950  0.02330  Biso   1.000  H
  H34      1.0000 0.54990  0.36950  0.47670  Biso   1.000  H
  H35      1.0000 0.54990  0.13050  0.97670  Biso   1.000  H
  H36      1.0000 0.45010  0.63050  0.52330  Biso   1.000  H
  C45      1.0000 0.54050  0.84700  0.80020  Biso   1.000  C
  C46      1.0000 0.45950  0.34700  0.69980  Biso   1.000  C
  C47      1.0000 0.45950  0.15300  0.19980  Biso   1.000  C
  C48      1.0000 0.54050  0.65300  0.30020  Biso   1.000  C
  H37      1.0000 0.46970  0.84110  0.80500  Biso   1.000  H
  H38      1.0000 0.53030  0.34110  0.69500  Biso   1.000  H
  H39      1.0000 0.53030  0.15890  0.19500  Biso   1.000  H
  H40      1.0000 0.46970  0.65890  0.30500  Biso   1.000  H
  C49      1.0000 0.50910  0.91680  0.22720  Biso   1.000  C
  C50      1.0000 0.49090  0.41680  0.27280  Biso   1.000  C
  C51      1.0000 0.49090  0.08320  0.77280  Biso   1.000  C
  C52      1.0000 0.50910  0.58320  0.72720  Biso   1.000  C
  H41      1.0000 0.44510  0.90970  0.25200  Biso   1.000  H
  H42      1.0000 0.55490  0.40970  0.24800  Biso   1.000  H
  H43      1.0000 0.55490  0.09030  0.74800  Biso   1.000  H
  H44      1.0000 0.44510  0.59030  0.75200  Biso   1.000  H
  C53      1.0000 0.56560  0.82570  0.67390  Biso   1.000  C
  C54      1.0000 0.43440  0.32570  0.82610  Biso   1.000  C
  C55      1.0000 0.43440  0.17430  0.32610  Biso   1.000  C
  C56      1.0000 0.56560  0.67430  0.17390  Biso   1.000  C
  H45      1.0000 0.51080  0.80780  0.59230  Biso   1.000  H
  H46      1.0000 0.48920  0.30780  0.90770  Biso   1.000  H
  H47      1.0000 0.48920  0.19220  0.40770  Biso   1.000  H
  H48      1.0000 0.51080  0.69220  0.09230  Biso   1.000  H
  F1       1.0000 0.16600  0.80770  0.33100  Biso   1.000  F
  F2       1.0000 0.83400  0.30770  0.16900  Biso   1.000  F
  F3       1.0000 0.83400  0.19230  0.66900  Biso   1.000  F
  F4       1.0000 0.16600  0.69230  0.83100  Biso   1.000  F
  B1       1.0000 0.27040  0.82650  0.41140  Biso   1.000  B
  B2       1.0000 0.72960  0.32650  0.08860  Biso   1.000  B
  B3       1.0000 0.72960  0.17350  0.58860  Biso   1.000  B
  B4       1.0000 0.27040  0.67350  0.91140  Biso   1.000  B
  F5       1.0000 0.27480  0.84150  0.55070  Biso   1.000  F
  F6       1.0000 0.72520  0.34150  0.94930  Biso   1.000  F
  F7       1.0000 0.72520  0.15850  0.44930  Biso   1.000  F
  F8       1.0000 0.27480  0.65850  0.05070  Biso   1.000  F
  F9       1.0000 0.33660  0.75810  0.40020  Biso   1.000  F
  F10      1.0000 0.66340  0.25810  0.09980  Biso   1.000  F
  F11      1.0000 0.66340  0.24190  0.59980  Biso   1.000  F
  F12      1.0000 0.33660  0.74190  0.90020  Biso   1.000  F
  F13      1.0000 0.30060  0.90760  0.35830  Biso   1.000  F
  F14      1.0000 0.69940  0.40760  0.14170  Biso   1.000  F
  F15      1.0000 0.69940  0.09240  0.64170  Biso   1.000  F
  F16      1.0000 0.30060  0.59240  0.85830  Biso   1.000  F
