data_image0
_cell_length_a       13.04
_cell_length_b       14.57
_cell_length_c       9.771
_cell_angle_alpha    90
_cell_angle_beta     107.17
_cell_angle_gamma    90

_symmetry_space_group_name_H-M    "P 1"
_symmetry_int_tables_number       1

loop_
  _symmetry_equiv_pos_as_xyz
  'x, y, z'

loop_
  _atom_site_label
  _atom_site_occupancy
  _atom_site_fract_x
  _atom_site_fract_y
  _atom_site_fract_z
  _atom_site_thermal_displace_type
  _atom_site_B_iso_or_equiv
  _atom_site_type_symbol
  Cu1      1.0000 0.33486  0.05951  0.08366  Biso   1.000  Cu
  Cu2      1.0000 0.66514  0.55951  0.41634  Biso   1.000  Cu
  Cu3      1.0000 0.66514  0.94049  0.91634  Biso   1.000  Cu
  Cu4      1.0000 0.33486  0.44049  0.58366  Biso   1.000  Cu
  O1       1.0000 0.45864  0.12769  0.04880  Biso   1.000  O
  O2       1.0000 0.54136  0.62769  0.45120  Biso   1.000  O
  O3       1.0000 0.54136  0.87231  0.95120  Biso   1.000  O
  O4       1.0000 0.45864  0.37231  0.54880  Biso   1.000  O
  N1       1.0000 0.23240  0.11582  0.91230  Biso   1.000  N
  N2       1.0000 0.76760  0.61582  0.58770  Biso   1.000  N
  N3       1.0000 0.76760  0.88418  0.08770  Biso   1.000  N
  N4       1.0000 0.23240  0.38418  0.41230  Biso   1.000  N
  N5       1.0000 0.57520  0.48385  0.25840  Biso   1.000  N
  N6       1.0000 0.42480  0.98385  0.24160  Biso   1.000  N
  N7       1.0000 0.42480  0.51615  0.74160  Biso   1.000  N
  N8       1.0000 0.57520  0.01615  0.75840  Biso   1.000  N
  N9       1.0000 0.43690  0.42930  0.08360  Biso   1.000  N
  N10      1.0000 0.56310  0.92930  0.41640  Biso   1.000  N
  N11      1.0000 0.56310  0.57070  0.91640  Biso   1.000  N
  N12      1.0000 0.43690  0.07070  0.58360  Biso   1.000  N
  N13      1.0000 0.52010  0.36861  0.11650  Biso   1.000  N
  N14      1.0000 0.47990  0.86861  0.38350  Biso   1.000  N
  N15      1.0000 0.47990  0.63139  0.88350  Biso   1.000  N
  N16      1.0000 0.52010  0.13139  0.61650  Biso   1.000  N
  O5       1.0000 0.33660  0.93469  0.94680  Biso   1.000  O
  O6       1.0000 0.66340  0.43469  0.55320  Biso   1.000  O
  O7       1.0000 0.66340  0.06531  0.05320  Biso   1.000  O
  O8       1.0000 0.33660  0.56531  0.44680  Biso   1.000  O
  H1       1.0000 0.39850  0.91320  0.95350  Biso   1.000  H
  H2       1.0000 0.60150  0.41320  0.54650  Biso   1.000  H
  H3       1.0000 0.60150  0.08680  0.04650  Biso   1.000  H
  H4       1.0000 0.39850  0.58680  0.45350  Biso   1.000  H
  H5       1.0000 0.29280  0.92460  0.86460  Biso   1.000  H
  H6       1.0000 0.70720  0.42460  0.63540  Biso   1.000  H
  H7       1.0000 0.70720  0.07540  0.13540  Biso   1.000  H
  H8       1.0000 0.29280  0.57540  0.36460  Biso   1.000  H
  N17      1.0000 0.20120  0.06281  0.15080  Biso   1.000  N
  N18      1.0000 0.79880  0.56281  0.34920  Biso   1.000  N
  N19      1.0000 0.79880  0.93719  0.84920  Biso   1.000  N
  N20      1.0000 0.20120  0.43719  0.65080  Biso   1.000  N
  O9       1.0000 0.40140  0.22734  0.18150  Biso   1.000  O
  O10      1.0000 0.59860  0.72734  0.31850  Biso   1.000  O
  O11      1.0000 0.59860  0.77266  0.81850  Biso   1.000  O
  O12      1.0000 0.40140  0.27266  0.68150  Biso   1.000  O
  C1       1.0000 0.45320  0.20840  0.09940  Biso   1.000  C
  C2       1.0000 0.54680  0.70840  0.40060  Biso   1.000  C
  C3       1.0000 0.54680  0.79160  0.90060  Biso   1.000  C
  C4       1.0000 0.45320  0.29160  0.59940  Biso   1.000  C
  C5       1.0000 0.47370  0.49740  0.17160  Biso   1.000  C
  C6       1.0000 0.52630  0.99740  0.32840  Biso   1.000  C
  C7       1.0000 0.52630  0.50260  0.82840  Biso   1.000  C
  C8       1.0000 0.47370  0.00260  0.67160  Biso   1.000  C
  H9       1.0000 0.43410  0.55010  0.17440  Biso   1.000  H
  H10      1.0000 0.56590  0.05010  0.32560  Biso   1.000  H
  H11      1.0000 0.56590  0.44990  0.82560  Biso   1.000  H
  H12      1.0000 0.43410  0.94990  0.67440  Biso   1.000  H
  C9       1.0000 0.51440  0.28090  0.04400  Biso   1.000  C
  C10      1.0000 0.48560  0.78090  0.45600  Biso   1.000  C
  C11      1.0000 0.48560  0.71910  0.95600  Biso   1.000  C
  C12      1.0000 0.51440  0.21910  0.54400  Biso   1.000  C
  H13      1.0000 0.58670  0.25900  0.05580  Biso   1.000  H
  H14      1.0000 0.41330  0.75900  0.44420  Biso   1.000  H
  H15      1.0000 0.41330  0.74100  0.94420  Biso   1.000  H
  H16      1.0000 0.58670  0.24100  0.55580  Biso   1.000  H
  H17      1.0000 0.47990  0.28970  0.94240  Biso   1.000  H
  H18      1.0000 0.52010  0.78970  0.55760  Biso   1.000  H
  H19      1.0000 0.52010  0.71030  0.05760  Biso   1.000  H
  H20      1.0000 0.47990  0.21030  0.44240  Biso   1.000  H
  C13      1.0000 0.01720  0.10710  0.08410  Biso   1.000  C
  C14      1.0000 0.98280  0.60710  0.41590  Biso   1.000  C
  C15      1.0000 0.98280  0.89290  0.91590  Biso   1.000  C
  C16      1.0000 0.01720  0.39290  0.58410  Biso   1.000  C
  H21      1.0000 0.95690  0.12940  0.01510  Biso   1.000  H
  H22      1.0000 0.04310  0.62940  0.48490  Biso   1.000  H
  H23      1.0000 0.04310  0.87060  0.98490  Biso   1.000  H
  H24      1.0000 0.95690  0.37060  0.51510  Biso   1.000  H
  C17      1.0000 0.11360  0.09610  0.05300  Biso   1.000  C
  C18      1.0000 0.88640  0.59610  0.44700  Biso   1.000  C
  C19      1.0000 0.88640  0.90390  0.94700  Biso   1.000  C
  C20      1.0000 0.11360  0.40390  0.55300  Biso   1.000  C
  C21      1.0000 0.12980  0.12220  0.91470  Biso   1.000  C
  C22      1.0000 0.87020  0.62220  0.58530  Biso   1.000  C
  C23      1.0000 0.87020  0.87780  0.08530  Biso   1.000  C
  C24      1.0000 0.12980  0.37780  0.41470  Biso   1.000  C
  C25      1.0000 0.25740  0.13880  0.79280  Biso   1.000  C
  C26      1.0000 0.74260  0.63880  0.70720  Biso   1.000  C
  C27      1.0000 0.74260  0.86120  0.20720  Biso   1.000  C
  C28      1.0000 0.25740  0.36120  0.29280  Biso   1.000  C
  H25      1.0000 0.32860  0.13560  0.79270  Biso   1.000  H
  H26      1.0000 0.67140  0.63560  0.70730  Biso   1.000  H
  H27      1.0000 0.67140  0.86440  0.20730  Biso   1.000  H
  H28      1.0000 0.32860  0.36440  0.29270  Biso   1.000  H
  C29      1.0000 0.10170  0.05180  0.31900  Biso   1.000  C
  C30      1.0000 0.89830  0.55180  0.18100  Biso   1.000  C
  C31      1.0000 0.89830  0.94820  0.68100  Biso   1.000  C
  C32      1.0000 0.10170  0.44820  0.81900  Biso   1.000  C
  H29      1.0000 0.09940  0.03630  0.41040  Biso   1.000  H
  H30      1.0000 0.90060  0.53630  0.08960  Biso   1.000  H
  H31      1.0000 0.90060  0.96370  0.58960  Biso   1.000  H
  H32      1.0000 0.09940  0.46370  0.91040  Biso   1.000  H
  C33      1.0000 0.18050  0.16710  0.67070  Biso   1.000  C
  C34      1.0000 0.81950  0.66710  0.82930  Biso   1.000  C
  C35      1.0000 0.81950  0.83290  0.32930  Biso   1.000  C
  C36      1.0000 0.18050  0.33290  0.17070  Biso   1.000  C
  H33      1.0000 0.19920  0.18230  0.58880  Biso   1.000  H
  H34      1.0000 0.80080  0.68230  0.91120  Biso   1.000  H
  H35      1.0000 0.80080  0.81770  0.41120  Biso   1.000  H
  H36      1.0000 0.19920  0.31770  0.08880  Biso   1.000  H
  C37      1.0000 0.60030  0.40160  0.22080  Biso   1.000  C
  C38      1.0000 0.39970  0.90160  0.27920  Biso   1.000  C
  C39      1.0000 0.39970  0.59840  0.77920  Biso   1.000  C
  C40      1.0000 0.60030  0.09840  0.72080  Biso   1.000  C
  H37      1.0000 0.66500  0.37150  0.26190  Biso   1.000  H
  H38      1.0000 0.33500  0.87150  0.23810  Biso   1.000  H
  H39      1.0000 0.33500  0.62850  0.73810  Biso   1.000  H
  H40      1.0000 0.66500  0.12850  0.76190  Biso   1.000  H
  C41      1.0000 0.19550  0.04200  0.28220  Biso   1.000  C
  C42      1.0000 0.80450  0.54200  0.21780  Biso   1.000  C
  C43      1.0000 0.80450  0.95800  0.71780  Biso   1.000  C
  C44      1.0000 0.19550  0.45800  0.78220  Biso   1.000  C
  H41      1.0000 0.25650  0.02040  0.35050  Biso   1.000  H
  H42      1.0000 0.74350  0.52040  0.14950  Biso   1.000  H
  H43      1.0000 0.74350  0.97960  0.64950  Biso   1.000  H
  H44      1.0000 0.25650  0.47960  0.85050  Biso   1.000  H
  C45      1.0000 0.04950  0.15060  0.79500  Biso   1.000  C
  C46      1.0000 0.95050  0.65060  0.70500  Biso   1.000  C
  C47      1.0000 0.95050  0.84940  0.20500  Biso   1.000  C
  C48      1.0000 0.04950  0.34940  0.29500  Biso   1.000  C
  H45      1.0000 0.97890  0.15500  0.79740  Biso   1.000  H
  H46      1.0000 0.02110  0.65500  0.70260  Biso   1.000  H
  H47      1.0000 0.02110  0.84500  0.20260  Biso   1.000  H
  H48      1.0000 0.97890  0.34500  0.29740  Biso   1.000  H
  C49      1.0000 0.01220  0.08440  0.21940  Biso   1.000  C
  C50      1.0000 0.98780  0.58440  0.28060  Biso   1.000  C
  C51      1.0000 0.98780  0.91560  0.78060  Biso   1.000  C
  C52      1.0000 0.01220  0.41560  0.71940  Biso   1.000  C
  H49      1.0000 0.94840  0.09130  0.24240  Biso   1.000  H
  H50      1.0000 0.05160  0.59130  0.25760  Biso   1.000  H
  H51      1.0000 0.05160  0.90870  0.75760  Biso   1.000  H
  H52      1.0000 0.94840  0.40870  0.74240  Biso   1.000  H
  C53      1.0000 0.07590  0.17250  0.67170  Biso   1.000  C
  C54      1.0000 0.92410  0.67250  0.82830  Biso   1.000  C
  C55      1.0000 0.92410  0.82750  0.32830  Biso   1.000  C
  C56      1.0000 0.07590  0.32750  0.17170  Biso   1.000  C
  H53      1.0000 0.02280  0.19080  0.58970  Biso   1.000  H
  H54      1.0000 0.97720  0.69080  0.91030  Biso   1.000  H
  H55      1.0000 0.97720  0.80920  0.41030  Biso   1.000  H
  H56      1.0000 0.02280  0.30920  0.08970  Biso   1.000  H
  Cl1      1.0000 0.77626  0.32835  0.91174  Biso   1.000  Cl
  Cl2      1.0000 0.22374  0.82835  0.58826  Biso   1.000  Cl
  Cl3      1.0000 0.22374  0.67165  0.08826  Biso   1.000  Cl
  Cl4      1.0000 0.77626  0.17165  0.41174  Biso   1.000  Cl
  O13      1.0000 0.66910  0.30620  0.83260  Biso   1.000  O
  O14      1.0000 0.33090  0.80620  0.66740  Biso   1.000  O
  O15      1.0000 0.33090  0.69380  0.16740  Biso   1.000  O
  O16      1.0000 0.66910  0.19380  0.33260  Biso   1.000  O
  O17      1.0000 0.78430  0.33940  0.05770  Biso   1.000  O
  O18      1.0000 0.21570  0.83940  0.44230  Biso   1.000  O
  O19      1.0000 0.21570  0.66060  0.94230  Biso   1.000  O
  O20      1.0000 0.78430  0.16060  0.55770  Biso   1.000  O
  O21      1.0000 0.84650  0.26110  0.89240  Biso   1.000  O
  O22      1.0000 0.15350  0.76110  0.60760  Biso   1.000  O
  O23      1.0000 0.15350  0.73890  0.10760  Biso   1.000  O
  O24      1.0000 0.84650  0.23890  0.39240  Biso   1.000  O
  O25      1.0000 0.80300  0.41450  0.85790  Biso   1.000  O
  O26      1.0000 0.19700  0.91450  0.64210  Biso   1.000  O
  O27      1.0000 0.19700  0.58550  0.14210  Biso   1.000  O
  O28      1.0000 0.80300  0.08550  0.35790  Biso   1.000  O
