data_image0
_cell_length_a       8.3367
_cell_length_b       9.3131
_cell_length_c       8.4838
_cell_angle_alpha    90
_cell_angle_beta     92.352
_cell_angle_gamma    90

_symmetry_space_group_name_H-M    "P 1"
_symmetry_int_tables_number       1

loop_
  _symmetry_equiv_pos_as_xyz
  'x, y, z'

loop_
  _atom_site_label
  _atom_site_occupancy
  _atom_site_fract_x
  _atom_site_fract_y
  _atom_site_fract_z
  _atom_site_thermal_displace_type
  _atom_site_B_iso_or_equiv
  _atom_site_type_symbol
  Cu1      1.0000 0.12279  0.23821  0.89698  Biso   1.000  Cu
  Cu2      1.0000 0.87721  0.73821  0.60302  Biso   1.000  Cu
  Cu3      1.0000 0.87721  0.76179  0.10302  Biso   1.000  Cu
  Cu4      1.0000 0.12279  0.26179  0.39698  Biso   1.000  Cu
  O1       1.0000 0.19910  0.04677  0.97676  Biso   1.000  O
  O2       1.0000 0.80090  0.54677  0.52324  Biso   1.000  O
  O3       1.0000 0.80090  0.95323  0.02324  Biso   1.000  O
  O4       1.0000 0.19910  0.45323  0.47676  Biso   1.000  O
  O5       1.0000 0.09361  0.84299  0.06412  Biso   1.000  O
  O6       1.0000 0.90639  0.34299  0.43588  Biso   1.000  O
  O7       1.0000 0.90639  0.15701  0.93588  Biso   1.000  O
  O8       1.0000 0.09361  0.65701  0.56412  Biso   1.000  O
  O9       1.0000 0.02292  0.41685  0.81602  Biso   1.000  O
  O10      1.0000 0.97708  0.91685  0.68398  Biso   1.000  O
  O11      1.0000 0.97708  0.58315  0.18398  Biso   1.000  O
  O12      1.0000 0.02292  0.08315  0.31602  Biso   1.000  O
  O13      1.0000 0.91189  0.62718  0.87211  Biso   1.000  O
  O14      1.0000 0.08811  0.12718  0.62789  Biso   1.000  O
  O15      1.0000 0.08811  0.37282  0.12789  Biso   1.000  O
  O16      1.0000 0.91189  0.87282  0.37211  Biso   1.000  O
  N1       1.0000 0.34480  0.30160  0.87190  Biso   1.000  N
  N2       1.0000 0.65520  0.80160  0.62810  Biso   1.000  N
  N3       1.0000 0.65520  0.69840  0.12810  Biso   1.000  N
  N4       1.0000 0.34480  0.19840  0.37190  Biso   1.000  N
  N5       1.0000 0.60750  0.29960  0.88460  Biso   1.000  N
  N6       1.0000 0.39250  0.79960  0.61540  Biso   1.000  N
  N7       1.0000 0.39250  0.70040  0.11540  Biso   1.000  N
  N8       1.0000 0.60750  0.20040  0.38460  Biso   1.000  N
  H1       1.0000 0.70440  0.27040  0.90250  Biso   1.000  H
  H2       1.0000 0.29560  0.77040  0.59750  Biso   1.000  H
  H3       1.0000 0.29560  0.72960  0.09750  Biso   1.000  H
  H4       1.0000 0.70440  0.22960  0.40250  Biso   1.000  H
  C1       1.0000 0.08460  0.96869  0.01140  Biso   1.000  C
  C2       1.0000 0.91540  0.46869  0.48860  Biso   1.000  C
  C3       1.0000 0.91540  0.03131  0.98860  Biso   1.000  C
  C4       1.0000 0.08460  0.53131  0.51140  Biso   1.000  C
  C5       1.0000 0.98070  0.51365  0.91050  Biso   1.000  C
  C6       1.0000 0.01930  0.01365  0.58950  Biso   1.000  C
  C7       1.0000 0.01930  0.48635  0.08950  Biso   1.000  C
  C8       1.0000 0.98070  0.98635  0.41050  Biso   1.000  C
  C9       1.0000 0.40070  0.42760  0.80980  Biso   1.000  C
  C10      1.0000 0.59930  0.92760  0.69020  Biso   1.000  C
  C11      1.0000 0.59930  0.57240  0.19020  Biso   1.000  C
  C12      1.0000 0.40070  0.07240  0.30980  Biso   1.000  C
  H5       1.0000 0.33690  0.50190  0.76950  Biso   1.000  H
  H6       1.0000 0.66310  0.00190  0.73050  Biso   1.000  H
  H7       1.0000 0.66310  0.49810  0.23050  Biso   1.000  H
  H8       1.0000 0.33690  0.99810  0.26950  Biso   1.000  H
  C13      1.0000 0.56260  0.42640  0.81640  Biso   1.000  C
  C14      1.0000 0.43740  0.92640  0.68360  Biso   1.000  C
  C15      1.0000 0.43740  0.57360  0.18360  Biso   1.000  C
  C16      1.0000 0.56260  0.07360  0.31640  Biso   1.000  C
  H9       1.0000 0.63010  0.49810  0.78140  Biso   1.000  H
  H10      1.0000 0.36990  0.99810  0.71860  Biso   1.000  H
  H11      1.0000 0.36990  0.50190  0.21860  Biso   1.000  H
  H12      1.0000 0.63010  0.00190  0.28140  Biso   1.000  H
  C17      1.0000 0.47480  0.22920  0.91860  Biso   1.000  C
  C18      1.0000 0.52520  0.72920  0.58140  Biso   1.000  C
  C19      1.0000 0.52520  0.77080  0.08140  Biso   1.000  C
  C20      1.0000 0.47480  0.27080  0.41860  Biso   1.000  C
  H13      1.0000 0.47340  0.14040  0.96870  Biso   1.000  H
  H14      1.0000 0.52660  0.64040  0.53130  Biso   1.000  H
  H15      1.0000 0.52660  0.85960  0.03130  Biso   1.000  H
  H16      1.0000 0.47340  0.35960  0.46870  Biso   1.000  H
