data_image0
_cell_length_a       8.4859
_cell_length_b       17.03
_cell_length_c       12.986
_cell_angle_alpha    90
_cell_angle_beta     116.22
_cell_angle_gamma    90

_symmetry_space_group_name_H-M    "P 1"
_symmetry_int_tables_number       1

loop_
  _symmetry_equiv_pos_as_xyz
  'x, y, z'

loop_
  _atom_site_label
  _atom_site_occupancy
  _atom_site_fract_x
  _atom_site_fract_y
  _atom_site_fract_z
  _atom_site_thermal_displace_type
  _atom_site_B_iso_or_equiv
  _atom_site_type_symbol
  C1       1.0000 0.64890  0.87028  0.16557  Biso   1.000  C
  C2       1.0000 0.35110  0.37028  0.33443  Biso   1.000  C
  C3       1.0000 0.35110  0.12972  0.83443  Biso   1.000  C
  C4       1.0000 0.64890  0.62972  0.66557  Biso   1.000  C
  H1       1.0000 0.53020  0.86120  0.14320  Biso   1.000  H
  H2       1.0000 0.46980  0.36120  0.35680  Biso   1.000  H
  H3       1.0000 0.46980  0.13880  0.85680  Biso   1.000  H
  H4       1.0000 0.53020  0.63880  0.64320  Biso   1.000  H
  C5       1.0000 0.77100  0.82377  0.25037  Biso   1.000  C
  C6       1.0000 0.22900  0.32377  0.24963  Biso   1.000  C
  C7       1.0000 0.22900  0.17623  0.74963  Biso   1.000  C
  C8       1.0000 0.77100  0.67623  0.75037  Biso   1.000  C
  H5       1.0000 0.73430  0.78370  0.28330  Biso   1.000  H
  H6       1.0000 0.26570  0.28370  0.21670  Biso   1.000  H
  H7       1.0000 0.26570  0.21630  0.71670  Biso   1.000  H
  H8       1.0000 0.73430  0.71630  0.78330  Biso   1.000  H
  C9       1.0000 0.94800  0.83705  0.28601  Biso   1.000  C
  C10      1.0000 0.05200  0.33705  0.21399  Biso   1.000  C
  C11      1.0000 0.05200  0.16295  0.71399  Biso   1.000  C
  C12      1.0000 0.94800  0.66295  0.78601  Biso   1.000  C
  H9       1.0000 0.03170  0.80650  0.34350  Biso   1.000  H
  H10      1.0000 0.96830  0.30650  0.15650  Biso   1.000  H
  H11      1.0000 0.96830  0.19350  0.65650  Biso   1.000  H
  H12      1.0000 0.03170  0.69350  0.84350  Biso   1.000  H
  C13      1.0000 0.99830  0.89662  0.23463  Biso   1.000  C
  C14      1.0000 0.00170  0.39662  0.26537  Biso   1.000  C
  C15      1.0000 0.00170  0.10338  0.76537  Biso   1.000  C
  C16      1.0000 0.99830  0.60338  0.73463  Biso   1.000  C
  C17      1.0000 0.86900  0.93984  0.14835  Biso   1.000  C
  C18      1.0000 0.13100  0.43984  0.35165  Biso   1.000  C
  C19      1.0000 0.13100  0.06016  0.85165  Biso   1.000  C
  C20      1.0000 0.86900  0.56016  0.64835  Biso   1.000  C
  H13      1.0000 0.90300  0.97880  0.11200  Biso   1.000  H
  H14      1.0000 0.09700  0.47880  0.38800  Biso   1.000  H
  H15      1.0000 0.09700  0.02120  0.88800  Biso   1.000  H
  H16      1.0000 0.90300  0.52120  0.61200  Biso   1.000  H
  C21      1.0000 0.18790  0.91934  0.27306  Biso   1.000  C
  C22      1.0000 0.81210  0.41934  0.22694  Biso   1.000  C
  C23      1.0000 0.81210  0.08066  0.72694  Biso   1.000  C
  C24      1.0000 0.18790  0.58066  0.77306  Biso   1.000  C
  H17      1.0000 0.20700  0.93420  0.20730  Biso   1.000  H
  H18      1.0000 0.79300  0.43420  0.29270  Biso   1.000  H
  H19      1.0000 0.79300  0.06580  0.79270  Biso   1.000  H
  H20      1.0000 0.20700  0.56580  0.70730  Biso   1.000  H
  H21      1.0000 0.21810  0.96370  0.32520  Biso   1.000  H
  H22      1.0000 0.78190  0.46370  0.17480  Biso   1.000  H
  H23      1.0000 0.78190  0.03630  0.67480  Biso   1.000  H
  H24      1.0000 0.21810  0.53630  0.82520  Biso   1.000  H
  C25      1.0000 0.47130  0.86583  0.39043  Biso   1.000  C
  C26      1.0000 0.52870  0.36583  0.10957  Biso   1.000  C
  C27      1.0000 0.52870  0.13417  0.60957  Biso   1.000  C
  C28      1.0000 0.47130  0.63417  0.89043  Biso   1.000  C
  C29      1.0000 0.56710  0.80017  0.44675  Biso   1.000  C
  C30      1.0000 0.43290  0.30017  0.05325  Biso   1.000  C
  C31      1.0000 0.43290  0.19983  0.55325  Biso   1.000  C
  C32      1.0000 0.56710  0.69983  0.94675  Biso   1.000  C
  H25      1.0000 0.51010  0.75260  0.44150  Biso   1.000  H
  H26      1.0000 0.48990  0.25260  0.05850  Biso   1.000  H
  H27      1.0000 0.48990  0.24740  0.55850  Biso   1.000  H
  H28      1.0000 0.51010  0.74740  0.94150  Biso   1.000  H
  C33      1.0000 0.74800  0.80513  0.51103  Biso   1.000  C
  C34      1.0000 0.25200  0.30513  0.98897  Biso   1.000  C
  C35      1.0000 0.25200  0.19487  0.48897  Biso   1.000  C
  C36      1.0000 0.74800  0.69487  0.01103  Biso   1.000  C
  H29      1.0000 0.81240  0.76090  0.54820  Biso   1.000  H
  H30      1.0000 0.18760  0.26090  0.95180  Biso   1.000  H
  H31      1.0000 0.18760  0.23910  0.45180  Biso   1.000  H
  H32      1.0000 0.81240  0.73910  0.04820  Biso   1.000  H
  C37      1.0000 0.83200  0.87615  0.51957  Biso   1.000  C
  C38      1.0000 0.16800  0.37615  0.98043  Biso   1.000  C
  C39      1.0000 0.16800  0.12385  0.48043  Biso   1.000  C
  C40      1.0000 0.83200  0.62385  0.01957  Biso   1.000  C
  C41      1.0000 0.73670  0.94163  0.46340  Biso   1.000  C
  C42      1.0000 0.26330  0.44163  0.03660  Biso   1.000  C
  C43      1.0000 0.26330  0.05837  0.53660  Biso   1.000  C
  C44      1.0000 0.73670  0.55837  0.96340  Biso   1.000  C
  H33      1.0000 0.79370  0.98920  0.46900  Biso   1.000  H
  H34      1.0000 0.20630  0.48920  0.03100  Biso   1.000  H
  H35      1.0000 0.20630  0.01080  0.53100  Biso   1.000  H
  H36      1.0000 0.79370  0.51080  0.96900  Biso   1.000  H
  C45      1.0000 0.55580  0.93666  0.39870  Biso   1.000  C
  C46      1.0000 0.44420  0.43666  0.10130  Biso   1.000  C
  C47      1.0000 0.44420  0.06334  0.60130  Biso   1.000  C
  C48      1.0000 0.55580  0.56334  0.89870  Biso   1.000  C
  H37      1.0000 0.49170  0.98080  0.36110  Biso   1.000  H
  H38      1.0000 0.50830  0.48080  0.13890  Biso   1.000  H
  H39      1.0000 0.50830  0.01920  0.63890  Biso   1.000  H
  H40      1.0000 0.49170  0.51920  0.86110  Biso   1.000  H
  C49      1.0000 0.11700  0.82248  0.63460  Biso   1.000  C
  C50      1.0000 0.88300  0.32248  0.86540  Biso   1.000  C
  C51      1.0000 0.88300  0.17752  0.36540  Biso   1.000  C
  C52      1.0000 0.11700  0.67752  0.13460  Biso   1.000  C
  H41      1.0000 0.11710  0.78520  0.57810  Biso   1.000  H
  H42      1.0000 0.88290  0.28520  0.92190  Biso   1.000  H
  H43      1.0000 0.88290  0.21480  0.42190  Biso   1.000  H
  H44      1.0000 0.11710  0.71480  0.07810  Biso   1.000  H
  H45      1.0000 0.07390  0.79630  0.68350  Biso   1.000  H
  H46      1.0000 0.92610  0.29630  0.81650  Biso   1.000  H
  H47      1.0000 0.92610  0.20370  0.31650  Biso   1.000  H
  H48      1.0000 0.07390  0.70370  0.18350  Biso   1.000  H
  C53      1.0000 0.29900  0.85426  0.70499  Biso   1.000  C
  C54      1.0000 0.70100  0.35426  0.79501  Biso   1.000  C
  C55      1.0000 0.70100  0.14574  0.29501  Biso   1.000  C
  C56      1.0000 0.29900  0.64574  0.20499  Biso   1.000  C
  C57      1.0000 0.44120  0.83865  0.68279  Biso   1.000  C
  C58      1.0000 0.55880  0.33865  0.81721  Biso   1.000  C
  C59      1.0000 0.55880  0.16135  0.31721  Biso   1.000  C
  C60      1.0000 0.44120  0.66135  0.18279  Biso   1.000  C
  H49      1.0000 0.42820  0.80780  0.62050  Biso   1.000  H
  H50      1.0000 0.57180  0.30780  0.87950  Biso   1.000  H
  H51      1.0000 0.57180  0.19220  0.37950  Biso   1.000  H
  H52      1.0000 0.42820  0.69220  0.12050  Biso   1.000  H
  C61      1.0000 0.60270  0.86992  0.75514  Biso   1.000  C
  C62      1.0000 0.39730  0.36992  0.74486  Biso   1.000  C
  C63      1.0000 0.39730  0.13008  0.24486  Biso   1.000  C
  C64      1.0000 0.60270  0.63008  0.25514  Biso   1.000  C
  H53      1.0000 0.69980  0.86000  0.74180  Biso   1.000  H
  H54      1.0000 0.30020  0.36000  0.75820  Biso   1.000  H
  H55      1.0000 0.30020  0.14000  0.25820  Biso   1.000  H
  H56      1.0000 0.69980  0.64000  0.24180  Biso   1.000  H
  C65      1.0000 0.62040  0.91564  0.84668  Biso   1.000  C
  C66      1.0000 0.37960  0.41564  0.65332  Biso   1.000  C
  C67      1.0000 0.37960  0.08436  0.15332  Biso   1.000  C
  C68      1.0000 0.62040  0.58436  0.34668  Biso   1.000  C
  H57      1.0000 0.73060  0.93540  0.89550  Biso   1.000  H
  H58      1.0000 0.26940  0.43540  0.60450  Biso   1.000  H
  H59      1.0000 0.26940  0.06460  0.10450  Biso   1.000  H
  H60      1.0000 0.73060  0.56460  0.39550  Biso   1.000  H
  C69      1.0000 0.32600  0.90220  0.79731  Biso   1.000  C
  C70      1.0000 0.67400  0.40220  0.70269  Biso   1.000  C
  C71      1.0000 0.67400  0.09780  0.20269  Biso   1.000  C
  C72      1.0000 0.32600  0.59780  0.29731  Biso   1.000  C
  H61      1.0000 0.23010  0.91390  0.81130  Biso   1.000  H
  H62      1.0000 0.76990  0.41390  0.68870  Biso   1.000  H
  H63      1.0000 0.76990  0.08610  0.18870  Biso   1.000  H
  H64      1.0000 0.23010  0.58610  0.31130  Biso   1.000  H
  Cu1      1.0000 0.50000  0.00000  0.00000  Biso   1.000  Cu
  Cu2      1.0000 0.50000  0.50000  0.50000  Biso   1.000  Cu
  N1       1.0000 0.69515  0.92812  0.11430  Biso   1.000  N
  N2       1.0000 0.30485  0.42812  0.38570  Biso   1.000  N
  N3       1.0000 0.30485  0.07188  0.88570  Biso   1.000  N
  N4       1.0000 0.69515  0.57188  0.61430  Biso   1.000  N
  N5       1.0000 0.48165  0.93268  0.86752  Biso   1.000  N
  N6       1.0000 0.51835  0.43268  0.63248  Biso   1.000  N
  N7       1.0000 0.51835  0.06732  0.13248  Biso   1.000  N
  N8       1.0000 0.48165  0.56732  0.36752  Biso   1.000  N
  N9       1.0000 0.17070  0.86505  0.98152  Biso   1.000  N
  N10      1.0000 0.82930  0.36505  0.51848  Biso   1.000  N
  N11      1.0000 0.82930  0.13495  0.01848  Biso   1.000  N
  N12      1.0000 0.17070  0.63495  0.48152  Biso   1.000  N
  O1       1.0000 0.29285  0.85382  0.32890  Biso   1.000  O
  O2       1.0000 0.70715  0.35382  0.17110  Biso   1.000  O
  O3       1.0000 0.70715  0.14618  0.67110  Biso   1.000  O
  O4       1.0000 0.29285  0.64618  0.82890  Biso   1.000  O
  O5       1.0000 0.01067  0.88797  0.57993  Biso   1.000  O
  O6       1.0000 0.98933  0.38797  0.92007  Biso   1.000  O
  O7       1.0000 0.98933  0.11203  0.42007  Biso   1.000  O
  O8       1.0000 0.01067  0.61203  0.07993  Biso   1.000  O
  O9       1.0000 0.25965  0.92569  0.02595  Biso   1.000  O
  O10      1.0000 0.74035  0.42569  0.47405  Biso   1.000  O
  O11      1.0000 0.74035  0.07431  0.97405  Biso   1.000  O
  O12      1.0000 0.25965  0.57431  0.52595  Biso   1.000  O
  O13      1.0000 0.24460  0.80297  0.98164  Biso   1.000  O
  O14      1.0000 0.75540  0.30297  0.51836  Biso   1.000  O
  O15      1.0000 0.75540  0.19703  0.01836  Biso   1.000  O
  O16      1.0000 0.24460  0.69703  0.48164  Biso   1.000  O
  O17      1.0000 0.01520  0.87480  0.90770  Biso   1.000  O
  O18      1.0000 0.98480  0.37480  0.59230  Biso   1.000  O
  O19      1.0000 0.98480  0.12520  0.09230  Biso   1.000  O
  O20      1.0000 0.01520  0.62520  0.40770  Biso   1.000  O
  O21      1.0000 0.01720  0.86230  0.96500  Biso   1.000  O
  O22      1.0000 0.98280  0.36230  0.53500  Biso   1.000  O
  O23      1.0000 0.98280  0.13770  0.03500  Biso   1.000  O
  O24      1.0000 0.01720  0.63770  0.46500  Biso   1.000  O
