data_image0
_cell_length_a       3.7687
_cell_length_b       13.698
_cell_length_c       11.852
_cell_angle_alpha    90
_cell_angle_beta     92.851
_cell_angle_gamma    90

_symmetry_space_group_name_H-M    "P 1"
_symmetry_int_tables_number       1

loop_
  _symmetry_equiv_pos_as_xyz
  'x, y, z'

loop_
  _atom_site_label
  _atom_site_occupancy
  _atom_site_fract_x
  _atom_site_fract_y
  _atom_site_fract_z
  _atom_site_thermal_displace_type
  _atom_site_B_iso_or_equiv
  _atom_site_type_symbol
  Cu1      1.0000 0.39787  0.25000  0.32504  Biso   1.000  Cu
  Cu2      1.0000 0.60213  0.75000  0.67496  Biso   1.000  Cu
  Cl1      1.0000 0.01690  0.25000  0.46244  Biso   1.000  Cl
  Cl2      1.0000 0.98310  0.75000  0.53756  Biso   1.000  Cl
  O1       1.0000 0.05470  0.25000  0.89290  Biso   1.000  O
  O2       1.0000 0.94530  0.75000  0.10710  Biso   1.000  O
  N1       1.0000 0.43100  0.39688  0.29470  Biso   1.000  N
  N2       1.0000 0.56900  0.89688  0.70530  Biso   1.000  N
  N3       1.0000 0.56900  0.60312  0.70530  Biso   1.000  N
  N4       1.0000 0.43100  0.10312  0.29470  Biso   1.000  N
  N5       1.0000 0.60660  0.25000  0.18270  Biso   1.000  N
  N6       1.0000 0.39340  0.75000  0.81730  Biso   1.000  N
  N7       1.0000 0.83560  0.33967  0.03443  Biso   1.000  N
  N8       1.0000 0.16440  0.83967  0.96557  Biso   1.000  N
  N9       1.0000 0.16440  0.66033  0.96557  Biso   1.000  N
  N10      1.0000 0.83560  0.16033  0.03443  Biso   1.000  N
  C1       1.0000 0.33260  0.46860  0.36180  Biso   1.000  C
  C2       1.0000 0.66740  0.96860  0.63820  Biso   1.000  C
  C3       1.0000 0.66740  0.53140  0.63820  Biso   1.000  C
  C4       1.0000 0.33260  0.03140  0.36180  Biso   1.000  C
  H1       1.0000 0.22820  0.45230  0.43160  Biso   1.000  H
  H2       1.0000 0.77180  0.95230  0.56840  Biso   1.000  H
  H3       1.0000 0.77180  0.54770  0.56840  Biso   1.000  H
  H4       1.0000 0.22820  0.04770  0.43160  Biso   1.000  H
  C5       1.0000 0.37860  0.56610  0.33450  Biso   1.000  C
  C6       1.0000 0.62140  0.06610  0.66550  Biso   1.000  C
  C7       1.0000 0.62140  0.43390  0.66550  Biso   1.000  C
  C8       1.0000 0.37860  0.93390  0.33450  Biso   1.000  C
  H5       1.0000 0.30900  0.61680  0.38490  Biso   1.000  H
  H6       1.0000 0.69100  0.11680  0.61510  Biso   1.000  H
  H7       1.0000 0.69100  0.38320  0.61510  Biso   1.000  H
  H8       1.0000 0.30900  0.88320  0.38490  Biso   1.000  H
  C9       1.0000 0.52520  0.58880  0.23420  Biso   1.000  C
  C10      1.0000 0.47480  0.08880  0.76580  Biso   1.000  C
  C11      1.0000 0.47480  0.41120  0.76580  Biso   1.000  C
  C12      1.0000 0.52520  0.91120  0.23420  Biso   1.000  C
  H9       1.0000 0.55380  0.65590  0.21300  Biso   1.000  H
  H10      1.0000 0.44620  0.15590  0.78700  Biso   1.000  H
  H11      1.0000 0.44620  0.34410  0.78700  Biso   1.000  H
  H12      1.0000 0.55380  0.84410  0.21300  Biso   1.000  H
  C13      1.0000 0.62940  0.51530  0.16350  Biso   1.000  C
  C14      1.0000 0.37060  0.01530  0.83650  Biso   1.000  C
  C15      1.0000 0.37060  0.48470  0.83650  Biso   1.000  C
  C16      1.0000 0.62940  0.98470  0.16350  Biso   1.000  C
  H13      1.0000 0.73500  0.52980  0.09340  Biso   1.000  H
  H14      1.0000 0.26500  0.02980  0.90660  Biso   1.000  H
  H15      1.0000 0.26500  0.47020  0.90660  Biso   1.000  H
  H16      1.0000 0.73500  0.97020  0.09340  Biso   1.000  H
  C17      1.0000 0.57950  0.42050  0.19630  Biso   1.000  C
  C18      1.0000 0.42050  0.92050  0.80370  Biso   1.000  C
  C19      1.0000 0.42050  0.57950  0.80370  Biso   1.000  C
  C20      1.0000 0.57950  0.07950  0.19630  Biso   1.000  C
  C21      1.0000 0.68310  0.33350  0.12990  Biso   1.000  C
  C22      1.0000 0.31690  0.83350  0.87010  Biso   1.000  C
  C23      1.0000 0.31690  0.66650  0.87010  Biso   1.000  C
  C24      1.0000 0.68310  0.16650  0.12990  Biso   1.000  C
  C25      1.0000 0.91520  0.25000  0.98410  Biso   1.000  C
  C26      1.0000 0.08480  0.75000  0.01590  Biso   1.000  C
