data_image0
_cell_length_a       8.0084
_cell_length_b       11.5685
_cell_length_c       13.1368
_cell_angle_alpha    86.515
_cell_angle_beta     77.686
_cell_angle_gamma    89.912

_symmetry_space_group_name_H-M    "P 1"
_symmetry_int_tables_number       1

loop_
  _symmetry_equiv_pos_as_xyz
  'x, y, z'

loop_
  _atom_site_label
  _atom_site_occupancy
  _atom_site_fract_x
  _atom_site_fract_y
  _atom_site_fract_z
  _atom_site_thermal_displace_type
  _atom_site_B_iso_or_equiv
  _atom_site_type_symbol
  Cu1      1.0000 0.05064  0.38845  0.49945  Biso   1.000  Cu
  Cu2      1.0000 0.94936  0.61155  0.50055  Biso   1.000  Cu
  Cu3      1.0000 0.45652  0.97096  0.91269  Biso   1.000  Cu
  Cu4      1.0000 0.54348  0.02904  0.08731  Biso   1.000  Cu
  N1       1.0000 0.13530  0.19920  0.48000  Biso   1.000  N
  N2       1.0000 0.86470  0.80080  0.52000  Biso   1.000  N
  N3       1.0000 0.39140  0.91360  0.76630  Biso   1.000  N
  N4       1.0000 0.60860  0.08640  0.23370  Biso   1.000  N
  O1       1.0000 0.09340  0.42020  0.63780  Biso   1.000  O
  O2       1.0000 0.90660  0.57980  0.36220  Biso   1.000  O
  O3       1.0000 0.01080  0.60410  0.63840  Biso   1.000  O
  O4       1.0000 0.98920  0.39590  0.36160  Biso   1.000  O
  O5       1.0000 0.27290  0.45870  0.43420  Biso   1.000  O
  O6       1.0000 0.72710  0.54130  0.56580  Biso   1.000  O
  O7       1.0000 0.19000  0.64290  0.43510  Biso   1.000  O
  O8       1.0000 0.81000  0.35710  0.56490  Biso   1.000  O
  O9       1.0000 0.67220  0.88380  0.89300  Biso   1.000  O
  O10      1.0000 0.32780  0.11620  0.10700  Biso   1.000  O
  O11      1.0000 0.74570  0.93280  0.03660  Biso   1.000  O
  O12      1.0000 0.25430  0.06720  0.96340  Biso   1.000  O
  O13      1.0000 0.34100  0.83900  0.00270  Biso   1.000  O
  O14      1.0000 0.65900  0.16100  0.99730  Biso   1.000  O
  O15      1.0000 0.40820  0.89010  0.15050  Biso   1.000  O
  O16      1.0000 0.59180  0.10990  0.84950  Biso   1.000  O
  C1       1.0000 0.12590  0.16050  0.38740  Biso   1.000  C
  C2       1.0000 0.87410  0.83950  0.61260  Biso   1.000  C
  H1       1.0000 0.08550  0.21090  0.34050  Biso   1.000  H
  H2       1.0000 0.91450  0.78910  0.65950  Biso   1.000  H
  C3       1.0000 0.17200  0.05110  0.35700  Biso   1.000  C
  C4       1.0000 0.82800  0.94890  0.64300  Biso   1.000  C
  H3       1.0000 0.16090  0.02840  0.29200  Biso   1.000  H
  H4       1.0000 0.83910  0.97160  0.70800  Biso   1.000  H
  C5       1.0000 0.23450  0.97630  0.42410  Biso   1.000  C
  C6       1.0000 0.76550  0.02370  0.57590  Biso   1.000  C
  H5       1.0000 0.26950  0.90270  0.40430  Biso   1.000  H
  H6       1.0000 0.73050  0.09730  0.59570  Biso   1.000  H
  C7       1.0000 0.24560  0.01140  0.52380  Biso   1.000  C
  C8       1.0000 0.75440  0.98860  0.47620  Biso   1.000  C
  C9       1.0000 0.31210  0.93570  0.59840  Biso   1.000  C
  C10      1.0000 0.68790  0.06430  0.40160  Biso   1.000  C
  C11      1.0000 0.36570  0.82180  0.58000  Biso   1.000  C
  C12      1.0000 0.63430  0.17820  0.42000  Biso   1.000  C
  H7       1.0000 0.35660  0.78900  0.51850  Biso   1.000  H
  H8       1.0000 0.64340  0.21100  0.48150  Biso   1.000  H
  C13      1.0000 0.43150  0.75990  0.65390  Biso   1.000  C
  C14      1.0000 0.56850  0.24010  0.34610  Biso   1.000  C
  H9       1.0000 0.47000  0.68500  0.64220  Biso   1.000  H
  H10      1.0000 0.53000  0.31500  0.35780  Biso   1.000  H
  C15      1.0000 0.44080  0.80800  0.74520  Biso   1.000  C
  C16      1.0000 0.55920  0.19200  0.25480  Biso   1.000  C
  H11      1.0000 0.48440  0.76360  0.79470  Biso   1.000  H
  H12      1.0000 0.51560  0.23640  0.20530  Biso   1.000  H
  C17      1.0000 0.32480  0.97960  0.69470  Biso   1.000  C
  C18      1.0000 0.67520  0.02040  0.30530  Biso   1.000  C
  C19      1.0000 0.27060  0.09260  0.71620  Biso   1.000  C
  C20      1.0000 0.72940  0.90740  0.28380  Biso   1.000  C
  H13      1.0000 0.27780  0.12040  0.78010  Biso   1.000  H
  H14      1.0000 0.72220  0.87960  0.21990  Biso   1.000  H
  C21      1.0000 0.20850  0.16210  0.64750  Biso   1.000  C
  C22      1.0000 0.79150  0.83790  0.35250  Biso   1.000  C
  H15      1.0000 0.17340  0.23630  0.66520  Biso   1.000  H
  H16      1.0000 0.82660  0.76370  0.33480  Biso   1.000  H
  C23      1.0000 0.19510  0.12440  0.54710  Biso   1.000  C
  C24      1.0000 0.80490  0.87560  0.45290  Biso   1.000  C
  C25      1.0000 0.09540  0.52190  0.78790  Biso   1.000  C
  C26      1.0000 0.90460  0.47810  0.21210  Biso   1.000  C
  H17      1.0000 0.13650  0.44900  0.81100  Biso   1.000  H
  H18      1.0000 0.86350  0.55100  0.18900  Biso   1.000  H
  H19      1.0000 0.99010  0.54000  0.83420  Biso   1.000  H
  H20      1.0000 0.00990  0.46000  0.16580  Biso   1.000  H
  H21      1.0000 0.17880  0.58150  0.78780  Biso   1.000  H
  H22      1.0000 0.82120  0.41850  0.21220  Biso   1.000  H
  C27      1.0000 0.06530  0.51430  0.67880  Biso   1.000  C
  C28      1.0000 0.93470  0.48570  0.32120  Biso   1.000  C
  C29      1.0000 0.47770  0.60360  0.36250  Biso   1.000  C
  C30      1.0000 0.52230  0.39640  0.63750  Biso   1.000  C
  H23      1.0000 0.54980  0.53720  0.35060  Biso   1.000  H
  H24      1.0000 0.45020  0.46280  0.64940  Biso   1.000  H
  H25      1.0000 0.52120  0.65380  0.40650  Biso   1.000  H
  H26      1.0000 0.47880  0.34620  0.59350  Biso   1.000  H
  H27      1.0000 0.47600  0.64460  0.29690  Biso   1.000  H
  H28      1.0000 0.52400  0.35540  0.70310  Biso   1.000  H
  C31      1.0000 0.29980  0.56480  0.41450  Biso   1.000  C
  C32      1.0000 0.70020  0.43520  0.58550  Biso   1.000  C
  C33      1.0000 0.94140  0.82260  0.92320  Biso   1.000  C
  C34      1.0000 0.05860  0.17740  0.07680  Biso   1.000  C
  H29      1.0000 0.94680  0.78700  0.85840  Biso   1.000  H
  H30      1.0000 0.05320  0.21300  0.14160  Biso   1.000  H
  H31      1.0000 0.95080  0.76420  0.97680  Biso   1.000  H
  H32      1.0000 0.04920  0.23580  0.02320  Biso   1.000  H
  H33      1.0000 0.03350  0.87760  0.91530  Biso   1.000  H
  H34      1.0000 0.96650  0.12240  0.08470  Biso   1.000  H
  C35      1.0000 0.77170  0.88420  0.95340  Biso   1.000  C
  C36      1.0000 0.22830  0.11580  0.04660  Biso   1.000  C
  C37      1.0000 0.21610  0.73490  0.16060  Biso   1.000  C
  C38      1.0000 0.78390  0.26510  0.83940  Biso   1.000  C
  H35      1.0000 0.21960  0.73450  0.23320  Biso   1.000  H
  H36      1.0000 0.78040  0.26550  0.76680  Biso   1.000  H
  H37      1.0000 0.25320  0.66130  0.13440  Biso   1.000  H
  H38      1.0000 0.74680  0.33870  0.86560  Biso   1.000  H
  H39      1.0000 0.10130  0.74860  0.15240  Biso   1.000  H
  H40      1.0000 0.89870  0.25140  0.84760  Biso   1.000  H
  C39      1.0000 0.33320  0.82970  0.10020  Biso   1.000  C
  C40      1.0000 0.66680  0.17030  0.89980  Biso   1.000  C
