data_image0
_cell_length_a       28.451
_cell_length_b       9.4789
_cell_length_c       20.536
_cell_angle_alpha    90
_cell_angle_beta     129.38
_cell_angle_gamma    90

_symmetry_space_group_name_H-M    "P 1"
_symmetry_int_tables_number       1

loop_
  _symmetry_equiv_pos_as_xyz
  'x, y, z'

loop_
  _atom_site_label
  _atom_site_occupancy
  _atom_site_fract_x
  _atom_site_fract_y
  _atom_site_fract_z
  _atom_site_thermal_displace_type
  _atom_site_B_iso_or_equiv
  _atom_site_type_symbol
  Cu1      1.0000 0.98767  0.90858  0.94122  Biso   1.000  Cu
  Cu2      1.0000 0.48767  0.40858  0.94122  Biso   1.000  Cu
  Cu3      1.0000 0.98767  0.09142  0.44122  Biso   1.000  Cu
  Cu4      1.0000 0.48767  0.59142  0.44122  Biso   1.000  Cu
  Cu5      1.0000 0.01233  0.09142  0.05878  Biso   1.000  Cu
  Cu6      1.0000 0.51233  0.59142  0.05878  Biso   1.000  Cu
  Cu7      1.0000 0.01233  0.90858  0.55878  Biso   1.000  Cu
  Cu8      1.0000 0.51233  0.40858  0.55878  Biso   1.000  Cu
  N1       1.0000 0.97854  0.72530  0.86439  Biso   1.000  N
  N2       1.0000 0.47854  0.22530  0.86439  Biso   1.000  N
  N3       1.0000 0.97854  0.27470  0.36439  Biso   1.000  N
  N4       1.0000 0.47854  0.77470  0.36439  Biso   1.000  N
  N5       1.0000 0.02146  0.27470  0.13561  Biso   1.000  N
  N6       1.0000 0.52146  0.77470  0.13561  Biso   1.000  N
  N7       1.0000 0.02146  0.72530  0.63561  Biso   1.000  N
  N8       1.0000 0.52146  0.22530  0.63561  Biso   1.000  N
  O1       1.0000 0.93982  0.82030  0.45794  Biso   1.000  O
  O2       1.0000 0.43982  0.32030  0.45794  Biso   1.000  O
  O3       1.0000 0.93982  0.17970  0.95794  Biso   1.000  O
  O4       1.0000 0.43982  0.67970  0.95794  Biso   1.000  O
  O5       1.0000 0.06018  0.17970  0.54206  Biso   1.000  O
  O6       1.0000 0.56018  0.67970  0.54206  Biso   1.000  O
  O7       1.0000 0.06018  0.82030  0.04206  Biso   1.000  O
  O8       1.0000 0.56018  0.32030  0.04206  Biso   1.000  O
  O9       1.0000 0.08205  0.02880  0.64059  Biso   1.000  O
  O10      1.0000 0.58205  0.52880  0.64059  Biso   1.000  O
  O11      1.0000 0.08205  0.97120  0.14059  Biso   1.000  O
  O12      1.0000 0.58205  0.47120  0.14059  Biso   1.000  O
  O13      1.0000 0.91795  0.97120  0.35941  Biso   1.000  O
  O14      1.0000 0.41795  0.47120  0.35941  Biso   1.000  O
  O15      1.0000 0.91795  0.02880  0.85941  Biso   1.000  O
  O16      1.0000 0.41795  0.52880  0.85941  Biso   1.000  O
  O17      1.0000 0.06077  0.81610  0.53306  Biso   1.000  O
  O18      1.0000 0.56077  0.31610  0.53306  Biso   1.000  O
  O19      1.0000 0.06077  0.18390  0.03306  Biso   1.000  O
  O20      1.0000 0.56077  0.68390  0.03306  Biso   1.000  O
  O21      1.0000 0.93923  0.18390  0.46694  Biso   1.000  O
  O22      1.0000 0.43923  0.68390  0.46694  Biso   1.000  O
  O23      1.0000 0.93923  0.81610  0.96694  Biso   1.000  O
  O24      1.0000 0.43923  0.31610  0.96694  Biso   1.000  O
  O25      1.0000 0.96022  0.03260  0.56426  Biso   1.000  O
  O26      1.0000 0.46022  0.53260  0.56426  Biso   1.000  O
  O27      1.0000 0.96022  0.96740  0.06426  Biso   1.000  O
  O28      1.0000 0.46022  0.46740  0.06426  Biso   1.000  O
  O29      1.0000 0.03978  0.96740  0.43574  Biso   1.000  O
  O30      1.0000 0.53978  0.46740  0.43574  Biso   1.000  O
  O31      1.0000 0.03978  0.03260  0.93574  Biso   1.000  O
  O32      1.0000 0.53978  0.53260  0.93574  Biso   1.000  O
  C1       1.0000 0.90718  0.86350  0.38340  Biso   1.000  C
  C2       1.0000 0.40718  0.36350  0.38340  Biso   1.000  C
  C3       1.0000 0.90718  0.13650  0.88340  Biso   1.000  C
  C4       1.0000 0.40718  0.63650  0.88340  Biso   1.000  C
  C5       1.0000 0.09282  0.13650  0.61660  Biso   1.000  C
  C6       1.0000 0.59282  0.63650  0.61660  Biso   1.000  C
  C7       1.0000 0.09282  0.86350  0.11660  Biso   1.000  C
  C8       1.0000 0.59282  0.36350  0.11660  Biso   1.000  C
  C9       1.0000 0.85213  0.77790  0.31920  Biso   1.000  C
  C10      1.0000 0.35213  0.27790  0.31920  Biso   1.000  C
  C11      1.0000 0.85213  0.22210  0.81920  Biso   1.000  C
  C12      1.0000 0.35213  0.72210  0.81920  Biso   1.000  C
  C13      1.0000 0.14787  0.22210  0.68080  Biso   1.000  C
  C14      1.0000 0.64787  0.72210  0.68080  Biso   1.000  C
  C15      1.0000 0.14787  0.77790  0.18080  Biso   1.000  C
  C16      1.0000 0.64787  0.27790  0.18080  Biso   1.000  C
  C17      1.0000 0.18400  0.18830  0.76450  Biso   1.000  C
  C18      1.0000 0.68400  0.68830  0.76450  Biso   1.000  C
  C19      1.0000 0.18400  0.81170  0.26450  Biso   1.000  C
  C20      1.0000 0.68400  0.31170  0.26450  Biso   1.000  C
  C21      1.0000 0.81600  0.81170  0.23550  Biso   1.000  C
  C22      1.0000 0.31600  0.31170  0.23550  Biso   1.000  C
  C23      1.0000 0.81600  0.18830  0.73550  Biso   1.000  C
  C24      1.0000 0.31600  0.68830  0.73550  Biso   1.000  C
  H1       1.0000 0.82480  0.89040  0.21780  Biso   1.000  H
  H2       1.0000 0.32480  0.39040  0.21780  Biso   1.000  H
  H3       1.0000 0.82480  0.10960  0.71780  Biso   1.000  H
  H4       1.0000 0.32480  0.60960  0.71780  Biso   1.000  H
  H5       1.0000 0.17520  0.10960  0.78220  Biso   1.000  H
  H6       1.0000 0.67520  0.60960  0.78220  Biso   1.000  H
  H7       1.0000 0.17520  0.89040  0.28220  Biso   1.000  H
  H8       1.0000 0.67520  0.39040  0.28220  Biso   1.000  H
  C25      1.0000 0.76610  0.72730  0.17720  Biso   1.000  C
  C26      1.0000 0.26610  0.22730  0.17720  Biso   1.000  C
  C27      1.0000 0.76610  0.27270  0.67720  Biso   1.000  C
  C28      1.0000 0.26610  0.77270  0.67720  Biso   1.000  C
  C29      1.0000 0.23390  0.27270  0.82280  Biso   1.000  C
  C30      1.0000 0.73390  0.77270  0.82280  Biso   1.000  C
  C31      1.0000 0.23390  0.72730  0.32280  Biso   1.000  C
  C32      1.0000 0.73390  0.22730  0.32280  Biso   1.000  C
  H9       1.0000 0.74190  0.74910  0.12010  Biso   1.000  H
  H10      1.0000 0.24190  0.24910  0.12010  Biso   1.000  H
  H11      1.0000 0.74190  0.25090  0.62010  Biso   1.000  H
  H12      1.0000 0.24190  0.75090  0.62010  Biso   1.000  H
  H13      1.0000 0.25810  0.25090  0.87990  Biso   1.000  H
  H14      1.0000 0.75810  0.75090  0.87990  Biso   1.000  H
  H15      1.0000 0.25810  0.74910  0.37990  Biso   1.000  H
  H16      1.0000 0.75810  0.24910  0.37990  Biso   1.000  H
  C33      1.0000 0.75210  0.61290  0.20230  Biso   1.000  C
  C34      1.0000 0.25210  0.11290  0.20230  Biso   1.000  C
  C35      1.0000 0.75210  0.38710  0.70230  Biso   1.000  C
  C36      1.0000 0.25210  0.88710  0.70230  Biso   1.000  C
  C37      1.0000 0.24790  0.38710  0.79770  Biso   1.000  C
  C38      1.0000 0.74790  0.88710  0.79770  Biso   1.000  C
  C39      1.0000 0.24790  0.61290  0.29770  Biso   1.000  C
  C40      1.0000 0.74790  0.11290  0.29770  Biso   1.000  C
  H17      1.0000 0.28220  0.44110  0.83680  Biso   1.000  H
  H18      1.0000 0.78220  0.94110  0.83680  Biso   1.000  H
  H19      1.0000 0.28220  0.55890  0.33680  Biso   1.000  H
  H20      1.0000 0.78220  0.05890  0.33680  Biso   1.000  H
  H21      1.0000 0.71780  0.55890  0.16320  Biso   1.000  H
  H22      1.0000 0.21780  0.05890  0.16320  Biso   1.000  H
  H23      1.0000 0.71780  0.44110  0.66320  Biso   1.000  H
  H24      1.0000 0.21780  0.94110  0.66320  Biso   1.000  H
  C41      1.0000 0.78870  0.57950  0.28460  Biso   1.000  C
  C42      1.0000 0.28870  0.07950  0.28460  Biso   1.000  C
  C43      1.0000 0.78870  0.42050  0.78460  Biso   1.000  C
  C44      1.0000 0.28870  0.92050  0.78460  Biso   1.000  C
  C45      1.0000 0.21130  0.42050  0.71540  Biso   1.000  C
  C46      1.0000 0.71130  0.92050  0.71540  Biso   1.000  C
  C47      1.0000 0.21130  0.57950  0.21540  Biso   1.000  C
  C48      1.0000 0.71130  0.07950  0.21540  Biso   1.000  C
  H25      1.0000 0.77990  0.50060  0.30210  Biso   1.000  H
  H26      1.0000 0.27990  0.00060  0.30210  Biso   1.000  H
  H27      1.0000 0.77990  0.49940  0.80210  Biso   1.000  H
  H28      1.0000 0.27990  0.99940  0.80210  Biso   1.000  H
  H29      1.0000 0.22010  0.49940  0.69790  Biso   1.000  H
  H30      1.0000 0.72010  0.99940  0.69790  Biso   1.000  H
  H31      1.0000 0.22010  0.50060  0.19790  Biso   1.000  H
  H32      1.0000 0.72010  0.00060  0.19790  Biso   1.000  H
  C49      1.0000 0.16090  0.33940  0.65650  Biso   1.000  C
  C50      1.0000 0.66090  0.83940  0.65650  Biso   1.000  C
  C51      1.0000 0.16090  0.66060  0.15650  Biso   1.000  C
  C52      1.0000 0.66090  0.16060  0.15650  Biso   1.000  C
  C53      1.0000 0.83910  0.66060  0.34350  Biso   1.000  C
  C54      1.0000 0.33910  0.16060  0.34350  Biso   1.000  C
  C55      1.0000 0.83910  0.33940  0.84350  Biso   1.000  C
  C56      1.0000 0.33910  0.83940  0.84350  Biso   1.000  C
  H33      1.0000 0.86430  0.63500  0.40010  Biso   1.000  H
  H34      1.0000 0.36430  0.13500  0.40010  Biso   1.000  H
  H35      1.0000 0.86430  0.36500  0.90010  Biso   1.000  H
  H36      1.0000 0.36430  0.86500  0.90010  Biso   1.000  H
  H37      1.0000 0.13570  0.36500  0.59990  Biso   1.000  H
  H38      1.0000 0.63570  0.86500  0.59990  Biso   1.000  H
  H39      1.0000 0.13570  0.63500  0.09990  Biso   1.000  H
  H40      1.0000 0.63570  0.13500  0.09990  Biso   1.000  H
  C57      1.0000 0.06464  0.85830  0.47870  Biso   1.000  C
  C58      1.0000 0.56464  0.35830  0.47870  Biso   1.000  C
  C59      1.0000 0.06464  0.14170  0.97870  Biso   1.000  C
  C60      1.0000 0.56464  0.64170  0.97870  Biso   1.000  C
  C61      1.0000 0.93536  0.14170  0.52130  Biso   1.000  C
  C62      1.0000 0.43536  0.64170  0.52130  Biso   1.000  C
  C63      1.0000 0.93536  0.85830  0.02130  Biso   1.000  C
  C64      1.0000 0.43536  0.35830  0.02130  Biso   1.000  C
  C65      1.0000 0.89968  0.22830  0.53610  Biso   1.000  C
  C66      1.0000 0.39968  0.72830  0.53610  Biso   1.000  C
  C67      1.0000 0.89968  0.77170  0.03610  Biso   1.000  C
  C68      1.0000 0.39968  0.27170  0.03610  Biso   1.000  C
  C69      1.0000 0.10032  0.77170  0.46390  Biso   1.000  C
  C70      1.0000 0.60032  0.27170  0.46390  Biso   1.000  C
  C71      1.0000 0.10032  0.22830  0.96390  Biso   1.000  C
  C72      1.0000 0.60032  0.72830  0.96390  Biso   1.000  C
  C73      1.0000 0.10990  0.81840  0.41000  Biso   1.000  C
  C74      1.0000 0.60990  0.31840  0.41000  Biso   1.000  C
  C75      1.0000 0.10990  0.18160  0.91000  Biso   1.000  C
  C76      1.0000 0.60990  0.68160  0.91000  Biso   1.000  C
  C77      1.0000 0.89010  0.18160  0.59000  Biso   1.000  C
  C78      1.0000 0.39010  0.68160  0.59000  Biso   1.000  C
  C79      1.0000 0.89010  0.81840  0.09000  Biso   1.000  C
  C80      1.0000 0.39010  0.31840  0.09000  Biso   1.000  C
  H41      1.0000 0.09530  0.90630  0.38450  Biso   1.000  H
  H42      1.0000 0.59530  0.40630  0.38450  Biso   1.000  H
  H43      1.0000 0.09530  0.09370  0.88450  Biso   1.000  H
  H44      1.0000 0.59530  0.59370  0.88450  Biso   1.000  H
  H45      1.0000 0.90470  0.09370  0.61550  Biso   1.000  H
  H46      1.0000 0.40470  0.59370  0.61550  Biso   1.000  H
  H47      1.0000 0.90470  0.90630  0.11550  Biso   1.000  H
  H48      1.0000 0.40470  0.40630  0.11550  Biso   1.000  H
  C81      1.0000 0.14100  0.73590  0.39370  Biso   1.000  C
  C82      1.0000 0.64100  0.23590  0.39370  Biso   1.000  C
  C83      1.0000 0.14100  0.26410  0.89370  Biso   1.000  C
  C84      1.0000 0.64100  0.76410  0.89370  Biso   1.000  C
  C85      1.0000 0.85900  0.26410  0.60630  Biso   1.000  C
  C86      1.0000 0.35900  0.76410  0.60630  Biso   1.000  C
  C87      1.0000 0.85900  0.73590  0.10630  Biso   1.000  C
  C88      1.0000 0.35900  0.23590  0.10630  Biso   1.000  C
  H49      1.0000 0.14710  0.76800  0.35670  Biso   1.000  H
  H50      1.0000 0.64710  0.26800  0.35670  Biso   1.000  H
  H51      1.0000 0.14710  0.23200  0.85670  Biso   1.000  H
  H52      1.0000 0.64710  0.73200  0.85670  Biso   1.000  H
  H53      1.0000 0.85290  0.23200  0.64330  Biso   1.000  H
  H54      1.0000 0.35290  0.73200  0.64330  Biso   1.000  H
  H55      1.0000 0.85290  0.76800  0.14330  Biso   1.000  H
  H56      1.0000 0.35290  0.26800  0.14330  Biso   1.000  H
  C89      1.0000 0.16300  0.60760  0.43100  Biso   1.000  C
  C90      1.0000 0.66300  0.10760  0.43100  Biso   1.000  C
  C91      1.0000 0.16300  0.39240  0.93100  Biso   1.000  C
  C92      1.0000 0.66300  0.89240  0.93100  Biso   1.000  C
  C93      1.0000 0.83700  0.39240  0.56900  Biso   1.000  C
  C94      1.0000 0.33700  0.89240  0.56900  Biso   1.000  C
  C95      1.0000 0.83700  0.60760  0.06900  Biso   1.000  C
  C96      1.0000 0.33700  0.10760  0.06900  Biso   1.000  C
  H57      1.0000 0.18490  0.55330  0.42070  Biso   1.000  H
  H58      1.0000 0.68490  0.05330  0.42070  Biso   1.000  H
  H59      1.0000 0.18490  0.44670  0.92070  Biso   1.000  H
  H60      1.0000 0.68490  0.94670  0.92070  Biso   1.000  H
  H61      1.0000 0.81510  0.44670  0.57930  Biso   1.000  H
  H62      1.0000 0.31510  0.94670  0.57930  Biso   1.000  H
  H63      1.0000 0.81510  0.55330  0.07930  Biso   1.000  H
  H64      1.0000 0.31510  0.05330  0.07930  Biso   1.000  H
  C97      1.0000 0.15300  0.55980  0.48250  Biso   1.000  C
  C98      1.0000 0.65300  0.05980  0.48250  Biso   1.000  C
  C99      1.0000 0.15300  0.44020  0.98250  Biso   1.000  C
  C100     1.0000 0.65300  0.94020  0.98250  Biso   1.000  C
  C101     1.0000 0.84700  0.44020  0.51750  Biso   1.000  C
  C102     1.0000 0.34700  0.94020  0.51750  Biso   1.000  C
  C103     1.0000 0.84700  0.55980  0.01750  Biso   1.000  C
  C104     1.0000 0.34700  0.05980  0.01750  Biso   1.000  C
  H65      1.0000 0.16720  0.47110  0.50690  Biso   1.000  H
  H66      1.0000 0.66720  0.97110  0.50690  Biso   1.000  H
  H67      1.0000 0.16720  0.52890  0.00690  Biso   1.000  H
  H68      1.0000 0.66720  0.02890  0.00690  Biso   1.000  H
  H69      1.0000 0.83280  0.52890  0.49310  Biso   1.000  H
  H70      1.0000 0.33280  0.02890  0.49310  Biso   1.000  H
  H71      1.0000 0.83280  0.47110  0.99310  Biso   1.000  H
  H72      1.0000 0.33280  0.97110  0.99310  Biso   1.000  H
  C105     1.0000 0.12199  0.64060  0.49960  Biso   1.000  C
  C106     1.0000 0.62199  0.14060  0.49960  Biso   1.000  C
  C107     1.0000 0.12199  0.35940  0.99960  Biso   1.000  C
  C108     1.0000 0.62199  0.85940  0.99960  Biso   1.000  C
  C109     1.0000 0.87801  0.35940  0.50040  Biso   1.000  C
  C110     1.0000 0.37801  0.85940  0.50040  Biso   1.000  C
  C111     1.0000 0.87801  0.64060  0.00040  Biso   1.000  C
  C112     1.0000 0.37801  0.14060  0.00040  Biso   1.000  C
  H73      1.0000 0.11560  0.60630  0.53590  Biso   1.000  H
  H74      1.0000 0.61560  0.10630  0.53590  Biso   1.000  H
  H75      1.0000 0.11560  0.39370  0.03590  Biso   1.000  H
  H76      1.0000 0.61560  0.89370  0.03590  Biso   1.000  H
  H77      1.0000 0.88440  0.39370  0.46410  Biso   1.000  H
  H78      1.0000 0.38440  0.89370  0.46410  Biso   1.000  H
  H79      1.0000 0.88440  0.60630  0.96410  Biso   1.000  H
  H80      1.0000 0.38440  0.10630  0.96410  Biso   1.000  H
  C113     1.0000 0.97064  0.60610  0.88830  Biso   1.000  C
  C114     1.0000 0.47064  0.10610  0.88830  Biso   1.000  C
  C115     1.0000 0.97064  0.39390  0.38830  Biso   1.000  C
  C116     1.0000 0.47064  0.89390  0.38830  Biso   1.000  C
  C117     1.0000 0.02936  0.39390  0.11170  Biso   1.000  C
  C118     1.0000 0.52936  0.89390  0.11170  Biso   1.000  C
  C119     1.0000 0.02936  0.60610  0.61170  Biso   1.000  C
  C120     1.0000 0.52936  0.10610  0.61170  Biso   1.000  C
  H81      1.0000 0.96290  0.61040  0.92600  Biso   1.000  H
  H82      1.0000 0.46290  0.11040  0.92600  Biso   1.000  H
  H83      1.0000 0.96290  0.38960  0.42600  Biso   1.000  H
  H84      1.0000 0.46290  0.88960  0.42600  Biso   1.000  H
  H85      1.0000 0.03710  0.38960  0.07400  Biso   1.000  H
  H86      1.0000 0.53710  0.88960  0.07400  Biso   1.000  H
  H87      1.0000 0.03710  0.61040  0.57400  Biso   1.000  H
  H88      1.0000 0.53710  0.11040  0.57400  Biso   1.000  H
  C121     1.0000 0.97283  0.47420  0.86170  Biso   1.000  C
  C122     1.0000 0.47283  0.97420  0.86170  Biso   1.000  C
  C123     1.0000 0.97283  0.52580  0.36170  Biso   1.000  C
  C124     1.0000 0.47283  0.02580  0.36170  Biso   1.000  C
  C125     1.0000 0.02717  0.52580  0.13830  Biso   1.000  C
  C126     1.0000 0.52717  0.02580  0.13830  Biso   1.000  C
  C127     1.0000 0.02717  0.47420  0.63830  Biso   1.000  C
  C128     1.0000 0.52717  0.97420  0.63830  Biso   1.000  C
  H89      1.0000 0.96650  0.39300  0.88070  Biso   1.000  H
  H90      1.0000 0.46650  0.89300  0.88070  Biso   1.000  H
  H91      1.0000 0.96650  0.60700  0.38070  Biso   1.000  H
  H92      1.0000 0.46650  0.10700  0.38070  Biso   1.000  H
  H93      1.0000 0.03350  0.60700  0.11930  Biso   1.000  H
  H94      1.0000 0.53350  0.10700  0.11930  Biso   1.000  H
  H95      1.0000 0.03350  0.39300  0.61930  Biso   1.000  H
  H96      1.0000 0.53350  0.89300  0.61930  Biso   1.000  H
  C129     1.0000 0.98454  0.46640  0.80680  Biso   1.000  C
  C130     1.0000 0.48454  0.96640  0.80680  Biso   1.000  C
  C131     1.0000 0.98454  0.53360  0.30680  Biso   1.000  C
  C132     1.0000 0.48454  0.03360  0.30680  Biso   1.000  C
  C133     1.0000 0.01546  0.53360  0.19320  Biso   1.000  C
  C134     1.0000 0.51546  0.03360  0.19320  Biso   1.000  C
  C135     1.0000 0.01546  0.46640  0.69320  Biso   1.000  C
  C136     1.0000 0.51546  0.96640  0.69320  Biso   1.000  C
  H97      1.0000 0.98670  0.37910  0.78810  Biso   1.000  H
  H98      1.0000 0.48670  0.87910  0.78810  Biso   1.000  H
  H99      1.0000 0.98670  0.62090  0.28810  Biso   1.000  H
  H100     1.0000 0.48670  0.12090  0.28810  Biso   1.000  H
  H101     1.0000 0.01330  0.62090  0.21190  Biso   1.000  H
  H102     1.0000 0.51330  0.12090  0.21190  Biso   1.000  H
  H103     1.0000 0.01330  0.37910  0.71190  Biso   1.000  H
  H104     1.0000 0.51330  0.87910  0.71190  Biso   1.000  H
  C137     1.0000 0.99325  0.59000  0.77884  Biso   1.000  C
  C138     1.0000 0.49325  0.09000  0.77884  Biso   1.000  C
  C139     1.0000 0.99325  0.41000  0.27884  Biso   1.000  C
  C140     1.0000 0.49325  0.91000  0.27884  Biso   1.000  C
  C141     1.0000 0.00675  0.41000  0.22116  Biso   1.000  C
  C142     1.0000 0.50675  0.91000  0.22116  Biso   1.000  C
  C143     1.0000 0.00675  0.59000  0.72116  Biso   1.000  C
  C144     1.0000 0.50675  0.09000  0.72116  Biso   1.000  C
  C145     1.0000 0.98892  0.71910  0.80780  Biso   1.000  C
  C146     1.0000 0.48892  0.21910  0.80780  Biso   1.000  C
  C147     1.0000 0.98892  0.28090  0.30780  Biso   1.000  C
  C148     1.0000 0.48892  0.78090  0.30780  Biso   1.000  C
  C149     1.0000 0.01108  0.28090  0.19220  Biso   1.000  C
  C150     1.0000 0.51108  0.78090  0.19220  Biso   1.000  C
  C151     1.0000 0.01108  0.71910  0.69220  Biso   1.000  C
  C152     1.0000 0.51108  0.21910  0.69220  Biso   1.000  C
  C153     1.0000 0.99528  0.84730  0.77830  Biso   1.000  C
  C154     1.0000 0.49528  0.34730  0.77830  Biso   1.000  C
  C155     1.0000 0.99528  0.15270  0.27830  Biso   1.000  C
  C156     1.0000 0.49528  0.65270  0.27830  Biso   1.000  C
  C157     1.0000 0.00472  0.15270  0.22170  Biso   1.000  C
  C158     1.0000 0.50472  0.65270  0.22170  Biso   1.000  C
  C159     1.0000 0.00472  0.84730  0.72170  Biso   1.000  C
  C160     1.0000 0.50472  0.34730  0.72170  Biso   1.000  C
  H105     1.0000 0.99290  0.93270  0.79840  Biso   1.000  H
  H106     1.0000 0.49290  0.43270  0.79840  Biso   1.000  H
  H107     1.0000 0.99290  0.06730  0.29840  Biso   1.000  H
  H108     1.0000 0.49290  0.56730  0.29840  Biso   1.000  H
  H109     1.0000 0.00710  0.06730  0.20160  Biso   1.000  H
  H110     1.0000 0.50710  0.56730  0.20160  Biso   1.000  H
  H111     1.0000 0.00710  0.93270  0.70160  Biso   1.000  H
  H112     1.0000 0.50710  0.43270  0.70160  Biso   1.000  H
  C161     1.0000 0.21760  0.74460  0.91070  Biso   1.000  C
  C162     1.0000 0.71760  0.24460  0.91070  Biso   1.000  C
  C163     1.0000 0.21760  0.25540  0.41070  Biso   1.000  C
  C164     1.0000 0.71760  0.75540  0.41070  Biso   1.000  C
  C165     1.0000 0.78240  0.25540  0.08930  Biso   1.000  C
  C166     1.0000 0.28240  0.75540  0.08930  Biso   1.000  C
  C167     1.0000 0.78240  0.74460  0.58930  Biso   1.000  C
  C168     1.0000 0.28240  0.24460  0.58930  Biso   1.000  C
  C169     1.0000 0.19340  0.80210  0.94490  Biso   1.000  C
  C170     1.0000 0.69340  0.30210  0.94490  Biso   1.000  C
  C171     1.0000 0.19340  0.19790  0.44490  Biso   1.000  C
  C172     1.0000 0.69340  0.69790  0.44490  Biso   1.000  C
  C173     1.0000 0.80660  0.19790  0.05510  Biso   1.000  C
  C174     1.0000 0.30660  0.69790  0.05510  Biso   1.000  C
  C175     1.0000 0.80660  0.80210  0.55510  Biso   1.000  C
  C176     1.0000 0.30660  0.30210  0.55510  Biso   1.000  C
  H113     1.0000 0.15410  0.83850  0.90880  Biso   1.000  H
  H114     1.0000 0.65410  0.33850  0.90880  Biso   1.000  H
  H115     1.0000 0.15410  0.16150  0.40880  Biso   1.000  H
  H116     1.0000 0.65410  0.66150  0.40880  Biso   1.000  H
  H117     1.0000 0.84590  0.16150  0.09120  Biso   1.000  H
  H118     1.0000 0.34590  0.66150  0.09120  Biso   1.000  H
  H119     1.0000 0.84590  0.83850  0.59120  Biso   1.000  H
  H120     1.0000 0.34590  0.33850  0.59120  Biso   1.000  H
  C177     1.0000 0.27500  0.69170  0.96890  Biso   1.000  C
  C178     1.0000 0.77500  0.19170  0.96890  Biso   1.000  C
  C179     1.0000 0.27500  0.30830  0.46890  Biso   1.000  C
  C180     1.0000 0.77500  0.80830  0.46890  Biso   1.000  C
  C181     1.0000 0.72500  0.30830  0.03110  Biso   1.000  C
  C182     1.0000 0.22500  0.80830  0.03110  Biso   1.000  C
  C183     1.0000 0.72500  0.69170  0.53110  Biso   1.000  C
  C184     1.0000 0.22500  0.19170  0.53110  Biso   1.000  C
  H121     1.0000 0.29380  0.64960  0.94970  Biso   1.000  H
  H122     1.0000 0.79380  0.14960  0.94970  Biso   1.000  H
  H123     1.0000 0.29380  0.35040  0.44970  Biso   1.000  H
  H124     1.0000 0.79380  0.85040  0.44970  Biso   1.000  H
  H125     1.0000 0.70620  0.35040  0.05030  Biso   1.000  H
  H126     1.0000 0.20620  0.85040  0.05030  Biso   1.000  H
  H127     1.0000 0.70620  0.64960  0.55030  Biso   1.000  H
  H128     1.0000 0.20620  0.14960  0.55030  Biso   1.000  H
  C185     1.0000 0.18340  0.73780  0.81660  Biso   1.000  C
  C186     1.0000 0.68340  0.23780  0.81660  Biso   1.000  C
  C187     1.0000 0.18340  0.26220  0.31660  Biso   1.000  C
  C188     1.0000 0.68340  0.76220  0.31660  Biso   1.000  C
  C189     1.0000 0.81660  0.26220  0.18340  Biso   1.000  C
  C190     1.0000 0.31660  0.76220  0.18340  Biso   1.000  C
  C191     1.0000 0.81660  0.73780  0.68340  Biso   1.000  C
  C192     1.0000 0.31660  0.23780  0.68340  Biso   1.000  C
  H129     1.0000 0.14420  0.78120  0.78730  Biso   1.000  H
  H130     1.0000 0.64420  0.28120  0.78730  Biso   1.000  H
  H131     1.0000 0.14420  0.21880  0.28730  Biso   1.000  H
  H132     1.0000 0.64420  0.71880  0.28730  Biso   1.000  H
  H133     1.0000 0.85580  0.21880  0.21270  Biso   1.000  H
  H134     1.0000 0.35580  0.71880  0.21270  Biso   1.000  H
  H135     1.0000 0.85580  0.78120  0.71270  Biso   1.000  H
  H136     1.0000 0.35580  0.28120  0.71270  Biso   1.000  H
  H137     1.0000 0.17820  0.64110  0.79950  Biso   1.000  H
  H138     1.0000 0.67820  0.14110  0.79950  Biso   1.000  H
  H139     1.0000 0.17820  0.35890  0.29950  Biso   1.000  H
  H140     1.0000 0.67820  0.85890  0.29950  Biso   1.000  H
  H141     1.0000 0.82180  0.35890  0.20050  Biso   1.000  H
  H142     1.0000 0.32180  0.85890  0.20050  Biso   1.000  H
  H143     1.0000 0.82180  0.64110  0.70050  Biso   1.000  H
  H144     1.0000 0.32180  0.14110  0.70050  Biso   1.000  H
  H145     1.0000 0.20590  0.78700  0.80350  Biso   1.000  H
  H146     1.0000 0.70590  0.28700  0.80350  Biso   1.000  H
  H147     1.0000 0.20590  0.21300  0.30350  Biso   1.000  H
  H148     1.0000 0.70590  0.71300  0.30350  Biso   1.000  H
  H149     1.0000 0.79410  0.21300  0.19650  Biso   1.000  H
  H150     1.0000 0.29410  0.71300  0.19650  Biso   1.000  H
  H151     1.0000 0.79410  0.78700  0.69650  Biso   1.000  H
  H152     1.0000 0.29410  0.28700  0.69650  Biso   1.000  H
