data_image0
_cell_length_a       7.6409
_cell_length_b       8.9948
_cell_length_c       10.6008
_cell_angle_alpha    68.937
_cell_angle_beta     74.189
_cell_angle_gamma    68.309

_symmetry_space_group_name_H-M    "P 1"
_symmetry_int_tables_number       1

loop_
  _symmetry_equiv_pos_as_xyz
  'x, y, z'

loop_
  _atom_site_label
  _atom_site_occupancy
  _atom_site_fract_x
  _atom_site_fract_y
  _atom_site_fract_z
  _atom_site_thermal_displace_type
  _atom_site_B_iso_or_equiv
  _atom_site_type_symbol
  Cu1      1.0000 0.00000  0.00000  0.00000  Biso   1.000  Cu
  O1       1.0000 0.51594  0.69560  0.23176  Biso   1.000  O
  O2       1.0000 0.48406  0.30440  0.76824  Biso   1.000  O
  O3       1.0000 0.06296  0.90931  0.70663  Biso   1.000  O
  O4       1.0000 0.93704  0.09069  0.29337  Biso   1.000  O
  O5       1.0000 0.19098  0.98668  0.83124  Biso   1.000  O
  O6       1.0000 0.80902  0.01332  0.16876  Biso   1.000  O
  O7       1.0000 0.24532  0.98562  0.10719  Biso   1.000  O
  O8       1.0000 0.75468  0.01438  0.89281  Biso   1.000  O
  N1       1.0000 0.04055  0.75036  0.06056  Biso   1.000  N
  N2       1.0000 0.95945  0.24964  0.93944  Biso   1.000  N
  N3       1.0000 0.76264  0.45675  0.26148  Biso   1.000  N
  N4       1.0000 0.23736  0.54325  0.73852  Biso   1.000  N
  H1       1.0000 0.79340  0.34830  0.30160  Biso   1.000  H
  H2       1.0000 0.20660  0.65170  0.69840  Biso   1.000  H
  C1       1.0000 0.21202  0.64243  0.03391  Biso   1.000  C
  C2       1.0000 0.78798  0.35757  0.96609  Biso   1.000  C
  H3       1.0000 0.31540  0.68420  0.98170  Biso   1.000  H
  H4       1.0000 0.68460  0.31580  0.01830  Biso   1.000  H
  C3       1.0000 0.24221  0.47135  0.08061  Biso   1.000  C
  C4       1.0000 0.75779  0.52865  0.91939  Biso   1.000  C
  H5       1.0000 0.36480  0.39700  0.06020  Biso   1.000  H
  H6       1.0000 0.63520  0.60300  0.93980  Biso   1.000  H
  C5       1.0000 0.09261  0.40953  0.15725  Biso   1.000  C
  C6       1.0000 0.90739  0.59047  0.84275  Biso   1.000  C
  H7       1.0000 0.11180  0.29240  0.19150  Biso   1.000  H
  H8       1.0000 0.88820  0.70760  0.80850  Biso   1.000  H
  C7       1.0000 0.91322  0.52157  0.18356  Biso   1.000  C
  C8       1.0000 0.08678  0.47843  0.81644  Biso   1.000  C
  C9       1.0000 0.89263  0.69294  0.13265  Biso   1.000  C
  C10      1.0000 0.10737  0.30706  0.86735  Biso   1.000  C
  H9       1.0000 0.77100  0.77050  0.14950  Biso   1.000  H
  H10      1.0000 0.22900  0.22950  0.85050  Biso   1.000  H
  C11      1.0000 0.57373  0.54463  0.28131  Biso   1.000  C
  C12      1.0000 0.42627  0.45537  0.71869  Biso   1.000  C
  C13      1.0000 0.44104  0.44276  0.36882  Biso   1.000  C
  C14      1.0000 0.55896  0.55724  0.63118  Biso   1.000  C
  H11      1.0000 0.48760  0.37550  0.45690  Biso   1.000  H
  H12      1.0000 0.51240  0.62450  0.54310  Biso   1.000  H
  H13      1.0000 0.44400  0.36450  0.32170  Biso   1.000  H
  H14      1.0000 0.55600  0.63550  0.67830  Biso   1.000  H
  C15      1.0000 0.23549  0.55105  0.39765  Biso   1.000  C
  C16      1.0000 0.76451  0.44895  0.60235  Biso   1.000  C
  H15      1.0000 0.18880  0.61880  0.30970  Biso   1.000  H
  H16      1.0000 0.81120  0.38120  0.69030  Biso   1.000  H
  H17      1.0000 0.23210  0.62880  0.44550  Biso   1.000  H
  H18      1.0000 0.76790  0.37120  0.55450  Biso   1.000  H
  C17      1.0000 0.10305  0.44644  0.48530  Biso   1.000  C
  C18      1.0000 0.89695  0.55356  0.51470  Biso   1.000  C
  H19      1.0000 0.10680  0.36860  0.43740  Biso   1.000  H
  H20      1.0000 0.89320  0.63140  0.56260  Biso   1.000  H
  H21      1.0000 0.15000  0.37870  0.57320  Biso   1.000  H
  H22      1.0000 0.85000  0.62130  0.42680  Biso   1.000  H
  C19      1.0000 0.18651  0.95797  0.72337  Biso   1.000  C
  C20      1.0000 0.81349  0.04203  0.27663  Biso   1.000  C
  C21      1.0000 0.34898  0.98199  0.60723  Biso   1.000  C
  C22      1.0000 0.65102  0.01801  0.39277  Biso   1.000  C
  C23      1.0000 0.33539  0.98845  0.47639  Biso   1.000  C
  C24      1.0000 0.66461  0.01155  0.52361  Biso   1.000  C
  H23      1.0000 0.22280  0.98100  0.46050  Biso   1.000  H
  H24      1.0000 0.77720  0.01900  0.53950  Biso   1.000  H
  C25      1.0000 0.48621  0.00576  0.36952  Biso   1.000  C
  C26      1.0000 0.51379  0.99424  0.63048  Biso   1.000  C
  H25      1.0000 0.47720  0.00930  0.28080  Biso   1.000  H
  H26      1.0000 0.52280  0.99070  0.71920  Biso   1.000  H
  H27      1.0000 0.16700  0.00700  0.17600  Biso   1.000  H
  H28      1.0000 0.83300  0.99300  0.82400  Biso   1.000  H
  H29      1.0000 0.32200  0.90100  0.13900  Biso   1.000  H
  H30      1.0000 0.67800  0.09900  0.86100  Biso   1.000  H
