data_image0
_cell_length_a       7.416
_cell_length_b       8.207
_cell_length_c       14.137
_cell_angle_alpha    100.333
_cell_angle_beta     105.013
_cell_angle_gamma    94.547

_symmetry_space_group_name_H-M    "P 1"
_symmetry_int_tables_number       1

loop_
  _symmetry_equiv_pos_as_xyz
  'x, y, z'

loop_
  _atom_site_label
  _atom_site_occupancy
  _atom_site_fract_x
  _atom_site_fract_y
  _atom_site_fract_z
  _atom_site_thermal_displace_type
  _atom_site_B_iso_or_equiv
  _atom_site_type_symbol
  Cl1      1.0000 0.35630  0.88340  0.25312  Biso   1.000  Cl
  Cl2      1.0000 0.64370  0.11660  0.74688  Biso   1.000  Cl
  Cl3      1.0000 0.01040  0.68880  0.12550  Biso   1.000  Cl
  Cl4      1.0000 0.98960  0.31120  0.87450  Biso   1.000  Cl
  Cl5      1.0000 0.36370  0.61740  0.09030  Biso   1.000  Cl
  Cl6      1.0000 0.63630  0.38260  0.90970  Biso   1.000  Cl
  C1       1.0000 0.25300  0.68500  0.18250  Biso   1.000  C
  C2       1.0000 0.74700  0.31500  0.81750  Biso   1.000  C
  H1       1.0000 0.26410  0.60590  0.22740  Biso   1.000  H
  H2       1.0000 0.73590  0.39410  0.77260  Biso   1.000  H
  Cu1      1.0000 0.36401  0.41899  0.42287  Biso   1.000  Cu
  Cu2      1.0000 0.63599  0.58101  0.57713  Biso   1.000  Cu
  C3       1.0000 0.79970  0.14410  0.14670  Biso   1.000  C
  C4       1.0000 0.20030  0.85590  0.85330  Biso   1.000  C
  O1       1.0000 0.51400  0.50110  0.33980  Biso   1.000  O
  O2       1.0000 0.48600  0.49890  0.66020  Biso   1.000  O
  O3       1.0000 0.74480  0.63770  0.47290  Biso   1.000  O
  O4       1.0000 0.25520  0.36230  0.52710  Biso   1.000  O
  O5       1.0000 0.26070  0.63360  0.43430  Biso   1.000  O
  O6       1.0000 0.73930  0.36640  0.56570  Biso   1.000  O
  O7       1.0000 0.48670  0.76960  0.56930  Biso   1.000  O
  O8       1.0000 0.51330  0.23040  0.43070  Biso   1.000  O
  N1       1.0000 0.12090  0.29390  0.30130  Biso   1.000  N
  N2       1.0000 0.87910  0.70610  0.69870  Biso   1.000  N
  C5       1.0000 0.66860  0.59120  0.37920  Biso   1.000  C
  C6       1.0000 0.33140  0.40880  0.62080  Biso   1.000  C
  C7       1.0000 0.94910  0.27340  0.31730  Biso   1.000  C
  C8       1.0000 0.05090  0.72660  0.68270  Biso   1.000  C
  H3       1.0000 0.93880  0.31340  0.38130  Biso   1.000  H
  H4       1.0000 0.06120  0.68660  0.61870  Biso   1.000  H
  C9       1.0000 0.33650  0.76200  0.50210  Biso   1.000  C
  C10      1.0000 0.66350  0.23800  0.49790  Biso   1.000  C
  C11      1.0000 0.97420  0.16940  0.12950  Biso   1.000  C
  C12      1.0000 0.02580  0.83060  0.87050  Biso   1.000  C
  H5       1.0000 0.98770  0.13660  0.06550  Biso   1.000  H
  H6       1.0000 0.01230  0.86340  0.93450  Biso   1.000  H
  C13      1.0000 0.12690  0.24310  0.20770  Biso   1.000  C
  C14      1.0000 0.87310  0.75690  0.79230  Biso   1.000  C
  H7       1.0000 0.24280  0.25860  0.19440  Biso   1.000  H
  H8       1.0000 0.75720  0.74140  0.80560  Biso   1.000  H
  C15      1.0000 0.77580  0.64910  0.31200  Biso   1.000  C
  C16      1.0000 0.22420  0.35090  0.68800  Biso   1.000  C
  H9       1.0000 0.89160  0.71620  0.35200  Biso   1.000  H
  H10      1.0000 0.10840  0.28380  0.64800  Biso   1.000  H
  H11      1.0000 0.70140  0.71420  0.27080  Biso   1.000  H
  H12      1.0000 0.29860  0.28580  0.72920  Biso   1.000  H
  H13      1.0000 0.80310  0.55390  0.27030  Biso   1.000  H
  H14      1.0000 0.19690  0.44610  0.72970  Biso   1.000  H
  C17      1.0000 0.78980  0.19720  0.24440  Biso   1.000  C
  C18      1.0000 0.21020  0.80280  0.75560  Biso   1.000  C
  H15      1.0000 0.67610  0.18080  0.25980  Biso   1.000  H
  H16      1.0000 0.32390  0.81920  0.74020  Biso   1.000  H
  C19      1.0000 0.23930  0.91540  0.49840  Biso   1.000  C
  C20      1.0000 0.76070  0.08460  0.50160  Biso   1.000  C
  H17      1.0000 0.12670  0.89110  0.44350  Biso   1.000  H
  H18      1.0000 0.87330  0.10890  0.55650  Biso   1.000  H
  H19      1.0000 0.32180  0.00390  0.48940  Biso   1.000  H
  H20      1.0000 0.67820  0.99610  0.51060  Biso   1.000  H
  H21      1.0000 0.20730  0.94920  0.56000  Biso   1.000  H
  H22      1.0000 0.79270  0.05080  0.44000  Biso   1.000  H
  S1       1.0000 0.42850  0.05310  0.02947  Biso   1.000  S
  S2       1.0000 0.57150  0.94690  0.97053  Biso   1.000  S
  C21      1.0000 0.66260  0.03280  0.05420  Biso   1.000  C
  C22      1.0000 0.33740  0.96720  0.94580  Biso   1.000  C
  C23      1.0000 0.60360  0.09160  0.07630  Biso   1.000  C
  C24      1.0000 0.39640  0.90840  0.92370  Biso   1.000  C
  N3       1.0000 0.71170  0.92710  0.98550  Biso   1.000  N
  N4       1.0000 0.28830  0.07290  0.01450  Biso   1.000  N
  N5       1.0000 0.44830  0.14790  0.09270  Biso   1.000  N
  N6       1.0000 0.55170  0.85210  0.90730  Biso   1.000  N
