data_image0
_cell_length_a       28.07
_cell_length_b       9.289
_cell_length_c       15.235
_cell_angle_alpha    90
_cell_angle_beta     113.537
_cell_angle_gamma    90

_symmetry_space_group_name_H-M    "P 1"
_symmetry_int_tables_number       1

loop_
  _symmetry_equiv_pos_as_xyz
  'x, y, z'

loop_
  _atom_site_label
  _atom_site_occupancy
  _atom_site_fract_x
  _atom_site_fract_y
  _atom_site_fract_z
  _atom_site_thermal_displace_type
  _atom_site_B_iso_or_equiv
  _atom_site_type_symbol
  Cu1      1.0000 0.20908  0.37471  0.39612  Biso   1.000  Cu
  Cu2      1.0000 0.70908  0.87471  0.39612  Biso   1.000  Cu
  Cu3      1.0000 0.20908  0.62529  0.89612  Biso   1.000  Cu
  Cu4      1.0000 0.70908  0.12529  0.89612  Biso   1.000  Cu
  Cu5      1.0000 0.79092  0.62529  0.60388  Biso   1.000  Cu
  Cu6      1.0000 0.29092  0.12529  0.60388  Biso   1.000  Cu
  Cu7      1.0000 0.79092  0.37471  0.10388  Biso   1.000  Cu
  Cu8      1.0000 0.29092  0.87471  0.10388  Biso   1.000  Cu
  S1       1.0000 0.45299  0.69917  0.40585  Biso   1.000  S
  S2       1.0000 0.95299  0.19917  0.40585  Biso   1.000  S
  S3       1.0000 0.45299  0.30083  0.90585  Biso   1.000  S
  S4       1.0000 0.95299  0.80083  0.90585  Biso   1.000  S
  S5       1.0000 0.54701  0.30083  0.59415  Biso   1.000  S
  S6       1.0000 0.04701  0.80083  0.59415  Biso   1.000  S
  S7       1.0000 0.54701  0.69917  0.09415  Biso   1.000  S
  S8       1.0000 0.04701  0.19917  0.09415  Biso   1.000  S
  N1       1.0000 0.27350  0.43910  0.38390  Biso   1.000  N
  N2       1.0000 0.77350  0.93910  0.38390  Biso   1.000  N
  N3       1.0000 0.27350  0.56090  0.88390  Biso   1.000  N
  N4       1.0000 0.77350  0.06090  0.88390  Biso   1.000  N
  N5       1.0000 0.72650  0.56090  0.61610  Biso   1.000  N
  N6       1.0000 0.22650  0.06090  0.61610  Biso   1.000  N
  N7       1.0000 0.72650  0.43910  0.11610  Biso   1.000  N
  N8       1.0000 0.22650  0.93910  0.11610  Biso   1.000  N
  N9       1.0000 0.44618  0.43430  0.36110  Biso   1.000  N
  N10      1.0000 0.94618  0.93430  0.36110  Biso   1.000  N
  N11      1.0000 0.44618  0.56570  0.86110  Biso   1.000  N
  N12      1.0000 0.94618  0.06570  0.86110  Biso   1.000  N
  N13      1.0000 0.55382  0.56570  0.63890  Biso   1.000  N
  N14      1.0000 0.05382  0.06570  0.63890  Biso   1.000  N
  N15      1.0000 0.55382  0.43430  0.13890  Biso   1.000  N
  N16      1.0000 0.05382  0.93430  0.13890  Biso   1.000  N
  N17      1.0000 0.49351  0.47800  0.36620  Biso   1.000  N
  N18      1.0000 0.99351  0.97800  0.36620  Biso   1.000  N
  N19      1.0000 0.49351  0.52200  0.86620  Biso   1.000  N
  N20      1.0000 0.99351  0.02200  0.86620  Biso   1.000  N
  N21      1.0000 0.50649  0.52200  0.63380  Biso   1.000  N
  N22      1.0000 0.00649  0.02200  0.63380  Biso   1.000  N
  N23      1.0000 0.50649  0.47800  0.13380  Biso   1.000  N
  N24      1.0000 0.00649  0.97800  0.13380  Biso   1.000  N
  N25      1.0000 0.64483  0.79510  0.40420  Biso   1.000  N
  N26      1.0000 0.14483  0.29510  0.40420  Biso   1.000  N
  N27      1.0000 0.64483  0.20490  0.90420  Biso   1.000  N
  N28      1.0000 0.14483  0.70490  0.90420  Biso   1.000  N
  N29      1.0000 0.35517  0.20490  0.59580  Biso   1.000  N
  N30      1.0000 0.85517  0.70490  0.59580  Biso   1.000  N
  N31      1.0000 0.35517  0.79510  0.09580  Biso   1.000  N
  N32      1.0000 0.85517  0.29510  0.09580  Biso   1.000  N
  C1       1.0000 0.29957  0.34350  0.35400  Biso   1.000  C
  C2       1.0000 0.79957  0.84350  0.35400  Biso   1.000  C
  C3       1.0000 0.29957  0.65650  0.85400  Biso   1.000  C
  C4       1.0000 0.79957  0.15650  0.85400  Biso   1.000  C
  C5       1.0000 0.70043  0.65650  0.64600  Biso   1.000  C
  C6       1.0000 0.20043  0.15650  0.64600  Biso   1.000  C
  C7       1.0000 0.70043  0.34350  0.14600  Biso   1.000  C
  C8       1.0000 0.20043  0.84350  0.14600  Biso   1.000  C
  H1       1.0000 0.28510  0.25310  0.33420  Biso   1.000  H
  H2       1.0000 0.78510  0.75310  0.33420  Biso   1.000  H
  H3       1.0000 0.28510  0.74690  0.83420  Biso   1.000  H
  H4       1.0000 0.78510  0.24690  0.83420  Biso   1.000  H
  H5       1.0000 0.71490  0.74690  0.66580  Biso   1.000  H
  H6       1.0000 0.21490  0.24690  0.66580  Biso   1.000  H
  H7       1.0000 0.71490  0.25310  0.16580  Biso   1.000  H
  H8       1.0000 0.21490  0.75310  0.16580  Biso   1.000  H
  C9       1.0000 0.34689  0.37400  0.35150  Biso   1.000  C
  C10      1.0000 0.84689  0.87400  0.35150  Biso   1.000  C
  C11      1.0000 0.34689  0.62600  0.85150  Biso   1.000  C
  C12      1.0000 0.84689  0.12600  0.85150  Biso   1.000  C
  C13      1.0000 0.65311  0.62600  0.64850  Biso   1.000  C
  C14      1.0000 0.15311  0.12600  0.64850  Biso   1.000  C
  C15      1.0000 0.65311  0.37400  0.14850  Biso   1.000  C
  C16      1.0000 0.15311  0.87400  0.14850  Biso   1.000  C
  H9       1.0000 0.36420  0.30500  0.33120  Biso   1.000  H
  H10      1.0000 0.86420  0.80500  0.33120  Biso   1.000  H
  H11      1.0000 0.36420  0.69500  0.83120  Biso   1.000  H
  H12      1.0000 0.86420  0.19500  0.83120  Biso   1.000  H
  H13      1.0000 0.63580  0.69500  0.66880  Biso   1.000  H
  H14      1.0000 0.13580  0.19500  0.66880  Biso   1.000  H
  H15      1.0000 0.63580  0.30500  0.16880  Biso   1.000  H
  H16      1.0000 0.13580  0.80500  0.16880  Biso   1.000  H
  C17      1.0000 0.36836  0.50940  0.37960  Biso   1.000  C
  C18      1.0000 0.86836  0.00940  0.37960  Biso   1.000  C
  C19      1.0000 0.36836  0.49060  0.87960  Biso   1.000  C
  C20      1.0000 0.86836  0.99060  0.87960  Biso   1.000  C
  C21      1.0000 0.63164  0.49060  0.62040  Biso   1.000  C
  C22      1.0000 0.13164  0.99060  0.62040  Biso   1.000  C
  C23      1.0000 0.63164  0.50940  0.12040  Biso   1.000  C
  C24      1.0000 0.13164  0.00940  0.12040  Biso   1.000  C
  C25      1.0000 0.34055  0.61030  0.40660  Biso   1.000  C
  C26      1.0000 0.84055  0.11030  0.40660  Biso   1.000  C
  C27      1.0000 0.34055  0.38970  0.90660  Biso   1.000  C
  C28      1.0000 0.84055  0.88970  0.90660  Biso   1.000  C
  C29      1.0000 0.65945  0.38970  0.59340  Biso   1.000  C
  C30      1.0000 0.15945  0.88970  0.59340  Biso   1.000  C
  C31      1.0000 0.65945  0.61030  0.09340  Biso   1.000  C
  C32      1.0000 0.15945  0.11030  0.09340  Biso   1.000  C
  H17      1.0000 0.35340  0.70310  0.42360  Biso   1.000  H
  H18      1.0000 0.85340  0.20310  0.42360  Biso   1.000  H
  H19      1.0000 0.35340  0.29690  0.92360  Biso   1.000  H
  H20      1.0000 0.85340  0.79690  0.92360  Biso   1.000  H
  H21      1.0000 0.64660  0.29690  0.57640  Biso   1.000  H
  H22      1.0000 0.14660  0.79690  0.57640  Biso   1.000  H
  H23      1.0000 0.64660  0.70310  0.07640  Biso   1.000  H
  H24      1.0000 0.14660  0.20310  0.07640  Biso   1.000  H
  C33      1.0000 0.29351  0.57120  0.40810  Biso   1.000  C
  C34      1.0000 0.79351  0.07120  0.40810  Biso   1.000  C
  C35      1.0000 0.29351  0.42880  0.90810  Biso   1.000  C
  C36      1.0000 0.79351  0.92880  0.90810  Biso   1.000  C
  C37      1.0000 0.70649  0.42880  0.59190  Biso   1.000  C
  C38      1.0000 0.20649  0.92880  0.59190  Biso   1.000  C
  C39      1.0000 0.70649  0.57120  0.09190  Biso   1.000  C
  C40      1.0000 0.20649  0.07120  0.09190  Biso   1.000  C
  H25      1.0000 0.27500  0.63910  0.42650  Biso   1.000  H
  H26      1.0000 0.77500  0.13910  0.42650  Biso   1.000  H
  H27      1.0000 0.27500  0.36090  0.92650  Biso   1.000  H
  H28      1.0000 0.77500  0.86090  0.92650  Biso   1.000  H
  H29      1.0000 0.72500  0.36090  0.57350  Biso   1.000  H
  H30      1.0000 0.22500  0.86090  0.57350  Biso   1.000  H
  H31      1.0000 0.72500  0.63910  0.07350  Biso   1.000  H
  H32      1.0000 0.22500  0.13910  0.07350  Biso   1.000  H
  C41      1.0000 0.42023  0.53770  0.38000  Biso   1.000  C
  C42      1.0000 0.92023  0.03770  0.38000  Biso   1.000  C
  C43      1.0000 0.42023  0.46230  0.88000  Biso   1.000  C
  C44      1.0000 0.92023  0.96230  0.88000  Biso   1.000  C
  C45      1.0000 0.57977  0.46230  0.62000  Biso   1.000  C
  C46      1.0000 0.07977  0.96230  0.62000  Biso   1.000  C
  C47      1.0000 0.57977  0.53770  0.12000  Biso   1.000  C
  C48      1.0000 0.07977  0.03770  0.12000  Biso   1.000  C
  C49      1.0000 0.50282  0.61260  0.38910  Biso   1.000  C
  C50      1.0000 0.00282  0.11260  0.38910  Biso   1.000  C
  C51      1.0000 0.50282  0.38740  0.88910  Biso   1.000  C
  C52      1.0000 0.00282  0.88740  0.88910  Biso   1.000  C
  C53      1.0000 0.49718  0.38740  0.61090  Biso   1.000  C
  C54      1.0000 0.99718  0.88740  0.61090  Biso   1.000  C
  C55      1.0000 0.49718  0.61260  0.11090  Biso   1.000  C
  C56      1.0000 0.99718  0.11260  0.11090  Biso   1.000  C
  C57      1.0000 0.55241  0.67900  0.39770  Biso   1.000  C
  C58      1.0000 0.05241  0.17900  0.39770  Biso   1.000  C
  C59      1.0000 0.55241  0.32100  0.89770  Biso   1.000  C
  C60      1.0000 0.05241  0.82100  0.89770  Biso   1.000  C
  C61      1.0000 0.44759  0.32100  0.60230  Biso   1.000  C
  C62      1.0000 0.94759  0.82100  0.60230  Biso   1.000  C
  C63      1.0000 0.44759  0.67900  0.10230  Biso   1.000  C
  C64      1.0000 0.94759  0.17900  0.10230  Biso   1.000  C
  C65      1.0000 0.56902  0.81180  0.43780  Biso   1.000  C
  C66      1.0000 0.06902  0.31180  0.43780  Biso   1.000  C
  C67      1.0000 0.56902  0.18820  0.93780  Biso   1.000  C
  C68      1.0000 0.06902  0.68820  0.93780  Biso   1.000  C
  C69      1.0000 0.43098  0.18820  0.56220  Biso   1.000  C
  C70      1.0000 0.93098  0.68820  0.56220  Biso   1.000  C
  C71      1.0000 0.43098  0.81180  0.06220  Biso   1.000  C
  C72      1.0000 0.93098  0.31180  0.06220  Biso   1.000  C
  H33      1.0000 0.54940  0.86470  0.46310  Biso   1.000  H
  H34      1.0000 0.04940  0.36470  0.46310  Biso   1.000  H
  H35      1.0000 0.54940  0.13530  0.96310  Biso   1.000  H
  H36      1.0000 0.04940  0.63530  0.96310  Biso   1.000  H
  H37      1.0000 0.45060  0.13530  0.53690  Biso   1.000  H
  H38      1.0000 0.95060  0.63530  0.53690  Biso   1.000  H
  H39      1.0000 0.45060  0.86470  0.03690  Biso   1.000  H
  H40      1.0000 0.95060  0.36470  0.03690  Biso   1.000  H
  C73      1.0000 0.61531  0.86550  0.43990  Biso   1.000  C
  C74      1.0000 0.11531  0.36550  0.43990  Biso   1.000  C
  C75      1.0000 0.61531  0.13450  0.93990  Biso   1.000  C
  C76      1.0000 0.11531  0.63450  0.93990  Biso   1.000  C
  C77      1.0000 0.38469  0.13450  0.56010  Biso   1.000  C
  C78      1.0000 0.88469  0.63450  0.56010  Biso   1.000  C
  C79      1.0000 0.38469  0.86550  0.06010  Biso   1.000  C
  C80      1.0000 0.88469  0.36550  0.06010  Biso   1.000  C
  H41      1.0000 0.62640  0.95530  0.46750  Biso   1.000  H
  H42      1.0000 0.12640  0.45530  0.46750  Biso   1.000  H
  H43      1.0000 0.62640  0.04470  0.96750  Biso   1.000  H
  H44      1.0000 0.12640  0.54470  0.96750  Biso   1.000  H
  H45      1.0000 0.37360  0.04470  0.53250  Biso   1.000  H
  H46      1.0000 0.87360  0.54470  0.53250  Biso   1.000  H
  H47      1.0000 0.37360  0.95530  0.03250  Biso   1.000  H
  H48      1.0000 0.87360  0.45530  0.03250  Biso   1.000  H
  C81      1.0000 0.62923  0.66380  0.36730  Biso   1.000  C
  C82      1.0000 0.12923  0.16380  0.36730  Biso   1.000  C
  C83      1.0000 0.62923  0.33620  0.86730  Biso   1.000  C
  C84      1.0000 0.12923  0.83620  0.86730  Biso   1.000  C
  C85      1.0000 0.37077  0.33620  0.63270  Biso   1.000  C
  C86      1.0000 0.87077  0.83620  0.63270  Biso   1.000  C
  C87      1.0000 0.37077  0.66380  0.13270  Biso   1.000  C
  C88      1.0000 0.87077  0.16380  0.13270  Biso   1.000  C
  H49      1.0000 0.65000  0.61230  0.34390  Biso   1.000  H
  H50      1.0000 0.15000  0.11230  0.34390  Biso   1.000  H
  H51      1.0000 0.65000  0.38770  0.84390  Biso   1.000  H
  H52      1.0000 0.15000  0.88770  0.84390  Biso   1.000  H
  H53      1.0000 0.35000  0.38770  0.65610  Biso   1.000  H
  H54      1.0000 0.85000  0.88770  0.65610  Biso   1.000  H
  H55      1.0000 0.35000  0.61230  0.15610  Biso   1.000  H
  H56      1.0000 0.85000  0.11230  0.15610  Biso   1.000  H
  C89      1.0000 0.58395  0.60270  0.36280  Biso   1.000  C
  C90      1.0000 0.08395  0.10270  0.36280  Biso   1.000  C
  C91      1.0000 0.58395  0.39730  0.86280  Biso   1.000  C
  C92      1.0000 0.08395  0.89730  0.86280  Biso   1.000  C
  C93      1.0000 0.41605  0.39730  0.63720  Biso   1.000  C
  C94      1.0000 0.91605  0.89730  0.63720  Biso   1.000  C
  C95      1.0000 0.41605  0.60270  0.13720  Biso   1.000  C
  C96      1.0000 0.91605  0.10270  0.13720  Biso   1.000  C
  H57      1.0000 0.57430  0.51130  0.33670  Biso   1.000  H
  H58      1.0000 0.07430  0.01130  0.33670  Biso   1.000  H
  H59      1.0000 0.57430  0.48870  0.83670  Biso   1.000  H
  H60      1.0000 0.07430  0.98870  0.83670  Biso   1.000  H
  H61      1.0000 0.42570  0.48870  0.66330  Biso   1.000  H
  H62      1.0000 0.92570  0.98870  0.66330  Biso   1.000  H
  H63      1.0000 0.42570  0.51130  0.16330  Biso   1.000  H
  H64      1.0000 0.92570  0.01130  0.16330  Biso   1.000  H
  O1       1.0000 0.17472  0.34070  0.25517  Biso   1.000  O
  O2       1.0000 0.67472  0.84070  0.25517  Biso   1.000  O
  O3       1.0000 0.17472  0.65930  0.75517  Biso   1.000  O
  O4       1.0000 0.67472  0.15930  0.75517  Biso   1.000  O
  O5       1.0000 0.82528  0.65930  0.74483  Biso   1.000  O
  O6       1.0000 0.32528  0.15930  0.74483  Biso   1.000  O
  O7       1.0000 0.82528  0.34070  0.24483  Biso   1.000  O
  O8       1.0000 0.32528  0.84070  0.24483  Biso   1.000  O
  O9       1.0000 0.16541  0.56670  0.27190  Biso   1.000  O
  O10      1.0000 0.66541  0.06670  0.27190  Biso   1.000  O
  O11      1.0000 0.16541  0.43330  0.77190  Biso   1.000  O
  O12      1.0000 0.66541  0.93330  0.77190  Biso   1.000  O
  O13      1.0000 0.83459  0.43330  0.72810  Biso   1.000  O
  O14      1.0000 0.33459  0.93330  0.72810  Biso   1.000  O
  O15      1.0000 0.83459  0.56670  0.22810  Biso   1.000  O
  O16      1.0000 0.33459  0.06670  0.22810  Biso   1.000  O
  O17      1.0000 0.13304  0.46990  0.13050  Biso   1.000  O
  O18      1.0000 0.63304  0.96990  0.13050  Biso   1.000  O
  O19      1.0000 0.13304  0.53010  0.63050  Biso   1.000  O
  O20      1.0000 0.63304  0.03010  0.63050  Biso   1.000  O
  O21      1.0000 0.86696  0.53010  0.86950  Biso   1.000  O
  O22      1.0000 0.36696  0.03010  0.86950  Biso   1.000  O
  O23      1.0000 0.86696  0.46990  0.36950  Biso   1.000  O
  O24      1.0000 0.36696  0.96990  0.36950  Biso   1.000  O
  N33      1.0000 0.15711  0.46300  0.21710  Biso   1.000  N
  N34      1.0000 0.65711  0.96300  0.21710  Biso   1.000  N
  N35      1.0000 0.15711  0.53700  0.71710  Biso   1.000  N
  N36      1.0000 0.65711  0.03700  0.71710  Biso   1.000  N
  N37      1.0000 0.84289  0.53700  0.78290  Biso   1.000  N
  N38      1.0000 0.34289  0.03700  0.78290  Biso   1.000  N
  N39      1.0000 0.84289  0.46300  0.28290  Biso   1.000  N
  N40      1.0000 0.34289  0.96300  0.28290  Biso   1.000  N
  O25      1.0000 0.24597  0.37680  0.53935  Biso   1.000  O
  O26      1.0000 0.74597  0.87680  0.53935  Biso   1.000  O
  O27      1.0000 0.24597  0.62320  0.03935  Biso   1.000  O
  O28      1.0000 0.74597  0.12320  0.03935  Biso   1.000  O
  O29      1.0000 0.75403  0.62320  0.46065  Biso   1.000  O
  O30      1.0000 0.25403  0.12320  0.46065  Biso   1.000  O
  O31      1.0000 0.75403  0.37680  0.96065  Biso   1.000  O
  O32      1.0000 0.25403  0.87680  0.96065  Biso   1.000  O
  O33      1.0000 0.21234  0.58950  0.51250  Biso   1.000  O
  O34      1.0000 0.71234  0.08950  0.51250  Biso   1.000  O
  O35      1.0000 0.21234  0.41050  0.01250  Biso   1.000  O
  O36      1.0000 0.71234  0.91050  0.01250  Biso   1.000  O
  O37      1.0000 0.78766  0.41050  0.48750  Biso   1.000  O
  O38      1.0000 0.28766  0.91050  0.48750  Biso   1.000  O
  O39      1.0000 0.78766  0.58950  0.98750  Biso   1.000  O
  O40      1.0000 0.28766  0.08950  0.98750  Biso   1.000  O
  O41      1.0000 0.25963  0.52030  0.65790  Biso   1.000  O
  O42      1.0000 0.75963  0.02030  0.65790  Biso   1.000  O
  O43      1.0000 0.25963  0.47970  0.15790  Biso   1.000  O
  O44      1.0000 0.75963  0.97970  0.15790  Biso   1.000  O
  O45      1.0000 0.74037  0.47970  0.34210  Biso   1.000  O
  O46      1.0000 0.24037  0.97970  0.34210  Biso   1.000  O
  O47      1.0000 0.74037  0.52030  0.84210  Biso   1.000  O
  O48      1.0000 0.24037  0.02030  0.84210  Biso   1.000  O
  N41      1.0000 0.23938  0.50140  0.57170  Biso   1.000  N
  N42      1.0000 0.73938  0.00140  0.57170  Biso   1.000  N
  N43      1.0000 0.23938  0.49860  0.07170  Biso   1.000  N
  N44      1.0000 0.73938  0.99860  0.07170  Biso   1.000  N
  N45      1.0000 0.76062  0.49860  0.42830  Biso   1.000  N
  N46      1.0000 0.26062  0.99860  0.42830  Biso   1.000  N
  N47      1.0000 0.76062  0.50140  0.92830  Biso   1.000  N
  N48      1.0000 0.26062  0.00140  0.92830  Biso   1.000  N
  Cl1      1.0000 0.47110  0.07450  0.30860  Biso   1.000  Cl
  Cl2      1.0000 0.97110  0.57450  0.30860  Biso   1.000  Cl
  Cl3      1.0000 0.47110  0.92550  0.80860  Biso   1.000  Cl
  Cl4      1.0000 0.97110  0.42550  0.80860  Biso   1.000  Cl
  Cl5      1.0000 0.52890  0.92550  0.69140  Biso   1.000  Cl
  Cl6      1.0000 0.02890  0.42550  0.69140  Biso   1.000  Cl
  Cl7      1.0000 0.52890  0.07450  0.19140  Biso   1.000  Cl
  Cl8      1.0000 0.02890  0.57450  0.19140  Biso   1.000  Cl
  Cl9      1.0000 0.57748  0.20380  0.36660  Biso   1.000  Cl
  Cl10     1.0000 0.07748  0.70380  0.36660  Biso   1.000  Cl
  Cl11     1.0000 0.57748  0.79620  0.86660  Biso   1.000  Cl
  Cl12     1.0000 0.07748  0.29620  0.86660  Biso   1.000  Cl
  Cl13     1.0000 0.42252  0.79620  0.63340  Biso   1.000  Cl
  Cl14     1.0000 0.92252  0.29620  0.63340  Biso   1.000  Cl
  Cl15     1.0000 0.42252  0.20380  0.13340  Biso   1.000  Cl
  Cl16     1.0000 0.92252  0.70380  0.13340  Biso   1.000  Cl
  C97      1.0000 0.51640  0.16750  0.27360  Biso   1.000  C
  C98      1.0000 0.01640  0.66750  0.27360  Biso   1.000  C
  C99      1.0000 0.51640  0.83250  0.77360  Biso   1.000  C
  C100     1.0000 0.01640  0.33250  0.77360  Biso   1.000  C
  C101     1.0000 0.48360  0.83250  0.72640  Biso   1.000  C
  C102     1.0000 0.98360  0.33250  0.72640  Biso   1.000  C
  C103     1.0000 0.48360  0.16750  0.22640  Biso   1.000  C
  C104     1.0000 0.98360  0.66750  0.22640  Biso   1.000  C
  H65      1.0000 0.50000  0.25800  0.25000  Biso   1.000  H
  H66      1.0000 0.00000  0.75800  0.25000  Biso   1.000  H
  H67      1.0000 0.50000  0.74200  0.75000  Biso   1.000  H
  H68      1.0000 0.00000  0.24200  0.75000  Biso   1.000  H
