data_image0
_cell_length_a       11.815
_cell_length_b       12.797
_cell_length_c       16.748
_cell_angle_alpha    90
_cell_angle_beta     110.31
_cell_angle_gamma    90

_symmetry_space_group_name_H-M    "P 1"
_symmetry_int_tables_number       1

loop_
  _symmetry_equiv_pos_as_xyz
  'x, y, z'

loop_
  _atom_site_label
  _atom_site_occupancy
  _atom_site_fract_x
  _atom_site_fract_y
  _atom_site_fract_z
  _atom_site_thermal_displace_type
  _atom_site_B_iso_or_equiv
  _atom_site_type_symbol
  Cu1      1.0000 0.14884  0.11359  0.12623  Biso   1.000  Cu
  Cu2      1.0000 0.35116  0.61359  0.37377  Biso   1.000  Cu
  Cu3      1.0000 0.85116  0.88641  0.87377  Biso   1.000  Cu
  Cu4      1.0000 0.64884  0.38641  0.62623  Biso   1.000  Cu
  S1       1.0000 0.32516  0.22481  0.03254  Biso   1.000  S
  S2       1.0000 0.17484  0.72481  0.46746  Biso   1.000  S
  S3       1.0000 0.67484  0.77519  0.96746  Biso   1.000  S
  S4       1.0000 0.82516  0.27519  0.53254  Biso   1.000  S
  S5       1.0000 0.00569  0.13197  0.25868  Biso   1.000  S
  S6       1.0000 0.49431  0.63197  0.24132  Biso   1.000  S
  S7       1.0000 0.99431  0.86803  0.74132  Biso   1.000  S
  S8       1.0000 0.50569  0.36803  0.75868  Biso   1.000  S
  O1       1.0000 0.24580  0.30610  0.98520  Biso   1.000  O
  O2       1.0000 0.25420  0.80610  0.51480  Biso   1.000  O
  O3       1.0000 0.75420  0.69390  0.01480  Biso   1.000  O
  O4       1.0000 0.74580  0.19390  0.48520  Biso   1.000  O
  O5       1.0000 0.41620  0.25630  0.10970  Biso   1.000  O
  O6       1.0000 0.08380  0.75630  0.39030  Biso   1.000  O
  O7       1.0000 0.58380  0.74370  0.89030  Biso   1.000  O
  O8       1.0000 0.91620  0.24370  0.60970  Biso   1.000  O
  O9       1.0000 0.20880  0.95660  0.00770  Biso   1.000  O
  O10      1.0000 0.29120  0.45660  0.49230  Biso   1.000  O
  O11      1.0000 0.79120  0.04340  0.99230  Biso   1.000  O
  O12      1.0000 0.70880  0.54340  0.50770  Biso   1.000  O
  O13      1.0000 0.11180  0.15660  0.33050  Biso   1.000  O
  O14      1.0000 0.38820  0.65660  0.16950  Biso   1.000  O
  O15      1.0000 0.88820  0.84340  0.66950  Biso   1.000  O
  O16      1.0000 0.61180  0.34340  0.83050  Biso   1.000  O
  O17      1.0000 0.93100  0.21800  0.21800  Biso   1.000  O
  O18      1.0000 0.56900  0.71800  0.28200  Biso   1.000  O
  O19      1.0000 0.06900  0.78200  0.78200  Biso   1.000  O
  O20      1.0000 0.43100  0.28200  0.71800  Biso   1.000  O
  O21      1.0000 0.01320  0.89610  0.13620  Biso   1.000  O
  O22      1.0000 0.48680  0.39610  0.36380  Biso   1.000  O
  O23      1.0000 0.98680  0.10390  0.86380  Biso   1.000  O
  O24      1.0000 0.51320  0.60390  0.63620  Biso   1.000  O
  O25      1.0000 0.14720  0.28890  0.15980  Biso   1.000  O
  O26      1.0000 0.35280  0.78890  0.34020  Biso   1.000  O
  O27      1.0000 0.85280  0.71110  0.84020  Biso   1.000  O
  O28      1.0000 0.64720  0.21110  0.65980  Biso   1.000  O
  O29      1.0000 0.00270  0.12570  0.02310  Biso   1.000  O
  O30      1.0000 0.49730  0.62570  0.47690  Biso   1.000  O
  O31      1.0000 0.99730  0.87430  0.97690  Biso   1.000  O
  O32      1.0000 0.50270  0.37430  0.52310  Biso   1.000  O
  O33      1.0000 0.26350  0.02540  0.46550  Biso   1.000  O
  O34      1.0000 0.23650  0.52540  0.03450  Biso   1.000  O
  O35      1.0000 0.73650  0.97460  0.53450  Biso   1.000  O
  O36      1.0000 0.76350  0.47460  0.96550  Biso   1.000  O
  N1       1.0000 0.24760  0.12640  0.04910  Biso   1.000  N
  N2       1.0000 0.25240  0.62640  0.45090  Biso   1.000  N
  N3       1.0000 0.75240  0.87360  0.95090  Biso   1.000  N
  N4       1.0000 0.74760  0.37360  0.54910  Biso   1.000  N
  N5       1.0000 0.04220  0.06180  0.18930  Biso   1.000  N
  N6       1.0000 0.45780  0.56180  0.31070  Biso   1.000  N
  N7       1.0000 0.95780  0.93820  0.81070  Biso   1.000  N
  N8       1.0000 0.54220  0.43820  0.68930  Biso   1.000  N
  N9       1.0000 0.20530  0.58230  0.27170  Biso   1.000  N
  N10      1.0000 0.29470  0.08230  0.22830  Biso   1.000  N
  N11      1.0000 0.79470  0.41770  0.72830  Biso   1.000  N
  N12      1.0000 0.70530  0.91770  0.77170  Biso   1.000  N
  N13      1.0000 0.97280  0.34020  0.06050  Biso   1.000  N
  N14      1.0000 0.52720  0.84020  0.43950  Biso   1.000  N
  N15      1.0000 0.02720  0.65980  0.93950  Biso   1.000  N
  N16      1.0000 0.47280  0.15980  0.56050  Biso   1.000  N
  C1       1.0000 0.38590  0.15580  0.96590  Biso   1.000  C
  C2       1.0000 0.11410  0.65580  0.53410  Biso   1.000  C
  C3       1.0000 0.61410  0.84420  0.03410  Biso   1.000  C
  C4       1.0000 0.88590  0.34420  0.46590  Biso   1.000  C
  C5       1.0000 0.46850  0.18780  0.92890  Biso   1.000  C
  C6       1.0000 0.03150  0.68780  0.57110  Biso   1.000  C
  C7       1.0000 0.53150  0.81220  0.07110  Biso   1.000  C
  C8       1.0000 0.96850  0.31220  0.42890  Biso   1.000  C
  C9       1.0000 0.49820  0.11670  0.87740  Biso   1.000  C
  C10      1.0000 0.00180  0.61670  0.62260  Biso   1.000  C
  C11      1.0000 0.50180  0.88330  0.12260  Biso   1.000  C
  C12      1.0000 0.99820  0.38330  0.37740  Biso   1.000  C
  C13      1.0000 0.44820  0.01840  0.86380  Biso   1.000  C
  C14      1.0000 0.05180  0.51840  0.63620  Biso   1.000  C
  C15      1.0000 0.55180  0.98160  0.13620  Biso   1.000  C
  C16      1.0000 0.94820  0.48160  0.36380  Biso   1.000  C
  C17      1.0000 0.36740  0.98570  0.90240  Biso   1.000  C
  C18      1.0000 0.13260  0.48570  0.59760  Biso   1.000  C
  C19      1.0000 0.63260  0.01430  0.09760  Biso   1.000  C
  C20      1.0000 0.86740  0.51430  0.40240  Biso   1.000  C
  C21      1.0000 0.33770  0.05680  0.95430  Biso   1.000  C
  C22      1.0000 0.16230  0.55680  0.54570  Biso   1.000  C
  C23      1.0000 0.66230  0.94320  0.04570  Biso   1.000  C
  C24      1.0000 0.83770  0.44320  0.45430  Biso   1.000  C
  C25      1.0000 0.25760  0.04030  0.00500  Biso   1.000  C
  C26      1.0000 0.24240  0.54030  0.49500  Biso   1.000  C
  C27      1.0000 0.74240  0.95970  0.99500  Biso   1.000  C
  C28      1.0000 0.75760  0.45970  0.50500  Biso   1.000  C
  C29      1.0000 0.92080  0.03370  0.28490  Biso   1.000  C
  C30      1.0000 0.57920  0.53370  0.21510  Biso   1.000  C
  C31      1.0000 0.07920  0.96630  0.71510  Biso   1.000  C
  C32      1.0000 0.42080  0.46630  0.78490  Biso   1.000  C
  C33      1.0000 0.85790  0.03710  0.34060  Biso   1.000  C
  C34      1.0000 0.64210  0.53710  0.15940  Biso   1.000  C
  C35      1.0000 0.14210  0.96290  0.65940  Biso   1.000  C
  C36      1.0000 0.35790  0.46290  0.84060  Biso   1.000  C
  C37      1.0000 0.79890  0.94620  0.34840  Biso   1.000  C
  C38      1.0000 0.70110  0.44620  0.15160  Biso   1.000  C
  C39      1.0000 0.20110  0.05380  0.65160  Biso   1.000  C
  C40      1.0000 0.29890  0.55380  0.84840  Biso   1.000  C
  C41      1.0000 0.80210  0.85840  0.30300  Biso   1.000  C
  C42      1.0000 0.69790  0.35840  0.19700  Biso   1.000  C
  C43      1.0000 0.19790  0.14160  0.69700  Biso   1.000  C
  C44      1.0000 0.30210  0.64160  0.80300  Biso   1.000  C
  C45      1.0000 0.86440  0.85610  0.24640  Biso   1.000  C
  C46      1.0000 0.63560  0.35610  0.25360  Biso   1.000  C
  C47      1.0000 0.13560  0.14390  0.75360  Biso   1.000  C
  C48      1.0000 0.36440  0.64390  0.74640  Biso   1.000  C
  C49      1.0000 0.92400  0.94610  0.23870  Biso   1.000  C
  C50      1.0000 0.57600  0.44610  0.26130  Biso   1.000  C
  C51      1.0000 0.07600  0.05390  0.76130  Biso   1.000  C
  C52      1.0000 0.42400  0.55390  0.73870  Biso   1.000  C
  C53      1.0000 0.99620  0.96400  0.18260  Biso   1.000  C
  C54      1.0000 0.50380  0.46400  0.31740  Biso   1.000  C
  C55      1.0000 0.00380  0.03600  0.81740  Biso   1.000  C
  C56      1.0000 0.49620  0.53600  0.68260  Biso   1.000  C
  C57      1.0000 0.18260  0.48610  0.23830  Biso   1.000  C
  C58      1.0000 0.31740  0.98610  0.26170  Biso   1.000  C
  C59      1.0000 0.81740  0.51390  0.76170  Biso   1.000  C
  C60      1.0000 0.68260  0.01390  0.73830  Biso   1.000  C
  C61      1.0000 0.08570  0.46520  0.16450  Biso   1.000  C
  C62      1.0000 0.41430  0.96520  0.33550  Biso   1.000  C
  C63      1.0000 0.91430  0.53480  0.83550  Biso   1.000  C
  C64      1.0000 0.58570  0.03480  0.66450  Biso   1.000  C
  C65      1.0000 0.01070  0.54760  0.12530  Biso   1.000  C
  C66      1.0000 0.48930  0.04760  0.37470  Biso   1.000  C
  C67      1.0000 0.98930  0.45240  0.87470  Biso   1.000  C
  C68      1.0000 0.51070  0.95240  0.62530  Biso   1.000  C
  C69      1.0000 0.03450  0.64620  0.15980  Biso   1.000  C
  C70      1.0000 0.46550  0.14620  0.34020  Biso   1.000  C
  C71      1.0000 0.96550  0.35380  0.84020  Biso   1.000  C
  C72      1.0000 0.53450  0.85380  0.65980  Biso   1.000  C
  C73      1.0000 0.13290  0.66140  0.23300  Biso   1.000  C
  C74      1.0000 0.36710  0.16140  0.26700  Biso   1.000  C
  C75      1.0000 0.86710  0.33860  0.76700  Biso   1.000  C
  C76      1.0000 0.63290  0.83860  0.73300  Biso   1.000  C
  C77      1.0000 0.06970  0.35690  0.12830  Biso   1.000  C
  C78      1.0000 0.43030  0.85690  0.37170  Biso   1.000  C
  C79      1.0000 0.93030  0.64310  0.87170  Biso   1.000  C
  C80      1.0000 0.56970  0.14310  0.62830  Biso   1.000  C
  H1       1.0000 0.51200  0.25500  0.94800  Biso   1.000  H
  H2       1.0000 0.98800  0.75500  0.55200  Biso   1.000  H
  H3       1.0000 0.48800  0.74500  0.05200  Biso   1.000  H
  H4       1.0000 0.01200  0.24500  0.44800  Biso   1.000  H
  H5       1.0000 0.57600  0.13800  0.85900  Biso   1.000  H
  H6       1.0000 0.92400  0.63800  0.64100  Biso   1.000  H
  H7       1.0000 0.42400  0.86200  0.14100  Biso   1.000  H
  H8       1.0000 0.07600  0.36200  0.35900  Biso   1.000  H
  H9       1.0000 0.47400  0.97000  0.83300  Biso   1.000  H
  H10      1.0000 0.02600  0.47000  0.66700  Biso   1.000  H
  H11      1.0000 0.52600  0.03000  0.16700  Biso   1.000  H
  H12      1.0000 0.97400  0.53000  0.33300  Biso   1.000  H
  H13      1.0000 0.33100  0.92000  0.89700  Biso   1.000  H
  H14      1.0000 0.16900  0.42000  0.60300  Biso   1.000  H
  H15      1.0000 0.66900  0.08000  0.10300  Biso   1.000  H
  H16      1.0000 0.83100  0.58000  0.39700  Biso   1.000  H
  H17      1.0000 0.85700  0.09100  0.36900  Biso   1.000  H
  H18      1.0000 0.64300  0.59100  0.13100  Biso   1.000  H
  H19      1.0000 0.14300  0.90900  0.63100  Biso   1.000  H
  H20      1.0000 0.35700  0.40900  0.86900  Biso   1.000  H
  H21      1.0000 0.74500  0.94700  0.38200  Biso   1.000  H
  H22      1.0000 0.75500  0.44700  0.11800  Biso   1.000  H
  H23      1.0000 0.25500  0.05300  0.61800  Biso   1.000  H
  H24      1.0000 0.24500  0.55300  0.88200  Biso   1.000  H
  H25      1.0000 0.76000  0.80000  0.30400  Biso   1.000  H
  H26      1.0000 0.74000  0.30000  0.19600  Biso   1.000  H
  H27      1.0000 0.24000  0.20000  0.69600  Biso   1.000  H
  H28      1.0000 0.26000  0.70000  0.80400  Biso   1.000  H
  H29      1.0000 0.86500  0.79700  0.21300  Biso   1.000  H
  H30      1.0000 0.63500  0.29700  0.28700  Biso   1.000  H
  H31      1.0000 0.13500  0.20300  0.78700  Biso   1.000  H
  H32      1.0000 0.36500  0.70300  0.71300  Biso   1.000  H
  H33      1.0000 0.24000  0.43000  0.26800  Biso   1.000  H
  H34      1.0000 0.26000  0.93000  0.23200  Biso   1.000  H
  H35      1.0000 0.76000  0.57000  0.73200  Biso   1.000  H
  H36      1.0000 0.74000  0.07000  0.76800  Biso   1.000  H
  H37      1.0000 0.94800  0.53700  0.07800  Biso   1.000  H
  H38      1.0000 0.55200  0.03700  0.42200  Biso   1.000  H
  H39      1.0000 0.05200  0.46300  0.92200  Biso   1.000  H
  H40      1.0000 0.44800  0.96300  0.57800  Biso   1.000  H
  H41      1.0000 0.98600  0.70300  0.13200  Biso   1.000  H
  H42      1.0000 0.51400  0.20300  0.36800  Biso   1.000  H
  H43      1.0000 0.01400  0.29700  0.86800  Biso   1.000  H
  H44      1.0000 0.48600  0.79700  0.63200  Biso   1.000  H
  H45      1.0000 0.15600  0.73000  0.25800  Biso   1.000  H
  H46      1.0000 0.34400  0.23000  0.24200  Biso   1.000  H
  H47      1.0000 0.84400  0.27000  0.74200  Biso   1.000  H
  H48      1.0000 0.65600  0.77000  0.75800  Biso   1.000  H
  H49      1.0000 0.92700  0.37700  0.04300  Biso   1.000  H
  H50      1.0000 0.57300  0.87700  0.45700  Biso   1.000  H
  H51      1.0000 0.07300  0.62300  0.95700  Biso   1.000  H
  H52      1.0000 0.42700  0.12300  0.54300  Biso   1.000  H
  H53      1.0000 0.95800  0.27500  0.03900  Biso   1.000  H
  H54      1.0000 0.54200  0.77500  0.46100  Biso   1.000  H
  H55      1.0000 0.04200  0.72500  0.96100  Biso   1.000  H
  H56      1.0000 0.45800  0.22500  0.53900  Biso   1.000  H
  H57      1.0000 0.00700  0.11500  0.97600  Biso   1.000  H
  H58      1.0000 0.49300  0.61500  0.52400  Biso   1.000  H
  H59      1.0000 0.99300  0.88500  0.02400  Biso   1.000  H
  H60      1.0000 0.50700  0.38500  0.47600  Biso   1.000  H
  H61      1.0000 0.94600  0.09900  0.02100  Biso   1.000  H
  H62      1.0000 0.55400  0.59900  0.47900  Biso   1.000  H
  H63      1.0000 0.05400  0.90100  0.97900  Biso   1.000  H
  H64      1.0000 0.44600  0.40100  0.52100  Biso   1.000  H
  H65      1.0000 0.20400  0.05700  0.42100  Biso   1.000  H
  H66      1.0000 0.29600  0.55700  0.07900  Biso   1.000  H
  H67      1.0000 0.79600  0.94300  0.57900  Biso   1.000  H
  H68      1.0000 0.70400  0.44300  0.92100  Biso   1.000  H
  H69      1.0000 0.23900  0.97600  0.46200  Biso   1.000  H
  H70      1.0000 0.26100  0.47600  0.03800  Biso   1.000  H
  H71      1.0000 0.76100  0.02400  0.53800  Biso   1.000  H
  H72      1.0000 0.73900  0.52400  0.96200  Biso   1.000  H
