data_image0
_cell_length_a       17.9319
_cell_length_b       13.4279
_cell_length_c       18.6898
_cell_angle_alpha    90
_cell_angle_beta     90
_cell_angle_gamma    90

_symmetry_space_group_name_H-M    "P 1"
_symmetry_int_tables_number       1

loop_
  _symmetry_equiv_pos_as_xyz
  'x, y, z'

loop_
  _atom_site_label
  _atom_site_occupancy
  _atom_site_fract_x
  _atom_site_fract_y
  _atom_site_fract_z
  _atom_site_thermal_displace_type
  _atom_site_B_iso_or_equiv
  _atom_site_type_symbol
  Cu1      1.0000 0.19119  0.72430  0.01771  Biso   1.000  Cu
  Cu2      1.0000 0.30881  0.27570  0.51771  Biso   1.000  Cu
  Cu3      1.0000 0.80881  0.22430  0.48229  Biso   1.000  Cu
  Cu4      1.0000 0.69119  0.77570  0.98229  Biso   1.000  Cu
  Cu5      1.0000 0.80881  0.27570  0.98229  Biso   1.000  Cu
  Cu6      1.0000 0.69119  0.72430  0.48229  Biso   1.000  Cu
  Cu7      1.0000 0.19119  0.77570  0.51771  Biso   1.000  Cu
  Cu8      1.0000 0.30881  0.22430  0.01771  Biso   1.000  Cu
  N1       1.0000 0.23328  0.60722  0.96786  Biso   1.000  N
  N2       1.0000 0.26672  0.39278  0.46786  Biso   1.000  N
  N3       1.0000 0.76672  0.10722  0.53214  Biso   1.000  N
  N4       1.0000 0.73328  0.89278  0.03214  Biso   1.000  N
  N5       1.0000 0.76672  0.39278  0.03214  Biso   1.000  N
  N6       1.0000 0.73328  0.60722  0.53214  Biso   1.000  N
  N7       1.0000 0.23328  0.89278  0.46786  Biso   1.000  N
  N8       1.0000 0.26672  0.10722  0.96786  Biso   1.000  N
  N9       1.0000 0.31287  0.52153  0.90420  Biso   1.000  N
  N10      1.0000 0.18713  0.47847  0.40420  Biso   1.000  N
  N11      1.0000 0.68713  0.02153  0.59580  Biso   1.000  N
  N12      1.0000 0.81287  0.97847  0.09580  Biso   1.000  N
  N13      1.0000 0.68713  0.47847  0.09580  Biso   1.000  N
  N14      1.0000 0.81287  0.52153  0.59580  Biso   1.000  N
  N15      1.0000 0.31287  0.97847  0.40420  Biso   1.000  N
  N16      1.0000 0.18713  0.02153  0.90420  Biso   1.000  N
  N17      1.0000 0.39011  0.36410  0.58539  Biso   1.000  N
  N18      1.0000 0.10989  0.63590  0.08539  Biso   1.000  N
  N19      1.0000 0.60989  0.86410  0.91461  Biso   1.000  N
  N20      1.0000 0.89011  0.13590  0.41461  Biso   1.000  N
  N21      1.0000 0.60989  0.63590  0.41461  Biso   1.000  N
  N22      1.0000 0.89011  0.36410  0.91461  Biso   1.000  N
  N23      1.0000 0.39011  0.13590  0.08539  Biso   1.000  N
  N24      1.0000 0.10989  0.86410  0.58539  Biso   1.000  N
  N25      1.0000 0.43593  0.43103  0.68372  Biso   1.000  N
  N26      1.0000 0.06407  0.56897  0.18372  Biso   1.000  N
  N27      1.0000 0.56407  0.93103  0.81628  Biso   1.000  N
  N28      1.0000 0.93593  0.06897  0.31628  Biso   1.000  N
  N29      1.0000 0.56407  0.56897  0.31628  Biso   1.000  N
  N30      1.0000 0.93593  0.43103  0.81628  Biso   1.000  N
  N31      1.0000 0.43593  0.06897  0.18372  Biso   1.000  N
  N32      1.0000 0.06407  0.93103  0.68372  Biso   1.000  N
  N33      1.0000 0.65945  0.64405  0.94252  Biso   1.000  N
  N34      1.0000 0.84055  0.35595  0.44252  Biso   1.000  N
  N35      1.0000 0.34055  0.14405  0.55748  Biso   1.000  N
  N36      1.0000 0.15945  0.85595  0.05748  Biso   1.000  N
  N37      1.0000 0.34055  0.35595  0.05748  Biso   1.000  N
  N38      1.0000 0.15945  0.64405  0.55748  Biso   1.000  N
  N39      1.0000 0.65945  0.85595  0.44252  Biso   1.000  N
  N40      1.0000 0.84055  0.14405  0.94252  Biso   1.000  N
  N41      1.0000 0.58062  0.54541  0.88733  Biso   1.000  N
  N42      1.0000 0.91938  0.45459  0.38733  Biso   1.000  N
  N43      1.0000 0.41938  0.04541  0.61267  Biso   1.000  N
  N44      1.0000 0.08062  0.95459  0.11267  Biso   1.000  N
  N45      1.0000 0.41938  0.45459  0.11267  Biso   1.000  N
  N46      1.0000 0.08062  0.54541  0.61267  Biso   1.000  N
  N47      1.0000 0.58062  0.95459  0.38733  Biso   1.000  N
  N48      1.0000 0.91938  0.04541  0.88733  Biso   1.000  N
  O1       1.0000 0.27286  0.81816  0.25853  Biso   1.000  O
  O2       1.0000 0.22714  0.18184  0.75853  Biso   1.000  O
  O3       1.0000 0.72714  0.31816  0.24147  Biso   1.000  O
  O4       1.0000 0.77286  0.68184  0.74147  Biso   1.000  O
  O5       1.0000 0.72714  0.18184  0.74147  Biso   1.000  O
  O6       1.0000 0.77286  0.81816  0.24147  Biso   1.000  O
  O7       1.0000 0.27286  0.68184  0.75853  Biso   1.000  O
  O8       1.0000 0.22714  0.31816  0.25853  Biso   1.000  O
  H1       1.0000 0.23500  0.80300  0.28050  Biso   1.000  H
  H2       1.0000 0.26500  0.19700  0.78050  Biso   1.000  H
  H3       1.0000 0.76500  0.30300  0.21950  Biso   1.000  H
  H4       1.0000 0.73500  0.69700  0.71950  Biso   1.000  H
  H5       1.0000 0.76500  0.19700  0.71950  Biso   1.000  H
  H6       1.0000 0.73500  0.80300  0.21950  Biso   1.000  H
  H7       1.0000 0.23500  0.69700  0.78050  Biso   1.000  H
  H8       1.0000 0.26500  0.30300  0.28050  Biso   1.000  H
  O9       1.0000 0.28624  0.65363  0.25024  Biso   1.000  O
  O10      1.0000 0.21376  0.34637  0.75024  Biso   1.000  O
  O11      1.0000 0.71376  0.15363  0.24976  Biso   1.000  O
  O12      1.0000 0.78624  0.84637  0.74976  Biso   1.000  O
  O13      1.0000 0.71376  0.34637  0.74976  Biso   1.000  O
  O14      1.0000 0.78624  0.65363  0.24976  Biso   1.000  O
  O15      1.0000 0.28624  0.84637  0.75024  Biso   1.000  O
  O16      1.0000 0.21376  0.15363  0.25024  Biso   1.000  O
  O17      1.0000 0.26953  0.72048  0.09401  Biso   1.000  O
  O18      1.0000 0.23047  0.27952  0.59401  Biso   1.000  O
  O19      1.0000 0.73047  0.22048  0.40599  Biso   1.000  O
  O20      1.0000 0.76953  0.77952  0.90599  Biso   1.000  O
  O21      1.0000 0.73047  0.27952  0.90599  Biso   1.000  O
  O22      1.0000 0.76953  0.72048  0.40599  Biso   1.000  O
  O23      1.0000 0.26953  0.77952  0.59401  Biso   1.000  O
  O24      1.0000 0.23047  0.22048  0.09401  Biso   1.000  O
  O25      1.0000 0.34377  0.79498  0.01514  Biso   1.000  O
  O26      1.0000 0.15623  0.20502  0.51514  Biso   1.000  O
  O27      1.0000 0.65623  0.29498  0.48486  Biso   1.000  O
  O28      1.0000 0.84377  0.70502  0.98486  Biso   1.000  O
  O29      1.0000 0.65623  0.20502  0.98486  Biso   1.000  O
  O30      1.0000 0.84377  0.79498  0.48486  Biso   1.000  O
  O31      1.0000 0.34377  0.70502  0.51514  Biso   1.000  O
  O32      1.0000 0.15623  0.29498  0.01514  Biso   1.000  O
  O33      1.0000 0.60955  0.76386  0.05282  Biso   1.000  O
  O34      1.0000 0.89045  0.23614  0.55282  Biso   1.000  O
  O35      1.0000 0.39045  0.26386  0.44718  Biso   1.000  O
  O36      1.0000 0.10955  0.73614  0.94718  Biso   1.000  O
  O37      1.0000 0.39045  0.23614  0.94718  Biso   1.000  O
  O38      1.0000 0.10955  0.76386  0.44718  Biso   1.000  O
  O39      1.0000 0.60955  0.73614  0.55282  Biso   1.000  O
  O40      1.0000 0.89045  0.26386  0.05282  Biso   1.000  O
  O41      1.0000 0.65817  0.77510  0.16152  Biso   1.000  O
  O42      1.0000 0.84183  0.22490  0.66152  Biso   1.000  O
  O43      1.0000 0.34183  0.27510  0.33848  Biso   1.000  O
  O44      1.0000 0.15817  0.72490  0.83848  Biso   1.000  O
  O45      1.0000 0.34183  0.22490  0.83848  Biso   1.000  O
  O46      1.0000 0.15817  0.77510  0.33848  Biso   1.000  O
  O47      1.0000 0.65817  0.72490  0.66152  Biso   1.000  O
  O48      1.0000 0.84183  0.27510  0.16152  Biso   1.000  O
  C1       1.0000 0.30046  0.60650  0.94041  Biso   1.000  C
  C2       1.0000 0.19954  0.39350  0.44041  Biso   1.000  C
  C3       1.0000 0.69954  0.10650  0.55959  Biso   1.000  C
  C4       1.0000 0.80046  0.89350  0.05959  Biso   1.000  C
  C5       1.0000 0.69954  0.39350  0.05959  Biso   1.000  C
  C6       1.0000 0.80046  0.60650  0.55959  Biso   1.000  C
  C7       1.0000 0.30046  0.89350  0.44041  Biso   1.000  C
  C8       1.0000 0.19954  0.10650  0.94041  Biso   1.000  C
  H9       1.0000 0.33490  0.65780  0.94530  Biso   1.000  H
  H10      1.0000 0.16510  0.34220  0.44530  Biso   1.000  H
  H11      1.0000 0.66510  0.15780  0.55470  Biso   1.000  H
  H12      1.0000 0.83490  0.84220  0.05470  Biso   1.000  H
  H13      1.0000 0.66510  0.34220  0.05470  Biso   1.000  H
  H14      1.0000 0.83490  0.65780  0.55470  Biso   1.000  H
  H15      1.0000 0.33490  0.84220  0.44530  Biso   1.000  H
  H16      1.0000 0.16510  0.15780  0.94530  Biso   1.000  H
  C9       1.0000 0.20114  0.51830  0.94857  Biso   1.000  C
  C10      1.0000 0.29886  0.48170  0.44857  Biso   1.000  C
  C11      1.0000 0.79886  0.01830  0.55143  Biso   1.000  C
  C12      1.0000 0.70114  0.98170  0.05143  Biso   1.000  C
  C13      1.0000 0.79886  0.48170  0.05143  Biso   1.000  C
  C14      1.0000 0.70114  0.51830  0.55143  Biso   1.000  C
  C15      1.0000 0.20114  0.98170  0.44857  Biso   1.000  C
  C16      1.0000 0.29886  0.01830  0.94857  Biso   1.000  C
  H17      1.0000 0.15330  0.49810  0.96110  Biso   1.000  H
  H18      1.0000 0.34670  0.50190  0.46110  Biso   1.000  H
  H19      1.0000 0.84670  0.99810  0.53890  Biso   1.000  H
  H20      1.0000 0.65330  0.00190  0.03890  Biso   1.000  H
  H21      1.0000 0.84670  0.50190  0.03890  Biso   1.000  H
  H22      1.0000 0.65330  0.49810  0.53890  Biso   1.000  H
  H23      1.0000 0.15330  0.00190  0.46110  Biso   1.000  H
  H24      1.0000 0.34670  0.99810  0.96110  Biso   1.000  H
  C17      1.0000 0.24912  0.46470  0.90878  Biso   1.000  C
  C18      1.0000 0.25088  0.53530  0.40878  Biso   1.000  C
  C19      1.0000 0.75088  0.96470  0.59122  Biso   1.000  C
  C20      1.0000 0.74912  0.03530  0.09122  Biso   1.000  C
  C21      1.0000 0.75088  0.53530  0.09122  Biso   1.000  C
  C22      1.0000 0.74912  0.46470  0.59122  Biso   1.000  C
  C23      1.0000 0.24912  0.03530  0.40878  Biso   1.000  C
  C24      1.0000 0.25088  0.96470  0.90878  Biso   1.000  C
  H25      1.0000 0.24090  0.40240  0.88860  Biso   1.000  H
  H26      1.0000 0.25910  0.59760  0.38860  Biso   1.000  H
  H27      1.0000 0.75910  0.90240  0.61140  Biso   1.000  H
  H28      1.0000 0.74090  0.09760  0.11140  Biso   1.000  H
  H29      1.0000 0.75910  0.59760  0.11140  Biso   1.000  H
  H30      1.0000 0.74090  0.40240  0.61140  Biso   1.000  H
  H31      1.0000 0.24090  0.09760  0.38860  Biso   1.000  H
  H32      1.0000 0.25910  0.90240  0.88860  Biso   1.000  H
  C25      1.0000 0.37784  0.38260  0.65304  Biso   1.000  C
  C26      1.0000 0.12216  0.61740  0.15304  Biso   1.000  C
  C27      1.0000 0.62216  0.88260  0.84696  Biso   1.000  C
  C28      1.0000 0.87784  0.11740  0.34696  Biso   1.000  C
  C29      1.0000 0.62216  0.61740  0.34696  Biso   1.000  C
  C30      1.0000 0.87784  0.38260  0.84696  Biso   1.000  C
  C31      1.0000 0.37784  0.11740  0.15304  Biso   1.000  C
  C32      1.0000 0.12216  0.88260  0.65304  Biso   1.000  C
  H33      1.0000 0.33450  0.36470  0.67720  Biso   1.000  H
  H34      1.0000 0.16550  0.63530  0.17720  Biso   1.000  H
  H35      1.0000 0.66550  0.86470  0.82280  Biso   1.000  H
  H36      1.0000 0.83450  0.13530  0.32280  Biso   1.000  H
  H37      1.0000 0.66550  0.63530  0.32280  Biso   1.000  H
  H38      1.0000 0.83450  0.36470  0.82280  Biso   1.000  H
  H39      1.0000 0.33450  0.13530  0.17720  Biso   1.000  H
  H40      1.0000 0.16550  0.86470  0.67720  Biso   1.000  H
  C33      1.0000 0.45928  0.40270  0.57161  Biso   1.000  C
  C34      1.0000 0.04072  0.59730  0.07161  Biso   1.000  C
  C35      1.0000 0.54072  0.90270  0.92839  Biso   1.000  C
  C36      1.0000 0.95928  0.09730  0.42839  Biso   1.000  C
  C37      1.0000 0.54072  0.59730  0.42839  Biso   1.000  C
  C38      1.0000 0.95928  0.40270  0.92839  Biso   1.000  C
  C39      1.0000 0.45928  0.09730  0.07161  Biso   1.000  C
  C40      1.0000 0.04072  0.90270  0.57161  Biso   1.000  C
  H41      1.0000 0.48300  0.40090  0.52740  Biso   1.000  H
  H42      1.0000 0.01700  0.59910  0.02740  Biso   1.000  H
  H43      1.0000 0.51700  0.90090  0.97260  Biso   1.000  H
  H44      1.0000 0.98300  0.09910  0.47260  Biso   1.000  H
  H45      1.0000 0.51700  0.59910  0.47260  Biso   1.000  H
  H46      1.0000 0.98300  0.40090  0.97260  Biso   1.000  H
  H47      1.0000 0.48300  0.09910  0.02740  Biso   1.000  H
  H48      1.0000 0.01700  0.90090  0.52740  Biso   1.000  H
  C41      1.0000 0.48791  0.44360  0.63138  Biso   1.000  C
  C42      1.0000 0.01209  0.55640  0.13138  Biso   1.000  C
  C43      1.0000 0.51209  0.94360  0.86862  Biso   1.000  C
  C44      1.0000 0.98791  0.05640  0.36862  Biso   1.000  C
  C45      1.0000 0.51209  0.55640  0.36862  Biso   1.000  C
  C46      1.0000 0.98791  0.44360  0.86862  Biso   1.000  C
  C47      1.0000 0.48791  0.05640  0.13138  Biso   1.000  C
  C48      1.0000 0.01209  0.94360  0.63138  Biso   1.000  C
  H49      1.0000 0.53410  0.47450  0.63600  Biso   1.000  H
  H50      1.0000 0.96590  0.52550  0.13600  Biso   1.000  H
  H51      1.0000 0.46590  0.97450  0.86400  Biso   1.000  H
  H52      1.0000 0.03410  0.02550  0.36400  Biso   1.000  H
  H53      1.0000 0.46590  0.52550  0.36400  Biso   1.000  H
  H54      1.0000 0.03410  0.47450  0.86400  Biso   1.000  H
  H55      1.0000 0.53410  0.02550  0.13600  Biso   1.000  H
  H56      1.0000 0.96590  0.97450  0.63600  Biso   1.000  H
  C49      1.0000 0.58908  0.62640  0.92918  Biso   1.000  C
  C50      1.0000 0.91092  0.37360  0.42918  Biso   1.000  C
  C51      1.0000 0.41092  0.12640  0.57082  Biso   1.000  C
  C52      1.0000 0.08908  0.87360  0.07082  Biso   1.000  C
  C53      1.0000 0.41092  0.37360  0.07082  Biso   1.000  C
  C54      1.0000 0.08908  0.62640  0.57082  Biso   1.000  C
  C55      1.0000 0.58908  0.87360  0.42918  Biso   1.000  C
  C56      1.0000 0.91092  0.12640  0.92918  Biso   1.000  C
  H57      1.0000 0.54990  0.66490  0.94640  Biso   1.000  H
  H58      1.0000 0.95010  0.33510  0.44640  Biso   1.000  H
  H59      1.0000 0.45010  0.16490  0.55360  Biso   1.000  H
  H60      1.0000 0.04990  0.83510  0.05360  Biso   1.000  H
  H61      1.0000 0.45010  0.33510  0.05360  Biso   1.000  H
  H62      1.0000 0.04990  0.66490  0.55360  Biso   1.000  H
  H63      1.0000 0.54990  0.83510  0.44640  Biso   1.000  H
  H64      1.0000 0.95010  0.16490  0.94640  Biso   1.000  H
  C57      1.0000 0.69817  0.57070  0.90775  Biso   1.000  C
  C58      1.0000 0.80183  0.42930  0.40775  Biso   1.000  C
  C59      1.0000 0.30183  0.07070  0.59225  Biso   1.000  C
  C60      1.0000 0.19817  0.92930  0.09225  Biso   1.000  C
  C61      1.0000 0.30183  0.42930  0.09225  Biso   1.000  C
  C62      1.0000 0.19817  0.57070  0.59225  Biso   1.000  C
  C63      1.0000 0.69817  0.92930  0.40775  Biso   1.000  C
  C64      1.0000 0.80183  0.07070  0.90775  Biso   1.000  C
  H65      1.0000 0.74980  0.56410  0.90780  Biso   1.000  H
  H66      1.0000 0.75020  0.43590  0.40780  Biso   1.000  H
  H67      1.0000 0.25020  0.06410  0.59220  Biso   1.000  H
  H68      1.0000 0.24980  0.93590  0.09220  Biso   1.000  H
  H69      1.0000 0.25020  0.43590  0.09220  Biso   1.000  H
  H70      1.0000 0.24980  0.56410  0.59220  Biso   1.000  H
  H71      1.0000 0.74980  0.93590  0.40780  Biso   1.000  H
  H72      1.0000 0.75020  0.06410  0.90780  Biso   1.000  H
  C65      1.0000 0.65079  0.50960  0.87352  Biso   1.000  C
  C66      1.0000 0.84921  0.49040  0.37352  Biso   1.000  C
  C67      1.0000 0.34921  0.00960  0.62648  Biso   1.000  C
  C68      1.0000 0.15079  0.99040  0.12648  Biso   1.000  C
  C69      1.0000 0.34921  0.49040  0.12648  Biso   1.000  C
  C70      1.0000 0.15079  0.50960  0.62648  Biso   1.000  C
  C71      1.0000 0.65079  0.99040  0.37352  Biso   1.000  C
  C72      1.0000 0.84921  0.00960  0.87352  Biso   1.000  C
  H73      1.0000 0.66310  0.45430  0.84600  Biso   1.000  H
  H74      1.0000 0.83690  0.54570  0.34600  Biso   1.000  H
  H75      1.0000 0.33690  0.95430  0.65400  Biso   1.000  H
  H76      1.0000 0.16310  0.04570  0.15400  Biso   1.000  H
  H77      1.0000 0.33690  0.54570  0.15400  Biso   1.000  H
  H78      1.0000 0.16310  0.45430  0.65400  Biso   1.000  H
  H79      1.0000 0.66310  0.04570  0.34600  Biso   1.000  H
  H80      1.0000 0.83690  0.95430  0.84600  Biso   1.000  H
  C73      1.0000 0.37933  0.50260  0.86513  Biso   1.000  C
  C74      1.0000 0.12067  0.49740  0.36513  Biso   1.000  C
  C75      1.0000 0.62067  0.00260  0.63487  Biso   1.000  C
  C76      1.0000 0.87933  0.99740  0.13487  Biso   1.000  C
  C77      1.0000 0.62067  0.49740  0.13487  Biso   1.000  C
  C78      1.0000 0.87933  0.50260  0.63487  Biso   1.000  C
  C79      1.0000 0.37933  0.99740  0.36513  Biso   1.000  C
  C80      1.0000 0.12067  0.00260  0.86513  Biso   1.000  C
  C81      1.0000 0.37511  0.47130  0.79519  Biso   1.000  C
  C82      1.0000 0.12489  0.52870  0.29519  Biso   1.000  C
  C83      1.0000 0.62489  0.97130  0.70481  Biso   1.000  C
  C84      1.0000 0.87511  0.02870  0.20481  Biso   1.000  C
  C85      1.0000 0.62489  0.52870  0.20481  Biso   1.000  C
  C86      1.0000 0.87511  0.47130  0.70481  Biso   1.000  C
  C87      1.0000 0.37511  0.02870  0.29519  Biso   1.000  C
  C88      1.0000 0.12489  0.97130  0.79519  Biso   1.000  C
  H81      1.0000 0.32920  0.45740  0.77430  Biso   1.000  H
  H82      1.0000 0.17080  0.54260  0.27430  Biso   1.000  H
  H83      1.0000 0.67080  0.95740  0.72570  Biso   1.000  H
  H84      1.0000 0.82920  0.04260  0.22570  Biso   1.000  H
  H85      1.0000 0.67080  0.54260  0.22570  Biso   1.000  H
  H86      1.0000 0.82920  0.45740  0.72570  Biso   1.000  H
  H87      1.0000 0.32920  0.04260  0.27430  Biso   1.000  H
  H88      1.0000 0.17080  0.95740  0.77430  Biso   1.000  H
  C89      1.0000 0.44043  0.46070  0.75646  Biso   1.000  C
  C90      1.0000 0.05957  0.53930  0.25646  Biso   1.000  C
  C91      1.0000 0.55957  0.96070  0.74354  Biso   1.000  C
  C92      1.0000 0.94043  0.03930  0.24354  Biso   1.000  C
  C93      1.0000 0.55957  0.53930  0.24354  Biso   1.000  C
  C94      1.0000 0.94043  0.46070  0.74354  Biso   1.000  C
  C95      1.0000 0.44043  0.03930  0.25646  Biso   1.000  C
  C96      1.0000 0.05957  0.96070  0.75646  Biso   1.000  C
  C97      1.0000 0.50883  0.48260  0.78682  Biso   1.000  C
  C98      1.0000 0.99117  0.51740  0.28682  Biso   1.000  C
  C99      1.0000 0.49117  0.98260  0.71318  Biso   1.000  C
  C100     1.0000 0.00883  0.01740  0.21318  Biso   1.000  C
  C101     1.0000 0.49117  0.51740  0.21318  Biso   1.000  C
  C102     1.0000 0.00883  0.48260  0.71318  Biso   1.000  C
  C103     1.0000 0.50883  0.01740  0.28682  Biso   1.000  C
  C104     1.0000 0.99117  0.98260  0.78682  Biso   1.000  C
  H89      1.0000 0.55250  0.47590  0.76040  Biso   1.000  H
  H90      1.0000 0.94750  0.52410  0.26040  Biso   1.000  H
  H91      1.0000 0.44750  0.97590  0.73960  Biso   1.000  H
  H92      1.0000 0.05250  0.02410  0.23960  Biso   1.000  H
  H93      1.0000 0.44750  0.52410  0.23960  Biso   1.000  H
  H94      1.0000 0.05250  0.47590  0.73960  Biso   1.000  H
  H95      1.0000 0.55250  0.02410  0.26040  Biso   1.000  H
  H96      1.0000 0.94750  0.97590  0.76040  Biso   1.000  H
  C105     1.0000 0.51110  0.51460  0.85699  Biso   1.000  C
  C106     1.0000 0.98890  0.48540  0.35699  Biso   1.000  C
  C107     1.0000 0.48890  0.01460  0.64301  Biso   1.000  C
  C108     1.0000 0.01110  0.98540  0.14301  Biso   1.000  C
  C109     1.0000 0.48890  0.48540  0.14301  Biso   1.000  C
  C110     1.0000 0.01110  0.51460  0.64301  Biso   1.000  C
  C111     1.0000 0.51110  0.98540  0.35699  Biso   1.000  C
  C112     1.0000 0.98890  0.01460  0.85699  Biso   1.000  C
  C113     1.0000 0.44709  0.52310  0.89731  Biso   1.000  C
  C114     1.0000 0.05291  0.47690  0.39731  Biso   1.000  C
  C115     1.0000 0.55291  0.02310  0.60269  Biso   1.000  C
  C116     1.0000 0.94709  0.97690  0.10269  Biso   1.000  C
  C117     1.0000 0.55291  0.47690  0.10269  Biso   1.000  C
  C118     1.0000 0.94709  0.52310  0.60269  Biso   1.000  C
  C119     1.0000 0.44709  0.97690  0.39731  Biso   1.000  C
  C120     1.0000 0.05291  0.02310  0.89731  Biso   1.000  C
  H97      1.0000 0.44940  0.54220  0.94510  Biso   1.000  H
  H98      1.0000 0.05060  0.45780  0.44510  Biso   1.000  H
  H99      1.0000 0.55060  0.04220  0.55490  Biso   1.000  H
  H100     1.0000 0.94940  0.95780  0.05490  Biso   1.000  H
  H101     1.0000 0.55060  0.45780  0.05490  Biso   1.000  H
  H102     1.0000 0.94940  0.54220  0.55490  Biso   1.000  H
  H103     1.0000 0.44940  0.95780  0.44510  Biso   1.000  H
  H104     1.0000 0.05060  0.04220  0.94510  Biso   1.000  H
  C121     1.0000 0.30798  0.73700  0.23854  Biso   1.000  C
  C122     1.0000 0.19202  0.26300  0.73854  Biso   1.000  C
  C123     1.0000 0.69202  0.23700  0.26146  Biso   1.000  C
  C124     1.0000 0.80798  0.76300  0.76146  Biso   1.000  C
  C125     1.0000 0.69202  0.26300  0.76146  Biso   1.000  C
  C126     1.0000 0.80798  0.73700  0.26146  Biso   1.000  C
  C127     1.0000 0.30798  0.76300  0.73854  Biso   1.000  C
  C128     1.0000 0.19202  0.23700  0.23854  Biso   1.000  C
  C129     1.0000 0.38181  0.75770  0.20409  Biso   1.000  C
  C130     1.0000 0.11819  0.24230  0.70409  Biso   1.000  C
  C131     1.0000 0.61819  0.25770  0.29591  Biso   1.000  C
  C132     1.0000 0.88181  0.74230  0.79591  Biso   1.000  C
  C133     1.0000 0.61819  0.24230  0.79591  Biso   1.000  C
  C134     1.0000 0.88181  0.75770  0.29591  Biso   1.000  C
  C135     1.0000 0.38181  0.74230  0.70409  Biso   1.000  C
  C136     1.0000 0.11819  0.25770  0.20409  Biso   1.000  C
  C137     1.0000 0.39314  0.76080  0.12961  Biso   1.000  C
  C138     1.0000 0.10686  0.23920  0.62961  Biso   1.000  C
  C139     1.0000 0.60686  0.26080  0.37039  Biso   1.000  C
  C140     1.0000 0.89314  0.73920  0.87039  Biso   1.000  C
  C141     1.0000 0.60686  0.23920  0.87039  Biso   1.000  C
  C142     1.0000 0.89314  0.76080  0.37039  Biso   1.000  C
  C143     1.0000 0.39314  0.73920  0.62961  Biso   1.000  C
  C144     1.0000 0.10686  0.26080  0.12961  Biso   1.000  C
  C145     1.0000 0.46580  0.76690  0.10473  Biso   1.000  C
  C146     1.0000 0.03420  0.23310  0.60473  Biso   1.000  C
  C147     1.0000 0.53420  0.26690  0.39527  Biso   1.000  C
  C148     1.0000 0.96580  0.73310  0.89527  Biso   1.000  C
  C149     1.0000 0.53420  0.23310  0.89527  Biso   1.000  C
  C150     1.0000 0.96580  0.76690  0.39527  Biso   1.000  C
  C151     1.0000 0.46580  0.73310  0.60473  Biso   1.000  C
  C152     1.0000 0.03420  0.26690  0.10473  Biso   1.000  C
  H105     1.0000 0.47370  0.76790  0.05560  Biso   1.000  H
  H106     1.0000 0.02630  0.23210  0.55560  Biso   1.000  H
  H107     1.0000 0.52630  0.26790  0.44440  Biso   1.000  H
  H108     1.0000 0.97370  0.73210  0.94440  Biso   1.000  H
  H109     1.0000 0.52630  0.23210  0.94440  Biso   1.000  H
  H110     1.0000 0.97370  0.76790  0.44440  Biso   1.000  H
  H111     1.0000 0.47370  0.73210  0.55560  Biso   1.000  H
  H112     1.0000 0.02630  0.26790  0.05560  Biso   1.000  H
  C153     1.0000 0.52728  0.77170  0.14957  Biso   1.000  C
  C154     1.0000 0.97272  0.22830  0.64957  Biso   1.000  C
  C155     1.0000 0.47272  0.27170  0.35043  Biso   1.000  C
  C156     1.0000 0.02728  0.72830  0.85043  Biso   1.000  C
  C157     1.0000 0.47272  0.22830  0.85043  Biso   1.000  C
  C158     1.0000 0.02728  0.77170  0.35043  Biso   1.000  C
  C159     1.0000 0.52728  0.72830  0.64957  Biso   1.000  C
  C160     1.0000 0.97272  0.27170  0.14957  Biso   1.000  C
  C161     1.0000 0.51423  0.77490  0.22329  Biso   1.000  C
  C162     1.0000 0.98577  0.22510  0.72329  Biso   1.000  C
  C163     1.0000 0.48577  0.27490  0.27671  Biso   1.000  C
  C164     1.0000 0.01423  0.72510  0.77671  Biso   1.000  C
  C165     1.0000 0.48577  0.22510  0.77671  Biso   1.000  C
  C166     1.0000 0.01423  0.77490  0.27671  Biso   1.000  C
  C167     1.0000 0.51423  0.72510  0.72329  Biso   1.000  C
  C168     1.0000 0.98577  0.27490  0.22329  Biso   1.000  C
  H113     1.0000 0.55410  0.78190  0.25470  Biso   1.000  H
  H114     1.0000 0.94590  0.21810  0.75470  Biso   1.000  H
  H115     1.0000 0.44590  0.28190  0.24530  Biso   1.000  H
  H116     1.0000 0.05410  0.71810  0.74530  Biso   1.000  H
  H117     1.0000 0.44590  0.21810  0.74530  Biso   1.000  H
  H118     1.0000 0.05410  0.78190  0.24530  Biso   1.000  H
  H119     1.0000 0.55410  0.71810  0.75470  Biso   1.000  H
  H120     1.0000 0.94590  0.28190  0.25470  Biso   1.000  H
  C169     1.0000 0.44264  0.76760  0.24965  Biso   1.000  C
  C170     1.0000 0.05736  0.23240  0.74965  Biso   1.000  C
  C171     1.0000 0.55736  0.26760  0.25035  Biso   1.000  C
  C172     1.0000 0.94264  0.73240  0.75035  Biso   1.000  C
  C173     1.0000 0.55736  0.23240  0.75035  Biso   1.000  C
  C174     1.0000 0.94264  0.76760  0.25035  Biso   1.000  C
  C175     1.0000 0.44264  0.73240  0.74965  Biso   1.000  C
  C176     1.0000 0.05736  0.26760  0.24965  Biso   1.000  C
  H121     1.0000 0.43490  0.76940  0.29880  Biso   1.000  H
  H122     1.0000 0.06510  0.23060  0.79880  Biso   1.000  H
  H123     1.0000 0.56510  0.26940  0.20120  Biso   1.000  H
  H124     1.0000 0.93490  0.73060  0.70120  Biso   1.000  H
  H125     1.0000 0.56510  0.23060  0.70120  Biso   1.000  H
  H126     1.0000 0.93490  0.76940  0.20120  Biso   1.000  H
  H127     1.0000 0.43490  0.73060  0.79880  Biso   1.000  H
  H128     1.0000 0.06510  0.26940  0.29880  Biso   1.000  H
  C177     1.0000 0.33121  0.75920  0.07497  Biso   1.000  C
  C178     1.0000 0.16879  0.24080  0.57497  Biso   1.000  C
  C179     1.0000 0.66879  0.25920  0.42503  Biso   1.000  C
  C180     1.0000 0.83121  0.74080  0.92503  Biso   1.000  C
  C181     1.0000 0.66879  0.24080  0.92503  Biso   1.000  C
  C182     1.0000 0.83121  0.75920  0.42503  Biso   1.000  C
  C183     1.0000 0.33121  0.74080  0.57497  Biso   1.000  C
  C184     1.0000 0.16879  0.25920  0.07497  Biso   1.000  C
  C185     1.0000 0.60553  0.77080  0.12032  Biso   1.000  C
  C186     1.0000 0.89447  0.22920  0.62032  Biso   1.000  C
  C187     1.0000 0.39447  0.27080  0.37968  Biso   1.000  C
  C188     1.0000 0.10553  0.72920  0.87968  Biso   1.000  C
  C189     1.0000 0.39447  0.22920  0.87968  Biso   1.000  C
  C190     1.0000 0.10553  0.77080  0.37968  Biso   1.000  C
  C191     1.0000 0.60553  0.72920  0.62032  Biso   1.000  C
  C192     1.0000 0.89447  0.27080  0.12032  Biso   1.000  C
