data_image0
_cell_length_a       5.178
_cell_length_b       7.614
_cell_length_c       8.109
_cell_angle_alpha    67.06
_cell_angle_beta     73.81
_cell_angle_gamma    71.74

_symmetry_space_group_name_H-M    "P 1"
_symmetry_int_tables_number       1

loop_
  _symmetry_equiv_pos_as_xyz
  'x, y, z'

loop_
  _atom_site_label
  _atom_site_occupancy
  _atom_site_fract_x
  _atom_site_fract_y
  _atom_site_fract_z
  _atom_site_thermal_displace_type
  _atom_site_B_iso_or_equiv
  _atom_site_type_symbol
  Cu1      1.0000 0.50000  0.50000  0.50000  Biso   1.000  Cu
  N1       1.0000 0.76000  0.36690  0.33430  Biso   1.000  N
  N2       1.0000 0.24000  0.63310  0.66570  Biso   1.000  N
  O1       1.0000 0.78630  0.36750  0.65120  Biso   1.000  O
  O2       1.0000 0.21370  0.63250  0.34880  Biso   1.000  O
  O3       1.0000 0.23140  0.20150  0.63580  Biso   1.000  O
  O4       1.0000 0.76860  0.79850  0.36420  Biso   1.000  O
  C1       1.0000 0.01390  0.27370  0.57460  Biso   1.000  C
  C2       1.0000 0.98610  0.72630  0.42540  Biso   1.000  C
  C3       1.0000 0.99880  0.26010  0.39570  Biso   1.000  C
  C4       1.0000 0.00120  0.73990  0.60430  Biso   1.000  C
  C5       1.0000 0.20370  0.14860  0.30180  Biso   1.000  C
  C6       1.0000 0.79630  0.85140  0.69820  Biso   1.000  C
  H1       1.0000 0.36910  0.07320  0.34730  Biso   1.000  H
  H2       1.0000 0.63090  0.92680  0.65270  Biso   1.000  H
  C7       1.0000 0.16250  0.14940  0.14030  Biso   1.000  C
  C8       1.0000 0.83750  0.85060  0.85970  Biso   1.000  C
  H3       1.0000 0.29980  0.07250  0.07470  Biso   1.000  H
  H4       1.0000 0.70020  0.92750  0.92530  Biso   1.000  H
  C9       1.0000 0.92150  0.26210  0.07320  Biso   1.000  C
  C10      1.0000 0.07850  0.73790  0.92680  Biso   1.000  C
  H5       1.0000 0.89250  0.26620  0.96100  Biso   1.000  H
  H6       1.0000 0.10750  0.73380  0.03900  Biso   1.000  H
  C11      1.0000 0.72400  0.36880  0.17660  Biso   1.000  C
  C12      1.0000 0.27600  0.63120  0.82340  Biso   1.000  C
  H7       1.0000 0.55740  0.44590  0.13340  Biso   1.000  H
  H8       1.0000 0.44260  0.55410  0.86660  Biso   1.000  H
