data_image0
_cell_length_a       10.594
_cell_length_b       13.83
_cell_length_c       15.551
_cell_angle_alpha    67.75
_cell_angle_beta     89.83
_cell_angle_gamma    70.54

_symmetry_space_group_name_H-M    "P 1"
_symmetry_int_tables_number       1

loop_
  _symmetry_equiv_pos_as_xyz
  'x, y, z'

loop_
  _atom_site_label
  _atom_site_occupancy
  _atom_site_fract_x
  _atom_site_fract_y
  _atom_site_fract_z
  _atom_site_thermal_displace_type
  _atom_site_B_iso_or_equiv
  _atom_site_type_symbol
  Cu1      1.0000 0.13125  0.01975  0.33338  Biso   1.000  Cu
  Cu2      1.0000 0.86875  0.98025  0.66662  Biso   1.000  Cu
  O1       1.0000 0.01790  0.59250  0.20590  Biso   1.000  O
  O2       1.0000 0.98210  0.40750  0.79410  Biso   1.000  O
  O3       1.0000 0.71630  0.48980  0.40360  Biso   1.000  O
  O4       1.0000 0.28370  0.51020  0.59640  Biso   1.000  O
  O5       1.0000 0.30250  0.45420  0.40110  Biso   1.000  O
  O6       1.0000 0.69750  0.54580  0.59890  Biso   1.000  O
  O7       1.0000 0.43000  0.64580  0.13140  Biso   1.000  O
  O8       1.0000 0.57000  0.35420  0.86860  Biso   1.000  O
  O9       1.0000 0.88700  0.01140  0.38469  Biso   1.000  O
  O10      1.0000 0.11300  0.98860  0.61531  Biso   1.000  O
  O11      1.0000 0.96510  0.06065  0.24763  Biso   1.000  O
  O12      1.0000 0.03490  0.93935  0.75237  Biso   1.000  O
  O13      1.0000 0.86700  0.11990  0.03801  Biso   1.000  O
  O14      1.0000 0.13300  0.88010  0.96199  Biso   1.000  O
  O15      1.0000 0.81480  0.26080  0.08502  Biso   1.000  O
  O16      1.0000 0.18520  0.73920  0.91498  Biso   1.000  O
  H1       1.0000 0.86970  0.27820  0.05080  Biso   1.000  H
  H2       1.0000 0.13030  0.72180  0.94920  Biso   1.000  H
  O17      1.0000 0.26710  0.22370  0.06830  Biso   1.000  O
  O18      1.0000 0.73290  0.77630  0.93170  Biso   1.000  O
  O19      1.0000 0.35920  0.04570  0.08333  Biso   1.000  O
  O20      1.0000 0.64080  0.95430  0.91667  Biso   1.000  O
  H3       1.0000 0.28200  0.05700  0.04900  Biso   1.000  H
  H4       1.0000 0.71800  0.94300  0.95100  Biso   1.000  H
  O21      1.0000 0.44590  0.97110  0.39550  Biso   1.000  O
  O22      1.0000 0.55410  0.02890  0.60450  Biso   1.000  O
  O23      1.0000 0.29430  0.05510  0.26693  Biso   1.000  O
  O24      1.0000 0.70570  0.94490  0.73307  Biso   1.000  O
  O25      1.0000 0.23180  0.94320  0.46979  Biso   1.000  O
  O26      1.0000 0.76820  0.05680  0.53021  Biso   1.000  O
  H5       1.0000 0.19800  0.96700  0.50000  Biso   1.000  H
  H6       1.0000 0.80200  0.03300  0.50000  Biso   1.000  H
  H7       1.0000 0.28700  0.95500  0.46200  Biso   1.000  H
  H8       1.0000 0.71300  0.04500  0.53800  Biso   1.000  H
  N1       1.0000 0.05720  0.17540  0.32960  Biso   1.000  N
  N2       1.0000 0.94280  0.82460  0.67040  Biso   1.000  N
  N3       1.0000 0.92010  0.59700  0.25580  Biso   1.000  N
  N4       1.0000 0.07990  0.40300  0.74420  Biso   1.000  N
  N5       1.0000 0.78300  0.54750  0.35220  Biso   1.000  N
  N6       1.0000 0.21700  0.45250  0.64780  Biso   1.000  N
  N7       1.0000 0.19770  0.87190  0.32170  Biso   1.000  N
  N8       1.0000 0.80230  0.12810  0.67830  Biso   1.000  N
  N9       1.0000 0.35370  0.47510  0.32730  Biso   1.000  N
  N10      1.0000 0.64630  0.52490  0.67270  Biso   1.000  N
  N11      1.0000 0.40980  0.56730  0.19820  Biso   1.000  N
  N12      1.0000 0.59020  0.43270  0.80180  Biso   1.000  N
  C1       1.0000 0.04820  0.26070  0.24930  Biso   1.000  C
  C2       1.0000 0.95180  0.73930  0.75070  Biso   1.000  C
  H9       1.0000 0.08000  0.24530  0.19840  Biso   1.000  H
  H10      1.0000 0.92000  0.75470  0.80160  Biso   1.000  H
  C3       1.0000 0.99380  0.37110  0.23830  Biso   1.000  C
  C4       1.0000 0.00620  0.62890  0.76170  Biso   1.000  C
  H11      1.0000 0.99000  0.42840  0.18110  Biso   1.000  H
  H12      1.0000 0.01000  0.57160  0.81890  Biso   1.000  H
  C5       1.0000 0.94430  0.39610  0.31420  Biso   1.000  C
  C6       1.0000 0.05570  0.60390  0.68580  Biso   1.000  C
  C7       1.0000 0.95260  0.30710  0.39660  Biso   1.000  C
  C8       1.0000 0.04740  0.69290  0.60340  Biso   1.000  C
  H13      1.0000 0.92010  0.31990  0.44840  Biso   1.000  H
  H14      1.0000 0.07990  0.68010  0.55160  Biso   1.000  H
  C9       1.0000 0.00890  0.19930  0.40250  Biso   1.000  C
  C10      1.0000 0.99110  0.80070  0.59750  Biso   1.000  C
  H15      1.0000 0.01400  0.14060  0.45890  Biso   1.000  H
  H16      1.0000 0.98600  0.85940  0.54110  Biso   1.000  H
  C11      1.0000 0.88470  0.51170  0.30760  Biso   1.000  C
  C12      1.0000 0.11530  0.48830  0.69240  Biso   1.000  C
  C13      1.0000 0.76350  0.66250  0.34370  Biso   1.000  C
  C14      1.0000 0.23650  0.33750  0.65630  Biso   1.000  C
  C15      1.0000 0.82640  0.70500  0.25920  Biso   1.000  C
  C16      1.0000 0.17360  0.29500  0.74080  Biso   1.000  C
  C17      1.0000 0.86290  0.64660  0.43190  Biso   1.000  C
  C18      1.0000 0.13710  0.35340  0.56810  Biso   1.000  C
  H17      1.0000 0.82670  0.61900  0.48910  Biso   1.000  H
  H18      1.0000 0.17330  0.38100  0.51090  Biso   1.000  H
  H19      1.0000 0.86930  0.71740  0.42290  Biso   1.000  H
  H20      1.0000 0.13070  0.28260  0.57710  Biso   1.000  H
  H21      1.0000 0.95120  0.59410  0.43560  Biso   1.000  H
  H22      1.0000 0.04880  0.40590  0.56440  Biso   1.000  H
  C19      1.0000 0.62270  0.72240  0.35330  Biso   1.000  C
  C20      1.0000 0.37730  0.27760  0.64670  Biso   1.000  C
  H23      1.0000 0.60170  0.68090  0.41310  Biso   1.000  H
  H24      1.0000 0.39830  0.31910  0.58690  Biso   1.000  H
  H25      1.0000 0.56140  0.72950  0.30410  Biso   1.000  H
  H26      1.0000 0.43860  0.27050  0.69590  Biso   1.000  H
  H27      1.0000 0.61400  0.79540  0.34910  Biso   1.000  H
  H28      1.0000 0.38600  0.20460  0.65090  Biso   1.000  H
  C21      1.0000 0.89430  0.78600  0.24290  Biso   1.000  C
  C22      1.0000 0.10570  0.21400  0.75710  Biso   1.000  C
  H29      1.0000 0.92690  0.80050  0.18330  Biso   1.000  H
  H30      1.0000 0.07310  0.19950  0.81670  Biso   1.000  H
  H31      1.0000 0.96890  0.75610  0.29180  Biso   1.000  H
  H32      1.0000 0.03110  0.24390  0.70820  Biso   1.000  H
  H33      1.0000 0.83130  0.85460  0.24280  Biso   1.000  H
  H34      1.0000 0.16870  0.14540  0.75720  Biso   1.000  H
  C23      1.0000 0.71040  0.75620  0.17000  Biso   1.000  C
  C24      1.0000 0.28960  0.24380  0.83000  Biso   1.000  C
  H35      1.0000 0.66340  0.70560  0.17790  Biso   1.000  H
  H36      1.0000 0.33660  0.29440  0.82210  Biso   1.000  H
  H37      1.0000 0.75150  0.76640  0.11370  Biso   1.000  H
  H38      1.0000 0.24850  0.23360  0.88630  Biso   1.000  H
  H39      1.0000 0.64770  0.82700  0.16570  Biso   1.000  H
  H40      1.0000 0.35230  0.17300  0.83430  Biso   1.000  H
  C25      1.0000 0.24360  0.76990  0.39290  Biso   1.000  C
  C26      1.0000 0.75640  0.23010  0.60710  Biso   1.000  C
  H41      1.0000 0.24250  0.76540  0.45410  Biso   1.000  H
  H42      1.0000 0.75750  0.23460  0.54590  Biso   1.000  H
  C27      1.0000 0.29210  0.67260  0.37910  Biso   1.000  C
  C28      1.0000 0.70790  0.32740  0.62090  Biso   1.000  C
  H43      1.0000 0.32180  0.60390  0.43030  Biso   1.000  H
  H44      1.0000 0.67820  0.39610  0.56970  Biso   1.000  H
  C29      1.0000 0.29660  0.67650  0.28910  Biso   1.000  C
  C30      1.0000 0.70340  0.32350  0.71090  Biso   1.000  C
  C31      1.0000 0.24770  0.78010  0.21690  Biso   1.000  C
  C32      1.0000 0.75230  0.21990  0.78310  Biso   1.000  C
  H45      1.0000 0.24630  0.78620  0.15520  Biso   1.000  H
  H46      1.0000 0.75370  0.21380  0.84480  Biso   1.000  H
  C33      1.0000 0.19990  0.87610  0.23480  Biso   1.000  C
  C34      1.0000 0.80010  0.12390  0.76520  Biso   1.000  C
  H47      1.0000 0.16850  0.94560  0.18450  Biso   1.000  H
  H48      1.0000 0.83150  0.05440  0.81550  Biso   1.000  H
  C35      1.0000 0.35180  0.57480  0.27200  Biso   1.000  C
  C36      1.0000 0.64820  0.42520  0.72800  Biso   1.000  C
  C37      1.0000 0.43110  0.38320  0.29830  Biso   1.000  C
  C38      1.0000 0.56890  0.61680  0.70170  Biso   1.000  C
  C39      1.0000 0.45610  0.45090  0.20100  Biso   1.000  C
  C40      1.0000 0.54390  0.54910  0.79900  Biso   1.000  C
  C41      1.0000 0.55580  0.31000  0.36860  Biso   1.000  C
  C42      1.0000 0.44420  0.69000  0.63140  Biso   1.000  C
  H49      1.0000 0.61220  0.35240  0.36700  Biso   1.000  H
  H50      1.0000 0.38780  0.64760  0.63300  Biso   1.000  H
  H51      1.0000 0.60460  0.24760  0.35360  Biso   1.000  H
  H52      1.0000 0.39540  0.75240  0.64640  Biso   1.000  H
  H53      1.0000 0.53070  0.28330  0.43020  Biso   1.000  H
  H54      1.0000 0.46930  0.71670  0.56980  Biso   1.000  H
  C43      1.0000 0.34310  0.31580  0.30150  Biso   1.000  C
  C44      1.0000 0.65690  0.68420  0.69850  Biso   1.000  C
  H55      1.0000 0.26290  0.36230  0.25660  Biso   1.000  H
  H56      1.0000 0.73710  0.63770  0.74340  Biso   1.000  H
  H57      1.0000 0.31830  0.28910  0.36320  Biso   1.000  H
  H58      1.0000 0.68170  0.71090  0.63680  Biso   1.000  H
  H59      1.0000 0.39210  0.25330  0.28660  Biso   1.000  H
  H60      1.0000 0.60790  0.74670  0.71340  Biso   1.000  H
  C45      1.0000 0.60210  0.42210  0.18320  Biso   1.000  C
  C46      1.0000 0.39790  0.57790  0.81680  Biso   1.000  C
  H61      1.0000 0.65760  0.41530  0.23540  Biso   1.000  H
  H62      1.0000 0.34240  0.58470  0.76460  Biso   1.000  H
  H63      1.0000 0.60920  0.48020  0.12710  Biso   1.000  H
  H64      1.0000 0.39080  0.51980  0.87290  Biso   1.000  H
  H65      1.0000 0.63200  0.35240  0.17580  Biso   1.000  H
  H66      1.0000 0.36800  0.64760  0.82420  Biso   1.000  H
  C47      1.0000 0.36860  0.46170  0.11870  Biso   1.000  C
  C48      1.0000 0.63140  0.53830  0.88130  Biso   1.000  C
  H67      1.0000 0.27620  0.47980  0.13010  Biso   1.000  H
  H68      1.0000 0.72380  0.52020  0.86990  Biso   1.000  H
  H69      1.0000 0.39860  0.39220  0.11110  Biso   1.000  H
  H70      1.0000 0.60140  0.60780  0.88890  Biso   1.000  H
  H71      1.0000 0.37550  0.52000  0.06270  Biso   1.000  H
  H72      1.0000 0.62450  0.48000  0.93730  Biso   1.000  H
  C49      1.0000 0.87320  0.04650  0.29730  Biso   1.000  C
  C50      1.0000 0.12680  0.95350  0.70270  Biso   1.000  C
  C51      1.0000 0.73630  0.07380  0.24520  Biso   1.000  C
  C52      1.0000 0.26370  0.92620  0.75480  Biso   1.000  C
  C53      1.0000 0.63790  0.04150  0.29440  Biso   1.000  C
  C54      1.0000 0.36210  0.95850  0.70560  Biso   1.000  C
  H73      1.0000 0.65600  0.00620  0.35950  Biso   1.000  H
  H74      1.0000 0.34400  0.99380  0.64050  Biso   1.000  H
  C55      1.0000 0.51360  0.05980  0.25050  Biso   1.000  C
  C56      1.0000 0.48640  0.94020  0.74950  Biso   1.000  C
  C57      1.0000 0.48800  0.11120  0.15320  Biso   1.000  C
  C58      1.0000 0.51200  0.88880  0.84680  Biso   1.000  C
  C59      1.0000 0.58420  0.14620  0.10190  Biso   1.000  C
  C60      1.0000 0.41580  0.85380  0.89810  Biso   1.000  C
  H75      1.0000 0.56470  0.18240  0.03690  Biso   1.000  H
  H76      1.0000 0.43530  0.81760  0.96310  Biso   1.000  H
  C61      1.0000 0.70990  0.12790  0.14660  Biso   1.000  C
  C62      1.0000 0.29010  0.87210  0.85340  Biso   1.000  C
  C63      1.0000 0.80740  0.16670  0.08610  Biso   1.000  C
  C64      1.0000 0.19260  0.83330  0.91390  Biso   1.000  C
  C65      1.0000 0.41000  0.02380  0.31050  Biso   1.000  C
  C66      1.0000 0.59000  0.97620  0.68950  Biso   1.000  C
  C67      1.0000 0.35830  0.13320  0.09950  Biso   1.000  C
  C68      1.0000 0.64170  0.86680  0.90050  Biso   1.000  C
  O27      1.0000 0.00440  0.67320  0.00940  Biso   1.000  O
  O28      1.0000 0.99560  0.32680  0.99060  Biso   1.000  O
  H77      1.0000 0.99200  0.71900  0.02310  Biso   1.000  H
  H78      1.0000 0.00800  0.28100  0.97690  Biso   1.000  H
  H79      1.0000 0.05500  0.64400  0.07700  Biso   1.000  H
  H80      1.0000 0.94500  0.35600  0.92300  Biso   1.000  H
  O29      1.0000 0.13650  0.06110  0.99820  Biso   1.000  O
  O30      1.0000 0.86350  0.93890  0.00180  Biso   1.000  O
  H81      1.0000 0.14700  0.99400  0.98100  Biso   1.000  H
  H82      1.0000 0.85300  0.00600  0.01900  Biso   1.000  H
  H83      1.0000 0.05100  0.09300  0.00800  Biso   1.000  H
  H84      1.0000 0.94900  0.90700  0.99200  Biso   1.000  H
