data_image0
_cell_length_a       12.896
_cell_length_b       12.552
_cell_length_c       22.903
_cell_angle_alpha    90
_cell_angle_beta     93.04
_cell_angle_gamma    90

_symmetry_space_group_name_H-M    "P 1"
_symmetry_int_tables_number       1

loop_
  _symmetry_equiv_pos_as_xyz
  'x, y, z'

loop_
  _atom_site_label
  _atom_site_occupancy
  _atom_site_fract_x
  _atom_site_fract_y
  _atom_site_fract_z
  _atom_site_thermal_displace_type
  _atom_site_B_iso_or_equiv
  _atom_site_type_symbol
  Cu1      1.0000 0.93522  0.32929  0.17502  Biso   1.000  Cu
  Cu2      1.0000 0.56478  0.82929  0.32498  Biso   1.000  Cu
  Cu3      1.0000 0.06478  0.67071  0.82498  Biso   1.000  Cu
  Cu4      1.0000 0.43522  0.17071  0.67502  Biso   1.000  Cu
  N1       1.0000 0.05600  0.36950  0.22439  Biso   1.000  N
  N2       1.0000 0.44400  0.86950  0.27561  Biso   1.000  N
  N3       1.0000 0.94400  0.63050  0.77561  Biso   1.000  N
  N4       1.0000 0.55600  0.13050  0.72439  Biso   1.000  N
  N5       1.0000 0.30200  0.44390  0.38313  Biso   1.000  N
  N6       1.0000 0.19800  0.94390  0.11687  Biso   1.000  N
  N7       1.0000 0.69800  0.55610  0.61687  Biso   1.000  N
  N8       1.0000 0.80200  0.05610  0.88313  Biso   1.000  N
  N9       1.0000 0.83060  0.35600  0.24278  Biso   1.000  N
  N10      1.0000 0.66940  0.85600  0.25722  Biso   1.000  N
  N11      1.0000 0.16940  0.64400  0.75722  Biso   1.000  N
  N12      1.0000 0.33060  0.14400  0.74278  Biso   1.000  N
  N13      1.0000 0.52480  0.35790  0.39283  Biso   1.000  N
  N14      1.0000 0.97520  0.85790  0.10717  Biso   1.000  N
  N15      1.0000 0.47520  0.64210  0.60717  Biso   1.000  N
  N16      1.0000 0.02480  0.14210  0.89283  Biso   1.000  N
  N17      1.0000 0.81670  0.29590  0.12389  Biso   1.000  N
  N18      1.0000 0.68330  0.79590  0.37611  Biso   1.000  N
  N19      1.0000 0.18330  0.70410  0.87611  Biso   1.000  N
  N20      1.0000 0.31670  0.20410  0.62389  Biso   1.000  N
  N21      1.0000 0.53660  0.30900  0.97740  Biso   1.000  N
  N22      1.0000 0.96340  0.80900  0.52260  Biso   1.000  N
  N23      1.0000 0.46340  0.69100  0.02260  Biso   1.000  N
  N24      1.0000 0.03660  0.19100  0.47740  Biso   1.000  N
  N25      1.0000 0.03760  0.31350  0.10397  Biso   1.000  N
  N26      1.0000 0.46240  0.81350  0.39603  Biso   1.000  N
  N27      1.0000 0.96240  0.68650  0.89603  Biso   1.000  N
  N28      1.0000 0.53760  0.18650  0.60397  Biso   1.000  N
  N29      1.0000 0.32930  0.22210  0.95543  Biso   1.000  N
  N30      1.0000 0.17070  0.72210  0.54457  Biso   1.000  N
  N31      1.0000 0.67070  0.77790  0.04457  Biso   1.000  N
  N32      1.0000 0.82930  0.27790  0.45543  Biso   1.000  N
  O1       1.0000 0.37910  0.51860  0.30227  Biso   1.000  O
  O2       1.0000 0.12090  0.01860  0.19773  Biso   1.000  O
  O3       1.0000 0.62090  0.48140  0.69773  Biso   1.000  O
  O4       1.0000 0.87910  0.98140  0.80227  Biso   1.000  O
  O5       1.0000 0.64300  0.46650  0.42899  Biso   1.000  O
  O6       1.0000 0.85700  0.96650  0.07101  Biso   1.000  O
  O7       1.0000 0.35700  0.53350  0.57101  Biso   1.000  O
  O8       1.0000 0.14300  0.03350  0.92899  Biso   1.000  O
  O9       1.0000 0.64380  0.17490  0.95007  Biso   1.000  O
  O10      1.0000 0.85620  0.67490  0.54993  Biso   1.000  O
  O11      1.0000 0.35620  0.82510  0.04993  Biso   1.000  O
  O12      1.0000 0.14380  0.32510  0.45007  Biso   1.000  O
  O13      1.0000 0.24360  0.35580  0.91389  Biso   1.000  O
  O14      1.0000 0.25640  0.85580  0.58611  Biso   1.000  O
  O15      1.0000 0.75640  0.64420  0.08611  Biso   1.000  O
  O16      1.0000 0.74360  0.14420  0.41389  Biso   1.000  O
  O17      1.0000 0.94700  0.14760  0.19891  Biso   1.000  O
  O18      1.0000 0.55300  0.64760  0.30109  Biso   1.000  O
  O19      1.0000 0.05300  0.85240  0.80109  Biso   1.000  O
  O20      1.0000 0.44700  0.35240  0.69891  Biso   1.000  O
  C1       1.0000 0.07780  0.31550  0.27248  Biso   1.000  C
  C2       1.0000 0.42220  0.81550  0.22752  Biso   1.000  C
  C3       1.0000 0.92220  0.68450  0.72752  Biso   1.000  C
  C4       1.0000 0.57780  0.18450  0.77248  Biso   1.000  C
  C5       1.0000 0.15760  0.34220  0.30651  Biso   1.000  C
  C6       1.0000 0.34240  0.84220  0.19349  Biso   1.000  C
  C7       1.0000 0.84240  0.65780  0.69349  Biso   1.000  C
  C8       1.0000 0.65760  0.15780  0.80651  Biso   1.000  C
  C9       1.0000 0.21930  0.42960  0.29206  Biso   1.000  C
  C10      1.0000 0.28070  0.92960  0.20794  Biso   1.000  C
  C11      1.0000 0.78070  0.57040  0.70794  Biso   1.000  C
  C12      1.0000 0.71930  0.07040  0.79206  Biso   1.000  C
  C13      1.0000 0.19870  0.48310  0.24173  Biso   1.000  C
  C14      1.0000 0.30130  0.98310  0.25827  Biso   1.000  C
  C15      1.0000 0.80130  0.51690  0.75827  Biso   1.000  C
  C16      1.0000 0.69870  0.01690  0.74173  Biso   1.000  C
  C17      1.0000 0.11820  0.45130  0.20955  Biso   1.000  C
  C18      1.0000 0.38180  0.95130  0.29045  Biso   1.000  C
  C19      1.0000 0.88180  0.54870  0.79045  Biso   1.000  C
  C20      1.0000 0.61820  0.04870  0.70955  Biso   1.000  C
  C21      1.0000 0.30730  0.46690  0.32694  Biso   1.000  C
  C22      1.0000 0.19270  0.96690  0.17306  Biso   1.000  C
  C23      1.0000 0.69270  0.53310  0.67306  Biso   1.000  C
  C24      1.0000 0.80730  0.03310  0.82694  Biso   1.000  C
  C25      1.0000 0.37820  0.47320  0.42479  Biso   1.000  C
  C26      1.0000 0.12180  0.97320  0.07521  Biso   1.000  C
  C27      1.0000 0.62180  0.52680  0.57521  Biso   1.000  C
  C28      1.0000 0.87820  0.02680  0.92479  Biso   1.000  C
  C29      1.0000 0.83880  0.44000  0.27857  Biso   1.000  C
  C30      1.0000 0.66120  0.94000  0.22143  Biso   1.000  C
  C31      1.0000 0.16120  0.56000  0.72143  Biso   1.000  C
  C32      1.0000 0.33880  0.06000  0.77857  Biso   1.000  C
  C33      1.0000 0.77000  0.45680  0.32580  Biso   1.000  C
  C34      1.0000 0.73000  0.95680  0.17420  Biso   1.000  C
  C35      1.0000 0.23000  0.54320  0.67420  Biso   1.000  C
  C36      1.0000 0.27000  0.04320  0.82580  Biso   1.000  C
  C37      1.0000 0.68880  0.38720  0.33758  Biso   1.000  C
  C38      1.0000 0.81120  0.88720  0.16242  Biso   1.000  C
  C39      1.0000 0.31120  0.61280  0.66242  Biso   1.000  C
  C40      1.0000 0.18880  0.11280  0.83758  Biso   1.000  C
  C41      1.0000 0.67990  0.30120  0.30004  Biso   1.000  C
  C42      1.0000 0.82010  0.80120  0.19996  Biso   1.000  C
  C43      1.0000 0.32010  0.69880  0.69996  Biso   1.000  C
  C44      1.0000 0.17990  0.19880  0.80004  Biso   1.000  C
  C45      1.0000 0.75150  0.28880  0.25395  Biso   1.000  C
  C46      1.0000 0.74850  0.78880  0.24605  Biso   1.000  C
  C47      1.0000 0.24850  0.71120  0.74605  Biso   1.000  C
  C48      1.0000 0.25150  0.21120  0.75395  Biso   1.000  C
  C49      1.0000 0.61570  0.40670  0.39017  Biso   1.000  C
  C50      1.0000 0.88430  0.90670  0.10983  Biso   1.000  C
  C51      1.0000 0.38430  0.59330  0.60983  Biso   1.000  C
  C52      1.0000 0.11570  0.09330  0.89017  Biso   1.000  C
  C53      1.0000 0.44700  0.38030  0.43927  Biso   1.000  C
  C54      1.0000 0.05300  0.88030  0.06073  Biso   1.000  C
  C55      1.0000 0.55300  0.61970  0.56073  Biso   1.000  C
  C56      1.0000 0.94700  0.11970  0.93927  Biso   1.000  C
  C57      1.0000 0.74420  0.36800  0.11291  Biso   1.000  C
  C58      1.0000 0.75580  0.86800  0.38709  Biso   1.000  C
  C59      1.0000 0.25580  0.63200  0.88709  Biso   1.000  C
  C60      1.0000 0.24420  0.13200  0.61291  Biso   1.000  C
  C61      1.0000 0.67450  0.35470  0.07069  Biso   1.000  C
  C62      1.0000 0.82550  0.85470  0.42931  Biso   1.000  C
  C63      1.0000 0.32550  0.64530  0.92931  Biso   1.000  C
  C64      1.0000 0.17450  0.14530  0.57069  Biso   1.000  C
  C65      1.0000 0.67610  0.26090  0.03861  Biso   1.000  C
  C66      1.0000 0.82390  0.76090  0.46139  Biso   1.000  C
  C67      1.0000 0.32390  0.73910  0.96139  Biso   1.000  C
  C68      1.0000 0.17610  0.23910  0.53861  Biso   1.000  C
  C69      1.0000 0.74620  0.18320  0.05306  Biso   1.000  C
  C70      1.0000 0.75380  0.68320  0.44694  Biso   1.000  C
  C71      1.0000 0.25380  0.81680  0.94694  Biso   1.000  C
  C72      1.0000 0.24620  0.31680  0.55306  Biso   1.000  C
  C73      1.0000 0.81500  0.20360  0.09491  Biso   1.000  C
  C74      1.0000 0.68500  0.70360  0.40509  Biso   1.000  C
  C75      1.0000 0.18500  0.79640  0.90509  Biso   1.000  C
  C76      1.0000 0.31500  0.29640  0.59491  Biso   1.000  C
  C77      1.0000 0.61550  0.24430  0.98555  Biso   1.000  C
  C78      1.0000 0.88450  0.74430  0.51445  Biso   1.000  C
  C79      1.0000 0.38450  0.75570  0.01445  Biso   1.000  C
  C80      1.0000 0.11550  0.25570  0.48555  Biso   1.000  C
  C81      1.0000 0.48820  0.31360  0.92135  Biso   1.000  C
  C82      1.0000 0.01180  0.81360  0.57865  Biso   1.000  C
  C83      1.0000 0.51180  0.68640  0.07865  Biso   1.000  C
  C84      1.0000 0.98820  0.18640  0.42135  Biso   1.000  C
  C85      1.0000 0.01580  0.35380  0.05155  Biso   1.000  C
  C86      1.0000 0.48420  0.85380  0.44845  Biso   1.000  C
  C87      1.0000 0.98420  0.64620  0.94845  Biso   1.000  C
  C88      1.0000 0.51580  0.14620  0.55155  Biso   1.000  C
  C89      1.0000 0.08340  0.34600  0.00350  Biso   1.000  C
  C90      1.0000 0.41660  0.84600  0.49650  Biso   1.000  C
  C91      1.0000 0.91660  0.65400  0.99650  Biso   1.000  C
  C92      1.0000 0.58340  0.15400  0.50350  Biso   1.000  C
  C93      1.0000 0.17760  0.29550  0.00704  Biso   1.000  C
  C94      1.0000 0.32240  0.79550  0.49296  Biso   1.000  C
  C95      1.0000 0.82240  0.70450  0.99296  Biso   1.000  C
  C96      1.0000 0.67760  0.20450  0.50704  Biso   1.000  C
  C97      1.0000 0.19960  0.25320  0.06125  Biso   1.000  C
  C98      1.0000 0.30040  0.75320  0.43875  Biso   1.000  C
  C99      1.0000 0.80040  0.74680  0.93875  Biso   1.000  C
  C100     1.0000 0.69960  0.24680  0.56125  Biso   1.000  C
  C101     1.0000 0.12860  0.26390  0.10724  Biso   1.000  C
  C102     1.0000 0.37140  0.76390  0.39276  Biso   1.000  C
  C103     1.0000 0.87140  0.73610  0.89276  Biso   1.000  C
  C104     1.0000 0.62860  0.23610  0.60724  Biso   1.000  C
  C105     1.0000 0.25310  0.29280  0.95502  Biso   1.000  C
  C106     1.0000 0.24690  0.79280  0.54498  Biso   1.000  C
  C107     1.0000 0.74690  0.70720  0.04498  Biso   1.000  C
  C108     1.0000 0.75310  0.20720  0.45502  Biso   1.000  C
  C109     1.0000 0.41520  0.22240  0.91157  Biso   1.000  C
  C110     1.0000 0.08480  0.72240  0.58843  Biso   1.000  C
  C111     1.0000 0.58480  0.77760  0.08843  Biso   1.000  C
  C112     1.0000 0.91520  0.27760  0.41157  Biso   1.000  C
  H1       1.0000 0.74800  0.23000  0.23130  Biso   1.000  H
  H2       1.0000 0.75200  0.73000  0.26870  Biso   1.000  H
  H3       1.0000 0.25200  0.77000  0.76870  Biso   1.000  H
  H4       1.0000 0.24800  0.27000  0.73130  Biso   1.000  H
  H5       1.0000 0.74900  0.11800  0.03690  Biso   1.000  H
  H6       1.0000 0.75100  0.61800  0.46310  Biso   1.000  H
  H7       1.0000 0.25100  0.88200  0.96310  Biso   1.000  H
  H8       1.0000 0.24900  0.38200  0.53690  Biso   1.000  H
  H9       1.0000 0.54400  0.31300  0.89360  Biso   1.000  H
  H10      1.0000 0.95600  0.81300  0.60640  Biso   1.000  H
  H11      1.0000 0.45600  0.68700  0.10640  Biso   1.000  H
  H12      1.0000 0.04400  0.18700  0.39360  Biso   1.000  H
  H13      1.0000 0.14100  0.23900  0.14190  Biso   1.000  H
  H14      1.0000 0.35900  0.73900  0.35810  Biso   1.000  H
  H15      1.0000 0.85900  0.76100  0.85810  Biso   1.000  H
  H16      1.0000 0.64100  0.26100  0.64190  Biso   1.000  H
  H17      1.0000 0.45500  0.38400  0.92010  Biso   1.000  H
  H18      1.0000 0.04500  0.88400  0.57990  Biso   1.000  H
  H19      1.0000 0.54500  0.61600  0.07990  Biso   1.000  H
  H20      1.0000 0.95500  0.11600  0.42010  Biso   1.000  H
  H21      1.0000 0.74200  0.43100  0.13480  Biso   1.000  H
  H22      1.0000 0.75800  0.93100  0.36520  Biso   1.000  H
  H23      1.0000 0.25800  0.56900  0.86520  Biso   1.000  H
  H24      1.0000 0.24200  0.06900  0.63480  Biso   1.000  H
  H25      1.0000 0.86700  0.15500  0.10330  Biso   1.000  H
  H26      1.0000 0.63300  0.65500  0.39670  Biso   1.000  H
  H27      1.0000 0.13300  0.84500  0.89670  Biso   1.000  H
  H28      1.0000 0.36700  0.34500  0.60330  Biso   1.000  H
  H29      1.0000 0.77700  0.51800  0.34910  Biso   1.000  H
  H30      1.0000 0.72300  0.01800  0.15090  Biso   1.000  H
  H31      1.0000 0.22300  0.48200  0.65090  Biso   1.000  H
  H32      1.0000 0.27700  0.98200  0.84910  Biso   1.000  H
  H33      1.0000 0.33600  0.49300  0.45990  Biso   1.000  H
  H34      1.0000 0.16400  0.99300  0.04010  Biso   1.000  H
  H35      1.0000 0.66400  0.50700  0.54010  Biso   1.000  H
  H36      1.0000 0.83600  0.00700  0.95990  Biso   1.000  H
  H37      1.0000 0.62600  0.25600  0.30720  Biso   1.000  H
  H38      1.0000 0.87400  0.75600  0.19280  Biso   1.000  H
  H39      1.0000 0.37400  0.74400  0.69280  Biso   1.000  H
  H40      1.0000 0.12600  0.24400  0.80720  Biso   1.000  H
  H41      1.0000 0.41300  0.52900  0.40900  Biso   1.000  H
  H42      1.0000 0.08700  0.02900  0.09100  Biso   1.000  H
  H43      1.0000 0.58700  0.47100  0.59100  Biso   1.000  H
  H44      1.0000 0.91300  0.97100  0.90900  Biso   1.000  H
  H45      1.0000 0.06100  0.37700  0.96860  Biso   1.000  H
  H46      1.0000 0.43900  0.87700  0.53140  Biso   1.000  H
  H47      1.0000 0.93900  0.62300  0.03140  Biso   1.000  H
  H48      1.0000 0.56100  0.12300  0.46860  Biso   1.000  H
  H49      1.0000 0.38800  0.23200  0.87410  Biso   1.000  H
  H50      1.0000 0.11200  0.73200  0.62590  Biso   1.000  H
  H51      1.0000 0.61200  0.76800  0.12590  Biso   1.000  H
  H52      1.0000 0.88800  0.26800  0.37410  Biso   1.000  H
  H53      1.0000 0.48400  0.39900  0.47160  Biso   1.000  H
  H54      1.0000 0.01600  0.89900  0.02840  Biso   1.000  H
  H55      1.0000 0.51600  0.60100  0.52840  Biso   1.000  H
  H56      1.0000 0.98400  0.10100  0.97160  Biso   1.000  H
  H57      1.0000 0.44900  0.15600  0.91420  Biso   1.000  H
  H58      1.0000 0.05100  0.65600  0.58580  Biso   1.000  H
  H59      1.0000 0.55100  0.84400  0.08580  Biso   1.000  H
  H60      1.0000 0.94900  0.34400  0.41420  Biso   1.000  H
  H61      1.0000 0.33100  0.17900  0.98380  Biso   1.000  H
  H62      1.0000 0.16900  0.67900  0.51620  Biso   1.000  H
  H63      1.0000 0.66900  0.82100  0.01620  Biso   1.000  H
  H64      1.0000 0.83100  0.32100  0.48380  Biso   1.000  H
  H65      1.0000 0.91500  0.13100  0.22650  Biso   1.000  H
  H66      1.0000 0.58500  0.63100  0.27350  Biso   1.000  H
  H67      1.0000 0.08500  0.86900  0.77350  Biso   1.000  H
  H68      1.0000 0.41500  0.36900  0.72650  Biso   1.000  H
  H69      1.0000 0.89000  0.48800  0.27080  Biso   1.000  H
  H70      1.0000 0.61000  0.98800  0.22920  Biso   1.000  H
  H71      1.0000 0.11000  0.51200  0.72920  Biso   1.000  H
  H72      1.0000 0.39000  0.01200  0.77080  Biso   1.000  H
  H73      1.0000 0.50300  0.32100  0.36650  Biso   1.000  H
  H74      1.0000 0.99700  0.82100  0.13350  Biso   1.000  H
  H75      1.0000 0.49700  0.67900  0.63350  Biso   1.000  H
  H76      1.0000 0.00300  0.17900  0.86650  Biso   1.000  H
  H77      1.0000 0.16700  0.30200  0.34000  Biso   1.000  H
  H78      1.0000 0.33300  0.80200  0.16000  Biso   1.000  H
  H79      1.0000 0.83300  0.69800  0.66000  Biso   1.000  H
  H80      1.0000 0.66700  0.19800  0.84000  Biso   1.000  H
  H81      1.0000 0.50900  0.34100  0.00590  Biso   1.000  H
  H82      1.0000 0.99100  0.84100  0.49410  Biso   1.000  H
  H83      1.0000 0.49100  0.65900  0.99410  Biso   1.000  H
  H84      1.0000 0.00900  0.15900  0.50590  Biso   1.000  H
  H85      1.0000 0.23500  0.53900  0.22840  Biso   1.000  H
  H86      1.0000 0.26500  0.03900  0.27160  Biso   1.000  H
  H87      1.0000 0.76500  0.46100  0.77160  Biso   1.000  H
  H88      1.0000 0.73500  0.96100  0.72840  Biso   1.000  H
  H89      1.0000 0.40400  0.32700  0.44380  Biso   1.000  H
  H90      1.0000 0.09600  0.82700  0.05620  Biso   1.000  H
  H91      1.0000 0.59600  0.67300  0.55620  Biso   1.000  H
  H92      1.0000 0.90400  0.17300  0.94380  Biso   1.000  H
  H93      1.0000 0.62300  0.40700  0.06560  Biso   1.000  H
  H94      1.0000 0.87700  0.90700  0.43440  Biso   1.000  H
  H95      1.0000 0.37700  0.59300  0.93440  Biso   1.000  H
  H96      1.0000 0.12300  0.09300  0.56560  Biso   1.000  H
  H97      1.0000 0.25400  0.41300  0.39490  Biso   1.000  H
  H98      1.0000 0.24600  0.91300  0.10510  Biso   1.000  H
  H99      1.0000 0.74600  0.58700  0.60510  Biso   1.000  H
  H100     1.0000 0.75400  0.08700  0.89490  Biso   1.000  H
  H101     1.0000 0.03600  0.25600  0.28020  Biso   1.000  H
  H102     1.0000 0.46400  0.75600  0.21980  Biso   1.000  H
  H103     1.0000 0.96400  0.74400  0.71980  Biso   1.000  H
  H104     1.0000 0.53600  0.24400  0.78020  Biso   1.000  H
  H105     1.0000 0.09700  0.48600  0.17580  Biso   1.000  H
  H106     1.0000 0.40300  0.98600  0.32420  Biso   1.000  H
  H107     1.0000 0.90300  0.51400  0.82420  Biso   1.000  H
  H108     1.0000 0.59700  0.01400  0.67580  Biso   1.000  H
  H109     1.0000 0.26300  0.22000  0.06780  Biso   1.000  H
  H110     1.0000 0.23700  0.72000  0.43220  Biso   1.000  H
  H111     1.0000 0.73700  0.78000  0.93220  Biso   1.000  H
  H112     1.0000 0.76300  0.28000  0.56780  Biso   1.000  H
  H113     1.0000 0.94800  0.39100  0.04950  Biso   1.000  H
  H114     1.0000 0.55200  0.89100  0.45050  Biso   1.000  H
  H115     1.0000 0.05200  0.60900  0.95050  Biso   1.000  H
  H116     1.0000 0.44800  0.10900  0.54950  Biso   1.000  H
  H117     1.0000 0.99000  0.11100  0.19410  Biso   1.000  H
  H118     1.0000 0.51000  0.61100  0.30590  Biso   1.000  H
  H119     1.0000 0.01000  0.88900  0.80590  Biso   1.000  H
  H120     1.0000 0.49000  0.38900  0.69410  Biso   1.000  H
  N33      1.0000 0.48560  0.15210  0.16040  Biso   1.000  N
  N34      1.0000 0.01440  0.65210  0.33960  Biso   1.000  N
  N35      1.0000 0.51440  0.84790  0.83960  Biso   1.000  N
  N36      1.0000 0.98560  0.34790  0.66040  Biso   1.000  N
  O21      1.0000 0.50930  0.07450  0.13160  Biso   1.000  O
  O22      1.0000 0.99070  0.57450  0.36840  Biso   1.000  O
  O23      1.0000 0.49070  0.92550  0.86840  Biso   1.000  O
  O24      1.0000 0.00930  0.42550  0.63160  Biso   1.000  O
  O25      1.0000 0.41360  0.19940  0.14680  Biso   1.000  O
  O26      1.0000 0.08640  0.69940  0.35320  Biso   1.000  O
  O27      1.0000 0.58640  0.80060  0.85320  Biso   1.000  O
  O28      1.0000 0.91360  0.30060  0.64680  Biso   1.000  O
  O29      1.0000 0.53470  0.18370  0.19860  Biso   1.000  O
  O30      1.0000 0.96530  0.68370  0.30140  Biso   1.000  O
  O31      1.0000 0.46530  0.81630  0.80140  Biso   1.000  O
  O32      1.0000 0.03470  0.31630  0.69860  Biso   1.000  O
  N37      1.0000 0.19740  0.59190  0.08169  Biso   1.000  N
  N38      1.0000 0.30260  0.09190  0.41831  Biso   1.000  N
  N39      1.0000 0.80260  0.40810  0.91831  Biso   1.000  N
  N40      1.0000 0.69740  0.90810  0.58169  Biso   1.000  N
  O33      1.0000 0.24080  0.53840  0.04350  Biso   1.000  O
  O34      1.0000 0.25920  0.03840  0.45650  Biso   1.000  O
  O35      1.0000 0.75920  0.46160  0.95650  Biso   1.000  O
  O36      1.0000 0.74080  0.96160  0.54350  Biso   1.000  O
  O37      1.0000 0.24450  0.62000  0.12357  Biso   1.000  O
  O38      1.0000 0.25550  0.12000  0.37643  Biso   1.000  O
  O39      1.0000 0.75550  0.38000  0.87643  Biso   1.000  O
  O40      1.0000 0.74450  0.88000  0.62357  Biso   1.000  O
  O41      1.0000 0.10570  0.61460  0.07880  Biso   1.000  O
  O42      1.0000 0.39430  0.11460  0.42120  Biso   1.000  O
  O43      1.0000 0.89430  0.38540  0.92120  Biso   1.000  O
  O44      1.0000 0.60570  0.88540  0.57880  Biso   1.000  O
  O45      1.0000 0.48410  0.42400  0.19144  Biso   1.000  O
  O46      1.0000 0.01590  0.92400  0.30856  Biso   1.000  O
  O47      1.0000 0.51590  0.57600  0.80856  Biso   1.000  O
  O48      1.0000 0.98410  0.07600  0.69144  Biso   1.000  O
  H121     1.0000 0.48000  0.33000  0.21600  Biso   1.000  H
  H122     1.0000 0.02000  0.83000  0.28400  Biso   1.000  H
  H123     1.0000 0.52000  0.67000  0.78400  Biso   1.000  H
  H124     1.0000 0.98000  0.17000  0.71600  Biso   1.000  H
  H125     1.0000 0.45000  0.47400  0.19900  Biso   1.000  H
  H126     1.0000 0.05000  0.97400  0.30100  Biso   1.000  H
  H127     1.0000 0.55000  0.52600  0.80100  Biso   1.000  H
  H128     1.0000 0.95000  0.02600  0.69900  Biso   1.000  H
  O49      1.0000 0.42020  0.23650  0.30730  Biso   1.000  O
  O50      1.0000 0.07980  0.73650  0.19270  Biso   1.000  O
  O51      1.0000 0.57980  0.76350  0.69270  Biso   1.000  O
  O52      1.0000 0.92020  0.26350  0.80730  Biso   1.000  O
  H129     1.0000 0.37200  0.17700  0.34000  Biso   1.000  H
  H130     1.0000 0.12800  0.67700  0.16000  Biso   1.000  H
  H131     1.0000 0.62800  0.82300  0.66000  Biso   1.000  H
  H132     1.0000 0.87200  0.32300  0.84000  Biso   1.000  H
  H133     1.0000 0.42000  0.25100  0.28610  Biso   1.000  H
  H134     1.0000 0.08000  0.75100  0.21390  Biso   1.000  H
  H135     1.0000 0.58000  0.74900  0.71390  Biso   1.000  H
  H136     1.0000 0.92000  0.24900  0.78610  Biso   1.000  H
  O53      1.0000 0.63860  0.57890  0.19450  Biso   1.000  O
  O54      1.0000 0.86140  0.07890  0.30550  Biso   1.000  O
  O55      1.0000 0.36140  0.42110  0.80550  Biso   1.000  O
  O56      1.0000 0.13860  0.92110  0.69450  Biso   1.000  O
  H137     1.0000 0.67100  0.59400  0.16500  Biso   1.000  H
  H138     1.0000 0.82900  0.09400  0.33500  Biso   1.000  H
  H139     1.0000 0.32900  0.40600  0.83500  Biso   1.000  H
  H140     1.0000 0.17100  0.90600  0.66500  Biso   1.000  H
  H141     1.0000 0.59400  0.53300  0.19000  Biso   1.000  H
  H142     1.0000 0.90600  0.03300  0.31000  Biso   1.000  H
  H143     1.0000 0.40600  0.46700  0.81000  Biso   1.000  H
  H144     1.0000 0.09400  0.96700  0.69000  Biso   1.000  H
  O57      1.0000 0.39470  0.05890  0.03056  Biso   1.000  O
  O58      1.0000 0.10530  0.55890  0.46944  Biso   1.000  O
  O59      1.0000 0.60530  0.94110  0.96944  Biso   1.000  O
  O60      1.0000 0.89470  0.44110  0.53056  Biso   1.000  O
  H145     1.0000 0.42400  0.07800  0.06600  Biso   1.000  H
  H146     1.0000 0.07600  0.57800  0.43400  Biso   1.000  H
  H147     1.0000 0.57600  0.92200  0.93400  Biso   1.000  H
  H148     1.0000 0.92400  0.42200  0.56600  Biso   1.000  H
  H149     1.0000 0.39600  0.99800  0.02500  Biso   1.000  H
  H150     1.0000 0.10400  0.49800  0.47500  Biso   1.000  H
  H151     1.0000 0.60400  0.00200  0.97500  Biso   1.000  H
  H152     1.0000 0.89600  0.50200  0.52500  Biso   1.000  H
  O61      1.0000 0.91750  0.53440  0.14623  Biso   1.000  O
  O62      1.0000 0.58250  0.03440  0.35377  Biso   1.000  O
  O63      1.0000 0.08250  0.46560  0.85377  Biso   1.000  O
  O64      1.0000 0.41750  0.96560  0.64623  Biso   1.000  O
  H153     1.0000 0.96700  0.56200  0.13600  Biso   1.000  H
  H154     1.0000 0.53300  0.06200  0.36400  Biso   1.000  H
  H155     1.0000 0.03300  0.43800  0.86400  Biso   1.000  H
  H156     1.0000 0.46700  0.93800  0.63600  Biso   1.000  H
  H157     1.0000 0.87200  0.56700  0.13600  Biso   1.000  H
  H158     1.0000 0.62800  0.06700  0.36400  Biso   1.000  H
  H159     1.0000 0.12800  0.43300  0.86400  Biso   1.000  H
  H160     1.0000 0.37200  0.93300  0.63600  Biso   1.000  H
  O65      1.0000 0.42800  0.43460  0.06650  Biso   1.000  O
  O66      1.0000 0.07200  0.93460  0.43350  Biso   1.000  O
  O67      1.0000 0.57200  0.56540  0.93350  Biso   1.000  O
  O68      1.0000 0.92800  0.06540  0.56650  Biso   1.000  O
  H161     1.0000 0.42300  0.39400  0.09400  Biso   1.000  H
  H162     1.0000 0.07700  0.89400  0.40600  Biso   1.000  H
  H163     1.0000 0.57700  0.60600  0.90600  Biso   1.000  H
  H164     1.0000 0.92300  0.10600  0.59400  Biso   1.000  H
  H165     1.0000 0.37200  0.47000  0.06300  Biso   1.000  H
  H166     1.0000 0.12800  0.97000  0.43700  Biso   1.000  H
  H167     1.0000 0.62800  0.53000  0.93700  Biso   1.000  H
  H168     1.0000 0.87200  0.03000  0.56300  Biso   1.000  H
