data_image0
_cell_length_a       18.76
_cell_length_b       7.28
_cell_length_c       23.402
_cell_angle_alpha    90
_cell_angle_beta     123.12
_cell_angle_gamma    90

_symmetry_space_group_name_H-M    "P 1"
_symmetry_int_tables_number       1

loop_
  _symmetry_equiv_pos_as_xyz
  'x, y, z'

loop_
  _atom_site_label
  _atom_site_occupancy
  _atom_site_fract_x
  _atom_site_fract_y
  _atom_site_fract_z
  _atom_site_thermal_displace_type
  _atom_site_B_iso_or_equiv
  _atom_site_type_symbol
  Cu1      1.0000 0.54985  0.64657  0.52194  Biso   1.000  Cu
  Cu2      1.0000 0.45015  0.64657  0.97806  Biso   1.000  Cu
  Cu3      1.0000 0.45015  0.35343  0.47806  Biso   1.000  Cu
  Cu4      1.0000 0.54985  0.35343  0.02194  Biso   1.000  Cu
  F1       1.0000 0.91858  0.76610  0.43410  Biso   1.000  F
  F2       1.0000 0.08142  0.76610  0.06590  Biso   1.000  F
  F3       1.0000 0.08142  0.23390  0.56590  Biso   1.000  F
  F4       1.0000 0.91858  0.23390  0.93410  Biso   1.000  F
  F5       1.0000 0.81780  0.70460  0.44887  Biso   1.000  F
  F6       1.0000 0.18220  0.70460  0.05113  Biso   1.000  F
  F7       1.0000 0.18220  0.29540  0.55113  Biso   1.000  F
  F8       1.0000 0.81780  0.29540  0.94887  Biso   1.000  F
  F9       1.0000 0.90281  0.92890  0.50264  Biso   1.000  F
  F10      1.0000 0.09719  0.92890  0.99736  Biso   1.000  F
  F11      1.0000 0.09719  0.07110  0.49736  Biso   1.000  F
  F12      1.0000 0.90281  0.07110  0.00264  Biso   1.000  F
  F13      1.0000 0.80748  0.24730  0.33157  Biso   1.000  F
  F14      1.0000 0.19252  0.24730  0.16843  Biso   1.000  F
  F15      1.0000 0.19252  0.75270  0.66843  Biso   1.000  F
  F16      1.0000 0.80748  0.75270  0.83157  Biso   1.000  F
  F17      1.0000 0.91850  0.18120  0.42892  Biso   1.000  F
  F18      1.0000 0.08150  0.18120  0.07108  Biso   1.000  F
  F19      1.0000 0.08150  0.81880  0.57108  Biso   1.000  F
  F20      1.0000 0.91850  0.81880  0.92892  Biso   1.000  F
  F21      1.0000 0.88716  0.02360  0.34096  Biso   1.000  F
  F22      1.0000 0.11284  0.02360  0.15904  Biso   1.000  F
  F23      1.0000 0.11284  0.97640  0.65904  Biso   1.000  F
  F24      1.0000 0.88716  0.97640  0.84096  Biso   1.000  F
  F25      1.0000 0.07147  0.60310  0.74001  Biso   1.000  F
  F26      1.0000 0.92853  0.60310  0.75999  Biso   1.000  F
  F27      1.0000 0.92853  0.39690  0.25999  Biso   1.000  F
  F28      1.0000 0.07147  0.39690  0.24001  Biso   1.000  F
  F29      1.0000 0.94602  0.54190  0.65455  Biso   1.000  F
  F30      1.0000 0.05398  0.54190  0.84545  Biso   1.000  F
  F31      1.0000 0.05398  0.45810  0.34545  Biso   1.000  F
  F32      1.0000 0.94602  0.45810  0.15455  Biso   1.000  F
  F33      1.0000 0.04988  0.37040  0.67624  Biso   1.000  F
  F34      1.0000 0.95012  0.37040  0.82376  Biso   1.000  F
  F35      1.0000 0.95012  0.62960  0.32376  Biso   1.000  F
  F36      1.0000 0.04988  0.62960  0.17624  Biso   1.000  F
  O1       1.0000 0.61512  0.48580  0.49661  Biso   1.000  O
  O2       1.0000 0.38488  0.48580  0.00339  Biso   1.000  O
  O3       1.0000 0.38488  0.51420  0.50339  Biso   1.000  O
  O4       1.0000 0.61512  0.51420  0.99661  Biso   1.000  O
  O5       1.0000 0.52899  0.24210  0.45843  Biso   1.000  O
  O6       1.0000 0.47101  0.24210  0.04157  Biso   1.000  O
  O7       1.0000 0.47101  0.75790  0.54157  Biso   1.000  O
  O8       1.0000 0.52899  0.75790  0.95843  Biso   1.000  O
  O9       1.0000 0.51821  0.72990  0.07191  Biso   1.000  O
  O10      1.0000 0.48179  0.72990  0.42809  Biso   1.000  O
  O11      1.0000 0.48179  0.27010  0.92809  Biso   1.000  O
  O12      1.0000 0.51821  0.27010  0.57191  Biso   1.000  O
  O13      1.0000 0.60344  0.48250  0.10841  Biso   1.000  O
  O14      1.0000 0.39656  0.48250  0.39159  Biso   1.000  O
  O15      1.0000 0.39656  0.51750  0.89159  Biso   1.000  O
  O16      1.0000 0.60344  0.51750  0.60841  Biso   1.000  O
  O17      1.0000 0.65163  0.85630  0.56397  Biso   1.000  O
  O18      1.0000 0.34837  0.85630  0.93603  Biso   1.000  O
  O19      1.0000 0.34837  0.14370  0.43603  Biso   1.000  O
  O20      1.0000 0.65163  0.14370  0.06397  Biso   1.000  O
  O21      1.0000 0.74770  0.69880  0.55671  Biso   1.000  O
  O22      1.0000 0.25230  0.69880  0.94329  Biso   1.000  O
  O23      1.0000 0.25230  0.30120  0.44329  Biso   1.000  O
  O24      1.0000 0.74770  0.30120  0.05671  Biso   1.000  O
  H1       1.0000 0.76480  0.61710  0.58540  Biso   1.000  H
  H2       1.0000 0.23520  0.61710  0.91460  Biso   1.000  H
  H3       1.0000 0.23520  0.38290  0.41460  Biso   1.000  H
  H4       1.0000 0.76480  0.38290  0.08540  Biso   1.000  H
  C1       1.0000 0.59340  0.32590  0.46987  Biso   1.000  C
  C2       1.0000 0.40660  0.32590  0.03013  Biso   1.000  C
  C3       1.0000 0.40660  0.67410  0.53013  Biso   1.000  C
  C4       1.0000 0.59340  0.67410  0.96987  Biso   1.000  C
  C5       1.0000 0.64860  0.23640  0.44989  Biso   1.000  C
  C6       1.0000 0.35140  0.23640  0.05011  Biso   1.000  C
  C7       1.0000 0.35140  0.76360  0.55011  Biso   1.000  C
  C8       1.0000 0.64860  0.76360  0.94989  Biso   1.000  C
  C9       1.0000 0.71800  0.32610  0.45760  Biso   1.000  C
  C10      1.0000 0.28200  0.32610  0.04240  Biso   1.000  C
  C11      1.0000 0.28200  0.67390  0.54240  Biso   1.000  C
  C12      1.0000 0.71800  0.67390  0.95760  Biso   1.000  C
  H5       1.0000 0.73210  0.44290  0.47680  Biso   1.000  H
  H6       1.0000 0.26790  0.44290  0.02320  Biso   1.000  H
  H7       1.0000 0.26790  0.55710  0.52320  Biso   1.000  H
  H8       1.0000 0.73210  0.55710  0.97680  Biso   1.000  H
  C13      1.0000 0.76720  0.24470  0.43710  Biso   1.000  C
  C14      1.0000 0.23280  0.24470  0.06290  Biso   1.000  C
  C15      1.0000 0.23280  0.75530  0.56290  Biso   1.000  C
  C16      1.0000 0.76720  0.75530  0.93710  Biso   1.000  C
  H9       1.0000 0.81410  0.30680  0.44310  Biso   1.000  H
  H10      1.0000 0.18590  0.30680  0.05690  Biso   1.000  H
  H11      1.0000 0.18590  0.69320  0.55690  Biso   1.000  H
  H12      1.0000 0.81410  0.69320  0.94310  Biso   1.000  H
  C17      1.0000 0.62940  0.06070  0.42265  Biso   1.000  C
  C18      1.0000 0.37060  0.06070  0.07735  Biso   1.000  C
  C19      1.0000 0.37060  0.93930  0.57735  Biso   1.000  C
  C20      1.0000 0.62940  0.93930  0.92265  Biso   1.000  C
  H13      1.0000 0.58400  0.99670  0.41870  Biso   1.000  H
  H14      1.0000 0.41600  0.99670  0.08130  Biso   1.000  H
  H15      1.0000 0.41600  0.00330  0.58130  Biso   1.000  H
  H16      1.0000 0.58400  0.00330  0.91870  Biso   1.000  H
  C21      1.0000 0.67810  0.98070  0.40137  Biso   1.000  C
  C22      1.0000 0.32190  0.98070  0.09863  Biso   1.000  C
  C23      1.0000 0.32190  0.01930  0.59863  Biso   1.000  C
  C24      1.0000 0.67810  0.01930  0.90137  Biso   1.000  C
  H17      1.0000 0.66430  0.86360  0.38240  Biso   1.000  H
  H18      1.0000 0.33570  0.86360  0.11760  Biso   1.000  H
  H19      1.0000 0.33570  0.13640  0.61760  Biso   1.000  H
  H20      1.0000 0.66430  0.13640  0.88240  Biso   1.000  H
  C25      1.0000 0.74710  0.07220  0.40775  Biso   1.000  C
  C26      1.0000 0.25290  0.07220  0.09225  Biso   1.000  C
  C27      1.0000 0.25290  0.92780  0.59225  Biso   1.000  C
  C28      1.0000 0.74710  0.92780  0.90775  Biso   1.000  C
  C29      1.0000 0.79960  0.97360  0.38438  Biso   1.000  C
  C30      1.0000 0.20040  0.97360  0.11562  Biso   1.000  C
  C31      1.0000 0.20040  0.02640  0.61562  Biso   1.000  C
  C32      1.0000 0.79960  0.02640  0.88438  Biso   1.000  C
  C33      1.0000 0.86050  0.84320  0.44284  Biso   1.000  C
  C34      1.0000 0.13950  0.84320  0.05716  Biso   1.000  C
  C35      1.0000 0.13950  0.15680  0.55716  Biso   1.000  C
  C36      1.0000 0.86050  0.15680  0.94284  Biso   1.000  C
  C37      1.0000 0.85370  0.10820  0.37170  Biso   1.000  C
  C38      1.0000 0.14630  0.10820  0.12830  Biso   1.000  C
  C39      1.0000 0.14630  0.89180  0.62830  Biso   1.000  C
  C40      1.0000 0.85370  0.89180  0.87170  Biso   1.000  C
  C41      1.0000 0.74010  0.87420  0.31585  Biso   1.000  C
  C42      1.0000 0.25990  0.87420  0.18415  Biso   1.000  C
  C43      1.0000 0.25990  0.12580  0.68415  Biso   1.000  C
  C44      1.0000 0.74010  0.12580  0.81585  Biso   1.000  C
  C45      1.0000 0.75240  0.69450  0.30304  Biso   1.000  C
  C46      1.0000 0.24760  0.69450  0.19696  Biso   1.000  C
  C47      1.0000 0.24760  0.30550  0.69696  Biso   1.000  C
  C48      1.0000 0.75240  0.30550  0.80304  Biso   1.000  C
  H21      1.0000 0.79680  0.62530  0.33760  Biso   1.000  H
  H22      1.0000 0.20320  0.62530  0.16240  Biso   1.000  H
  H23      1.0000 0.20320  0.37470  0.66240  Biso   1.000  H
  H24      1.0000 0.79680  0.37470  0.83760  Biso   1.000  H
  C49      1.0000 0.69920  0.61830  0.23932  Biso   1.000  C
  C50      1.0000 0.30080  0.61830  0.26068  Biso   1.000  C
  C51      1.0000 0.30080  0.38170  0.76068  Biso   1.000  C
  C52      1.0000 0.69920  0.38170  0.73932  Biso   1.000  C
  H25      1.0000 0.70780  0.49760  0.23150  Biso   1.000  H
  H26      1.0000 0.29220  0.49760  0.26850  Biso   1.000  H
  H27      1.0000 0.29220  0.50240  0.76850  Biso   1.000  H
  H28      1.0000 0.70780  0.50240  0.73150  Biso   1.000  H
  C53      1.0000 0.67300  0.97390  0.26335  Biso   1.000  C
  C54      1.0000 0.32700  0.97390  0.23665  Biso   1.000  C
  C55      1.0000 0.32700  0.02610  0.73665  Biso   1.000  C
  C56      1.0000 0.67300  0.02610  0.76335  Biso   1.000  C
  H29      1.0000 0.66340  0.09370  0.27130  Biso   1.000  H
  H30      1.0000 0.33660  0.09370  0.22870  Biso   1.000  H
  H31      1.0000 0.33660  0.90630  0.72870  Biso   1.000  H
  H32      1.0000 0.66340  0.90630  0.77130  Biso   1.000  H
  C57      1.0000 0.62040  0.89720  0.19932  Biso   1.000  C
  C58      1.0000 0.37960  0.89720  0.30068  Biso   1.000  C
  C59      1.0000 0.37960  0.10280  0.80068  Biso   1.000  C
  C60      1.0000 0.62040  0.10280  0.69932  Biso   1.000  C
  H33      1.0000 0.57630  0.96620  0.16440  Biso   1.000  H
  H34      1.0000 0.42370  0.96620  0.33560  Biso   1.000  H
  H35      1.0000 0.42370  0.03380  0.83560  Biso   1.000  H
  H36      1.0000 0.57630  0.03380  0.66440  Biso   1.000  H
  C61      1.0000 0.63330  0.71820  0.18703  Biso   1.000  C
  C62      1.0000 0.36670  0.71820  0.31297  Biso   1.000  C
  C63      1.0000 0.36670  0.28180  0.81297  Biso   1.000  C
  C64      1.0000 0.63330  0.28180  0.68703  Biso   1.000  C
  C65      1.0000 0.58040  0.63680  0.11677  Biso   1.000  C
  C66      1.0000 0.41960  0.63680  0.38323  Biso   1.000  C
  C67      1.0000 0.41960  0.36320  0.88323  Biso   1.000  C
  C68      1.0000 0.58040  0.36320  0.61677  Biso   1.000  C
  C69      1.0000 0.72340  0.84060  0.57685  Biso   1.000  C
  C70      1.0000 0.27660  0.84060  0.92315  Biso   1.000  C
  C71      1.0000 0.27660  0.15940  0.42315  Biso   1.000  C
  C72      1.0000 0.72340  0.15940  0.07685  Biso   1.000  C
  C73      1.0000 0.79160  0.97740  0.61591  Biso   1.000  C
  C74      1.0000 0.20840  0.97740  0.88409  Biso   1.000  C
  C75      1.0000 0.20840  0.02260  0.38409  Biso   1.000  C
  C76      1.0000 0.79160  0.02260  0.11591  Biso   1.000  C
  C77      1.0000 0.77600  0.13240  0.64210  Biso   1.000  C
  C78      1.0000 0.22400  0.13240  0.85790  Biso   1.000  C
  C79      1.0000 0.22400  0.86760  0.35790  Biso   1.000  C
  C80      1.0000 0.77600  0.86760  0.14210  Biso   1.000  C
  H37      1.0000 0.72130  0.15490  0.63160  Biso   1.000  H
  H38      1.0000 0.27870  0.15490  0.86840  Biso   1.000  H
  H39      1.0000 0.27870  0.84510  0.36840  Biso   1.000  H
  H40      1.0000 0.72130  0.84510  0.13160  Biso   1.000  H
  C81      1.0000 0.84070  0.25320  0.68330  Biso   1.000  C
  C82      1.0000 0.15930  0.25320  0.81670  Biso   1.000  C
  C83      1.0000 0.15930  0.74680  0.31670  Biso   1.000  C
  C84      1.0000 0.84070  0.74680  0.18330  Biso   1.000  C
  H41      1.0000 0.82910  0.35770  0.69960  Biso   1.000  H
  H42      1.0000 0.17090  0.35770  0.80040  Biso   1.000  H
  H43      1.0000 0.17090  0.64230  0.30040  Biso   1.000  H
  H44      1.0000 0.82910  0.64230  0.19960  Biso   1.000  H
  C85      1.0000 0.87270  0.95070  0.62960  Biso   1.000  C
  C86      1.0000 0.12730  0.95070  0.87040  Biso   1.000  C
  C87      1.0000 0.12730  0.04930  0.37040  Biso   1.000  C
  C88      1.0000 0.87270  0.04930  0.12960  Biso   1.000  C
  H45      1.0000 0.88350  0.85160  0.61030  Biso   1.000  H
  H46      1.0000 0.11650  0.85160  0.88970  Biso   1.000  H
  H47      1.0000 0.11650  0.14840  0.38970  Biso   1.000  H
  H48      1.0000 0.88350  0.14840  0.11030  Biso   1.000  H
  C89      1.0000 0.93700  0.06970  0.67140  Biso   1.000  C
  C90      1.0000 0.06300  0.06970  0.82860  Biso   1.000  C
  C91      1.0000 0.06300  0.93030  0.32860  Biso   1.000  C
  C92      1.0000 0.93700  0.93030  0.17140  Biso   1.000  C
  H49      1.0000 0.99120  0.04960  0.68050  Biso   1.000  H
  H50      1.0000 0.00880  0.04960  0.81950  Biso   1.000  H
  H51      1.0000 0.00880  0.95040  0.31950  Biso   1.000  H
  H52      1.0000 0.99120  0.95040  0.18050  Biso   1.000  H
  C93      1.0000 0.92290  0.22020  0.70060  Biso   1.000  C
  C94      1.0000 0.07710  0.22020  0.79940  Biso   1.000  C
  C95      1.0000 0.07710  0.77980  0.29940  Biso   1.000  C
  C96      1.0000 0.92290  0.77980  0.20060  Biso   1.000  C
  C97      1.0000 0.00000  0.34190  0.75000  Biso   1.000  C
  C98      1.0000 0.00000  0.65810  0.25000  Biso   1.000  C
  C99      1.0000 0.01760  0.46570  0.70540  Biso   1.000  C
  C100     1.0000 0.98240  0.46570  0.79460  Biso   1.000  C
  C101     1.0000 0.98240  0.53430  0.29460  Biso   1.000  C
  C102     1.0000 0.01760  0.53430  0.20540  Biso   1.000  C
