data_image0
_cell_length_a       18.723
_cell_length_b       7.271
_cell_length_c       20.481
_cell_angle_alpha    90
_cell_angle_beta     107.02
_cell_angle_gamma    90

_symmetry_space_group_name_H-M    "P 1"
_symmetry_int_tables_number       1

loop_
  _symmetry_equiv_pos_as_xyz
  'x, y, z'

loop_
  _atom_site_label
  _atom_site_occupancy
  _atom_site_fract_x
  _atom_site_fract_y
  _atom_site_fract_z
  _atom_site_thermal_displace_type
  _atom_site_B_iso_or_equiv
  _atom_site_type_symbol
  Cu1      1.0000 0.52790  0.14651  0.47800  Biso   1.000  Cu
  Cu2      1.0000 0.02790  0.85349  0.97800  Biso   1.000  Cu
  Cu3      1.0000 0.47210  0.85349  0.52200  Biso   1.000  Cu
  Cu4      1.0000 0.97210  0.14651  0.02200  Biso   1.000  Cu
  F1       1.0000 0.02389  0.25300  0.33169  Biso   1.000  F
  F2       1.0000 0.52389  0.74700  0.83169  Biso   1.000  F
  F3       1.0000 0.97611  0.74700  0.66831  Biso   1.000  F
  F4       1.0000 0.47611  0.25300  0.16831  Biso   1.000  F
  F5       1.0000 0.95365  0.47600  0.34069  Biso   1.000  F
  F6       1.0000 0.45365  0.52400  0.84069  Biso   1.000  F
  F7       1.0000 0.04635  0.52400  0.65931  Biso   1.000  F
  F8       1.0000 0.54635  0.47600  0.15931  Biso   1.000  F
  F9       1.0000 0.01035  0.31820  0.42902  Biso   1.000  F
  F10      1.0000 0.51035  0.68180  0.92902  Biso   1.000  F
  F11      1.0000 0.98965  0.68180  0.57098  Biso   1.000  F
  F12      1.0000 0.48965  0.31820  0.07098  Biso   1.000  F
  F13      1.0000 0.13119  0.79430  0.44902  Biso   1.000  F
  F14      1.0000 0.63119  0.20570  0.94902  Biso   1.000  F
  F15      1.0000 0.86881  0.20570  0.55098  Biso   1.000  F
  F16      1.0000 0.36881  0.79430  0.05098  Biso   1.000  F
  F17      1.0000 0.01544  0.73360  0.43405  Biso   1.000  F
  F18      1.0000 0.51544  0.26640  0.93405  Biso   1.000  F
  F19      1.0000 0.98456  0.26640  0.56595  Biso   1.000  F
  F20      1.0000 0.48456  0.73360  0.06595  Biso   1.000  F
  F21      1.0000 0.09998  0.57090  0.50260  Biso   1.000  F
  F22      1.0000 0.59998  0.42910  0.00260  Biso   1.000  F
  F23      1.0000 0.90002  0.42910  0.49740  Biso   1.000  F
  F24      1.0000 0.40002  0.57090  0.99740  Biso   1.000  F
  F25      1.0000 0.70913  0.04120  0.15483  Biso   1.000  F
  F26      1.0000 0.20913  0.95880  0.65483  Biso   1.000  F
  F27      1.0000 0.29087  0.95880  0.84517  Biso   1.000  F
  F28      1.0000 0.79087  0.04120  0.34517  Biso   1.000  F
  F29      1.0000 0.66830  0.10260  0.23960  Biso   1.000  F
  F30      1.0000 0.16830  0.89740  0.73960  Biso   1.000  F
  F31      1.0000 0.33170  0.89740  0.76040  Biso   1.000  F
  F32      1.0000 0.83170  0.10260  0.26040  Biso   1.000  F
  F33      1.0000 0.62606  0.86980  0.17600  Biso   1.000  F
  F34      1.0000 0.12606  0.13020  0.67600  Biso   1.000  F
  F35      1.0000 0.37394  0.13020  0.82400  Biso   1.000  F
  F36      1.0000 0.87394  0.86980  0.32400  Biso   1.000  F
  O1       1.0000 0.42911  0.25860  0.45819  Biso   1.000  O
  O2       1.0000 0.92911  0.74140  0.95819  Biso   1.000  O
  O3       1.0000 0.57089  0.74140  0.54181  Biso   1.000  O
  O4       1.0000 0.07089  0.25860  0.04181  Biso   1.000  O
  O5       1.0000 0.38165  0.01440  0.49615  Biso   1.000  O
  O6       1.0000 0.88165  0.98560  0.99615  Biso   1.000  O
  O7       1.0000 0.61835  0.98560  0.50385  Biso   1.000  O
  O8       1.0000 0.11835  0.01440  0.00385  Biso   1.000  O
  O9       1.0000 0.05402  0.77080  0.07204  Biso   1.000  O
  O10      1.0000 0.55402  0.22920  0.57204  Biso   1.000  O
  O11      1.0000 0.94598  0.22920  0.92796  Biso   1.000  O
  O12      1.0000 0.44598  0.77080  0.42796  Biso   1.000  O
  O13      1.0000 0.00473  0.01740  0.10838  Biso   1.000  O
  O14      1.0000 0.50473  0.98260  0.60838  Biso   1.000  O
  O15      1.0000 0.99527  0.98260  0.89162  Biso   1.000  O
  O16      1.0000 0.49527  0.01740  0.39162  Biso   1.000  O
  O17      1.0000 0.58746  0.35570  0.43569  Biso   1.000  O
  O18      1.0000 0.08746  0.64430  0.93569  Biso   1.000  O
  O19      1.0000 0.41254  0.64430  0.56431  Biso   1.000  O
  O20      1.0000 0.91254  0.35570  0.06431  Biso   1.000  O
  O21      1.0000 0.69066  0.19650  0.44201  Biso   1.000  O
  O22      1.0000 0.19066  0.80350  0.94201  Biso   1.000  O
  O23      1.0000 0.30934  0.80350  0.55799  Biso   1.000  O
  O24      1.0000 0.80934  0.19650  0.05799  Biso   1.000  O
  H1       1.0000 0.66050  0.09830  0.46800  Biso   1.000  H
  H2       1.0000 0.16050  0.90170  0.96800  Biso   1.000  H
  H3       1.0000 0.33950  0.90170  0.53200  Biso   1.000  H
  H4       1.0000 0.83950  0.09830  0.03200  Biso   1.000  H
  C1       1.0000 0.37630  0.17450  0.46984  Biso   1.000  C
  C2       1.0000 0.87630  0.82550  0.96984  Biso   1.000  C
  C3       1.0000 0.62370  0.82550  0.53016  Biso   1.000  C
  C4       1.0000 0.12370  0.17450  0.03016  Biso   1.000  C
  C5       1.0000 0.30111  0.26500  0.45015  Biso   1.000  C
  C6       1.0000 0.80111  0.73500  0.95015  Biso   1.000  C
  C7       1.0000 0.69889  0.73500  0.54985  Biso   1.000  C
  C8       1.0000 0.19889  0.26500  0.04985  Biso   1.000  C
  C9       1.0000 0.29309  0.43820  0.42286  Biso   1.000  C
  C10      1.0000 0.79309  0.56180  0.92286  Biso   1.000  C
  C11      1.0000 0.70691  0.56180  0.57714  Biso   1.000  C
  C12      1.0000 0.20691  0.43820  0.07714  Biso   1.000  C
  H5       1.0000 0.33470  0.50170  0.41870  Biso   1.000  H
  H6       1.0000 0.83470  0.49830  0.91870  Biso   1.000  H
  H7       1.0000 0.66530  0.49830  0.58130  Biso   1.000  H
  H8       1.0000 0.16530  0.50170  0.08130  Biso   1.000  H
  C13      1.0000 0.22378  0.51850  0.40163  Biso   1.000  C
  C14      1.0000 0.72378  0.48150  0.90163  Biso   1.000  C
  C15      1.0000 0.77622  0.48150  0.59837  Biso   1.000  C
  C16      1.0000 0.27622  0.51850  0.09837  Biso   1.000  C
  H9       1.0000 0.21870  0.63580  0.38270  Biso   1.000  H
  H10      1.0000 0.71870  0.36420  0.88270  Biso   1.000  H
  H11      1.0000 0.78130  0.36420  0.61730  Biso   1.000  H
  H12      1.0000 0.28130  0.63580  0.11730  Biso   1.000  H
  C17      1.0000 0.16140  0.42750  0.40810  Biso   1.000  C
  C18      1.0000 0.66140  0.57250  0.90810  Biso   1.000  C
  C19      1.0000 0.83860  0.57250  0.59190  Biso   1.000  C
  C20      1.0000 0.33860  0.42750  0.09190  Biso   1.000  C
  C21      1.0000 0.17060  0.25540  0.43770  Biso   1.000  C
  C22      1.0000 0.67060  0.74460  0.93770  Biso   1.000  C
  C23      1.0000 0.82940  0.74460  0.56230  Biso   1.000  C
  C24      1.0000 0.32940  0.25540  0.06230  Biso   1.000  C
  H13      1.0000 0.12970  0.19410  0.44430  Biso   1.000  H
  H14      1.0000 0.62970  0.80590  0.94430  Biso   1.000  H
  H15      1.0000 0.87030  0.80590  0.55570  Biso   1.000  H
  H16      1.0000 0.37030  0.19410  0.05570  Biso   1.000  H
  C25      1.0000 0.23980  0.17380  0.45770  Biso   1.000  C
  C26      1.0000 0.73980  0.82620  0.95770  Biso   1.000  C
  C27      1.0000 0.76020  0.82620  0.54230  Biso   1.000  C
  C28      1.0000 0.26020  0.17380  0.04230  Biso   1.000  C
  H17      1.0000 0.24510  0.05620  0.47630  Biso   1.000  H
  H18      1.0000 0.74510  0.94380  0.97630  Biso   1.000  H
  H19      1.0000 0.75490  0.94380  0.52370  Biso   1.000  H
  H20      1.0000 0.25490  0.05620  0.02370  Biso   1.000  H
  C29      1.0000 0.08460  0.52470  0.38396  Biso   1.000  C
  C30      1.0000 0.58460  0.47530  0.88396  Biso   1.000  C
  C31      1.0000 0.91540  0.47530  0.61604  Biso   1.000  C
  C32      1.0000 0.41540  0.52470  0.11604  Biso   1.000  C
  C33      1.0000 0.07553  0.62590  0.31613  Biso   1.000  C
  C34      1.0000 0.57553  0.37410  0.81613  Biso   1.000  C
  C35      1.0000 0.92447  0.37410  0.68387  Biso   1.000  C
  C36      1.0000 0.42447  0.62590  0.18387  Biso   1.000  C
  C37      1.0000 0.09030  0.52760  0.26353  Biso   1.000  C
  C38      1.0000 0.59030  0.47240  0.76353  Biso   1.000  C
  C39      1.0000 0.90970  0.47240  0.73647  Biso   1.000  C
  C40      1.0000 0.40970  0.52760  0.23647  Biso   1.000  C
  H21      1.0000 0.10820  0.40800  0.27160  Biso   1.000  H
  H22      1.0000 0.60820  0.59200  0.77160  Biso   1.000  H
  H23      1.0000 0.89180  0.59200  0.72840  Biso   1.000  H
  H24      1.0000 0.39180  0.40800  0.22840  Biso   1.000  H
  C41      1.0000 0.07880  0.60320  0.19922  Biso   1.000  C
  C42      1.0000 0.57880  0.39680  0.69922  Biso   1.000  C
  C43      1.0000 0.92120  0.39680  0.80078  Biso   1.000  C
  C44      1.0000 0.42120  0.60320  0.30078  Biso   1.000  C
  H25      1.0000 0.08810  0.53390  0.16440  Biso   1.000  H
  H26      1.0000 0.58810  0.46610  0.66440  Biso   1.000  H
  H27      1.0000 0.91190  0.46610  0.83560  Biso   1.000  H
  H28      1.0000 0.41190  0.53390  0.33560  Biso   1.000  H
  C45      1.0000 0.05353  0.78250  0.18700  Biso   1.000  C
  C46      1.0000 0.55353  0.21750  0.68700  Biso   1.000  C
  C47      1.0000 0.94647  0.21750  0.81300  Biso   1.000  C
  C48      1.0000 0.44647  0.78250  0.31300  Biso   1.000  C
  C49      1.0000 0.04002  0.88110  0.23931  Biso   1.000  C
  C50      1.0000 0.54002  0.11890  0.73931  Biso   1.000  C
  C51      1.0000 0.95998  0.11890  0.76069  Biso   1.000  C
  C52      1.0000 0.45998  0.88110  0.26069  Biso   1.000  C
  H29      1.0000 0.02350  0.00210  0.23160  Biso   1.000  H
  H30      1.0000 0.52350  0.99790  0.73160  Biso   1.000  H
  H31      1.0000 0.97650  0.99790  0.76840  Biso   1.000  H
  H32      1.0000 0.47650  0.00210  0.26840  Biso   1.000  H
  C53      1.0000 0.05030  0.80490  0.30315  Biso   1.000  C
  C54      1.0000 0.55030  0.19510  0.80315  Biso   1.000  C
  C55      1.0000 0.94970  0.19510  0.69685  Biso   1.000  C
  C56      1.0000 0.44970  0.80490  0.19685  Biso   1.000  C
  H33      1.0000 0.04020  0.87420  0.33760  Biso   1.000  H
  H34      1.0000 0.54020  0.12580  0.83760  Biso   1.000  H
  H35      1.0000 0.95980  0.12580  0.66240  Biso   1.000  H
  H36      1.0000 0.45980  0.87420  0.16240  Biso   1.000  H
  C57      1.0000 0.03620  0.86330  0.11662  Biso   1.000  C
  C58      1.0000 0.53620  0.13670  0.61662  Biso   1.000  C
  C59      1.0000 0.96380  0.13670  0.88338  Biso   1.000  C
  C60      1.0000 0.46380  0.86330  0.38338  Biso   1.000  C
  C61      1.0000 0.01780  0.39240  0.37170  Biso   1.000  C
  C62      1.0000 0.51780  0.60760  0.87170  Biso   1.000  C
  C63      1.0000 0.98220  0.60760  0.62830  Biso   1.000  C
  C64      1.0000 0.48220  0.39240  0.12830  Biso   1.000  C
  C65      1.0000 0.08260  0.65810  0.44289  Biso   1.000  C
  C66      1.0000 0.58260  0.34190  0.94289  Biso   1.000  C
  C67      1.0000 0.91740  0.34190  0.55711  Biso   1.000  C
  C68      1.0000 0.41740  0.65810  0.05711  Biso   1.000  C
  C69      1.0000 0.64650  0.33900  0.42338  Biso   1.000  C
  C70      1.0000 0.14650  0.66100  0.92338  Biso   1.000  C
  C71      1.0000 0.35350  0.66100  0.57662  Biso   1.000  C
  C72      1.0000 0.85350  0.33900  0.07662  Biso   1.000  C
  C73      1.0000 0.67545  0.47690  0.38387  Biso   1.000  C
  C74      1.0000 0.17545  0.52310  0.88387  Biso   1.000  C
  C75      1.0000 0.32455  0.52310  0.61613  Biso   1.000  C
  C76      1.0000 0.82455  0.47690  0.11613  Biso   1.000  C
  C77      1.0000 0.74320  0.45060  0.37046  Biso   1.000  C
  C78      1.0000 0.24320  0.54940  0.87046  Biso   1.000  C
  C79      1.0000 0.25680  0.54940  0.62954  Biso   1.000  C
  C80      1.0000 0.75680  0.45060  0.12954  Biso   1.000  C
  H37      1.0000 0.77360  0.35210  0.39000  Biso   1.000  H
  H38      1.0000 0.27360  0.64790  0.89000  Biso   1.000  H
  H39      1.0000 0.22640  0.64790  0.61000  Biso   1.000  H
  H40      1.0000 0.72640  0.35210  0.11000  Biso   1.000  H
  C81      1.0000 0.76540  0.57050  0.32820  Biso   1.000  C
  C82      1.0000 0.26540  0.42950  0.82820  Biso   1.000  C
  C83      1.0000 0.23460  0.42950  0.67180  Biso   1.000  C
  C84      1.0000 0.73460  0.57050  0.17180  Biso   1.000  C
  H41      1.0000 0.81030  0.55010  0.31870  Biso   1.000  H
  H42      1.0000 0.31030  0.44990  0.81870  Biso   1.000  H
  H43      1.0000 0.18970  0.44990  0.68130  Biso   1.000  H
  H44      1.0000 0.68970  0.55010  0.18130  Biso   1.000  H
  C85      1.0000 0.72230  0.72060  0.29967  Biso   1.000  C
  C86      1.0000 0.22230  0.27940  0.79967  Biso   1.000  C
  C87      1.0000 0.27770  0.27940  0.70033  Biso   1.000  C
  C88      1.0000 0.77770  0.72060  0.20033  Biso   1.000  C
  C89      1.0000 0.65690  0.75150  0.31640  Biso   1.000  C
  C90      1.0000 0.15690  0.24850  0.81640  Biso   1.000  C
  C91      1.0000 0.34310  0.24850  0.68360  Biso   1.000  C
  C92      1.0000 0.84310  0.75150  0.18360  Biso   1.000  C
  H45      1.0000 0.62830  0.85510  0.29950  Biso   1.000  H
  H46      1.0000 0.12830  0.14490  0.79950  Biso   1.000  H
  H47      1.0000 0.37170  0.14490  0.70050  Biso   1.000  H
  H48      1.0000 0.87170  0.85510  0.20050  Biso   1.000  H
  C93      1.0000 0.63350  0.63120  0.35786  Biso   1.000  C
  C94      1.0000 0.13350  0.36880  0.85786  Biso   1.000  C
  C95      1.0000 0.36650  0.36880  0.64214  Biso   1.000  C
  C96      1.0000 0.86650  0.63120  0.14214  Biso   1.000  C
  H49      1.0000 0.58930  0.65370  0.36840  Biso   1.000  H
  H50      1.0000 0.08930  0.34630  0.86840  Biso   1.000  H
  H51      1.0000 0.41070  0.34630  0.63160  Biso   1.000  H
  H52      1.0000 0.91070  0.65370  0.13160  Biso   1.000  H
  C97      1.0000 0.75000  0.84220  0.25000  Biso   1.000  C
  C98      1.0000 0.25000  0.15780  0.75000  Biso   1.000  C
  C99      1.0000 0.68720  0.96480  0.20490  Biso   1.000  C
  C100     1.0000 0.18720  0.03520  0.70490  Biso   1.000  C
  C101     1.0000 0.31280  0.03520  0.79510  Biso   1.000  C
  C102     1.0000 0.81280  0.96480  0.29510  Biso   1.000  C
