data_image0
_cell_length_a       28.778
_cell_length_b       5.6989
_cell_length_c       23.2753
_cell_angle_alpha    90
_cell_angle_beta     100.672
_cell_angle_gamma    90

_symmetry_space_group_name_H-M    "P 1"
_symmetry_int_tables_number       1

loop_
  _symmetry_equiv_pos_as_xyz
  'x, y, z'

loop_
  _atom_site_label
  _atom_site_occupancy
  _atom_site_fract_x
  _atom_site_fract_y
  _atom_site_fract_z
  _atom_site_thermal_displace_type
  _atom_site_B_iso_or_equiv
  _atom_site_type_symbol
  Cu1      1.0000 0.00000  0.44569  0.75000  Biso   1.000  Cu
  Cu2      1.0000 0.50000  0.94569  0.75000  Biso   1.000  Cu
  Cu3      1.0000 0.00000  0.55431  0.25000  Biso   1.000  Cu
  Cu4      1.0000 0.50000  0.05431  0.25000  Biso   1.000  Cu
  Cl1      1.0000 0.00000  0.97737  0.75000  Biso   1.000  Cl
  Cl2      1.0000 0.50000  0.47737  0.75000  Biso   1.000  Cl
  Cl3      1.0000 0.00000  0.02263  0.25000  Biso   1.000  Cl
  Cl4      1.0000 0.50000  0.52263  0.25000  Biso   1.000  Cl
  N1       1.0000 0.95408  0.46140  0.80704  Biso   1.000  N
  N2       1.0000 0.04592  0.46140  0.69296  Biso   1.000  N
  N3       1.0000 0.45408  0.96140  0.80704  Biso   1.000  N
  N4       1.0000 0.54592  0.96140  0.69296  Biso   1.000  N
  N5       1.0000 0.04592  0.53860  0.19296  Biso   1.000  N
  N6       1.0000 0.95408  0.53860  0.30704  Biso   1.000  N
  N7       1.0000 0.54592  0.03860  0.19296  Biso   1.000  N
  N8       1.0000 0.45408  0.03860  0.30704  Biso   1.000  N
  C1       1.0000 0.92268  0.63790  0.80490  Biso   1.000  C
  C2       1.0000 0.07732  0.63790  0.69510  Biso   1.000  C
  C3       1.0000 0.42268  0.13790  0.80490  Biso   1.000  C
  C4       1.0000 0.57732  0.13790  0.69510  Biso   1.000  C
  C5       1.0000 0.07732  0.36210  0.19510  Biso   1.000  C
  C6       1.0000 0.92268  0.36210  0.30490  Biso   1.000  C
  C7       1.0000 0.57732  0.86210  0.19510  Biso   1.000  C
  C8       1.0000 0.42268  0.86210  0.30490  Biso   1.000  C
  H1       1.0000 0.92210  0.75690  0.77620  Biso   1.000  H
  H2       1.0000 0.07790  0.75690  0.72380  Biso   1.000  H
  H3       1.0000 0.42210  0.25690  0.77620  Biso   1.000  H
  H4       1.0000 0.57790  0.25690  0.72380  Biso   1.000  H
  H5       1.0000 0.07790  0.24310  0.22380  Biso   1.000  H
  H6       1.0000 0.92210  0.24310  0.27620  Biso   1.000  H
  H7       1.0000 0.57790  0.74310  0.22380  Biso   1.000  H
  H8       1.0000 0.42210  0.74310  0.27620  Biso   1.000  H
  C9       1.0000 0.89124  0.65150  0.84313  Biso   1.000  C
  C10      1.0000 0.10876  0.65150  0.65687  Biso   1.000  C
  C11      1.0000 0.39124  0.15150  0.84313  Biso   1.000  C
  C12      1.0000 0.60876  0.15150  0.65687  Biso   1.000  C
  C13      1.0000 0.10876  0.34850  0.15687  Biso   1.000  C
  C14      1.0000 0.89124  0.34850  0.34313  Biso   1.000  C
  C15      1.0000 0.60876  0.84850  0.15687  Biso   1.000  C
  C16      1.0000 0.39124  0.84850  0.34313  Biso   1.000  C
  H9       1.0000 0.86980  0.77910  0.84100  Biso   1.000  H
  H10      1.0000 0.13020  0.77910  0.65900  Biso   1.000  H
  H11      1.0000 0.36980  0.27910  0.84100  Biso   1.000  H
  H12      1.0000 0.63020  0.27910  0.65900  Biso   1.000  H
  H13      1.0000 0.13020  0.22090  0.15900  Biso   1.000  H
  H14      1.0000 0.86980  0.22090  0.34100  Biso   1.000  H
  H15      1.0000 0.63020  0.72090  0.15900  Biso   1.000  H
  H16      1.0000 0.36980  0.72090  0.34100  Biso   1.000  H
  C17      1.0000 0.89141  0.47830  0.88429  Biso   1.000  C
  C18      1.0000 0.10859  0.47830  0.61571  Biso   1.000  C
  C19      1.0000 0.39141  0.97830  0.88429  Biso   1.000  C
  C20      1.0000 0.60859  0.97830  0.61571  Biso   1.000  C
  C21      1.0000 0.10859  0.52170  0.11571  Biso   1.000  C
  C22      1.0000 0.89141  0.52170  0.38429  Biso   1.000  C
  C23      1.0000 0.60859  0.02170  0.11571  Biso   1.000  C
  C24      1.0000 0.39141  0.02170  0.38429  Biso   1.000  C
  H17      1.0000 0.87000  0.48390  0.91080  Biso   1.000  H
  H18      1.0000 0.13000  0.48390  0.58920  Biso   1.000  H
  H19      1.0000 0.37000  0.98390  0.91080  Biso   1.000  H
  H20      1.0000 0.63000  0.98390  0.58920  Biso   1.000  H
  H21      1.0000 0.13000  0.51610  0.08920  Biso   1.000  H
  H22      1.0000 0.87000  0.51610  0.41080  Biso   1.000  H
  H23      1.0000 0.63000  0.01610  0.08920  Biso   1.000  H
  H24      1.0000 0.37000  0.01610  0.41080  Biso   1.000  H
  C25      1.0000 0.92331  0.29610  0.88648  Biso   1.000  C
  C26      1.0000 0.07669  0.29610  0.61352  Biso   1.000  C
  C27      1.0000 0.42331  0.79610  0.88648  Biso   1.000  C
  C28      1.0000 0.57669  0.79610  0.61352  Biso   1.000  C
  C29      1.0000 0.07669  0.70390  0.11352  Biso   1.000  C
  C30      1.0000 0.92331  0.70390  0.38648  Biso   1.000  C
  C31      1.0000 0.57669  0.20390  0.11352  Biso   1.000  C
  C32      1.0000 0.42331  0.20390  0.38648  Biso   1.000  C
  H25      1.0000 0.92420  0.17430  0.91450  Biso   1.000  H
  H26      1.0000 0.07580  0.17430  0.58550  Biso   1.000  H
  H27      1.0000 0.42420  0.67430  0.91450  Biso   1.000  H
  H28      1.0000 0.57580  0.67430  0.58550  Biso   1.000  H
  H29      1.0000 0.07580  0.82570  0.08550  Biso   1.000  H
  H30      1.0000 0.92420  0.82570  0.41450  Biso   1.000  H
  H31      1.0000 0.57580  0.32570  0.08550  Biso   1.000  H
  H32      1.0000 0.42420  0.32570  0.41450  Biso   1.000  H
  C33      1.0000 0.95399  0.29400  0.84709  Biso   1.000  C
  C34      1.0000 0.04601  0.29400  0.65291  Biso   1.000  C
  C35      1.0000 0.45399  0.79400  0.84709  Biso   1.000  C
  C36      1.0000 0.54601  0.79400  0.65291  Biso   1.000  C
  C37      1.0000 0.04601  0.70600  0.15291  Biso   1.000  C
  C38      1.0000 0.95399  0.70600  0.34709  Biso   1.000  C
  C39      1.0000 0.54601  0.20600  0.15291  Biso   1.000  C
  C40      1.0000 0.45399  0.20600  0.34709  Biso   1.000  C
  H33      1.0000 0.97590  0.16830  0.84870  Biso   1.000  H
  H34      1.0000 0.02410  0.16830  0.65130  Biso   1.000  H
  H35      1.0000 0.47590  0.66830  0.84870  Biso   1.000  H
  H36      1.0000 0.52410  0.66830  0.65130  Biso   1.000  H
  H37      1.0000 0.02410  0.83170  0.15130  Biso   1.000  H
  H38      1.0000 0.97590  0.83170  0.34870  Biso   1.000  H
  H39      1.0000 0.52410  0.33170  0.15130  Biso   1.000  H
  H40      1.0000 0.47590  0.33170  0.34870  Biso   1.000  H
  N9       1.0000 0.05591  0.45710  0.81808  Biso   1.000  N
  N10      1.0000 0.94409  0.45710  0.68192  Biso   1.000  N
  N11      1.0000 0.55591  0.95710  0.81808  Biso   1.000  N
  N12      1.0000 0.44409  0.95710  0.68192  Biso   1.000  N
  N13      1.0000 0.94409  0.54290  0.18192  Biso   1.000  N
  N14      1.0000 0.05591  0.54290  0.31808  Biso   1.000  N
  N15      1.0000 0.44409  0.04290  0.18192  Biso   1.000  N
  N16      1.0000 0.55591  0.04290  0.31808  Biso   1.000  N
  C41      1.0000 0.06062  0.63420  0.85689  Biso   1.000  C
  C42      1.0000 0.93938  0.63420  0.64311  Biso   1.000  C
  C43      1.0000 0.56062  0.13420  0.85689  Biso   1.000  C
  C44      1.0000 0.43938  0.13420  0.64311  Biso   1.000  C
  C45      1.0000 0.93938  0.36580  0.14311  Biso   1.000  C
  C46      1.0000 0.06062  0.36580  0.35689  Biso   1.000  C
  C47      1.0000 0.43938  0.86580  0.14311  Biso   1.000  C
  C48      1.0000 0.56062  0.86580  0.35689  Biso   1.000  C
  H41      1.0000 0.03760  0.75540  0.85170  Biso   1.000  H
  H42      1.0000 0.96240  0.75540  0.64830  Biso   1.000  H
  H43      1.0000 0.53760  0.25540  0.85170  Biso   1.000  H
  H44      1.0000 0.46240  0.25540  0.64830  Biso   1.000  H
  H45      1.0000 0.96240  0.24460  0.14830  Biso   1.000  H
  H46      1.0000 0.03760  0.24460  0.35170  Biso   1.000  H
  H47      1.0000 0.46240  0.74460  0.14830  Biso   1.000  H
  H48      1.0000 0.53760  0.74460  0.35170  Biso   1.000  H
  C49      1.0000 0.09762  0.64700  0.90393  Biso   1.000  C
  C50      1.0000 0.90238  0.64700  0.59607  Biso   1.000  C
  C51      1.0000 0.59762  0.14700  0.90393  Biso   1.000  C
  C52      1.0000 0.40238  0.14700  0.59607  Biso   1.000  C
  C53      1.0000 0.90238  0.35300  0.09607  Biso   1.000  C
  C54      1.0000 0.09762  0.35300  0.40393  Biso   1.000  C
  C55      1.0000 0.40238  0.85300  0.09607  Biso   1.000  C
  C56      1.0000 0.59762  0.85300  0.40393  Biso   1.000  C
  H49      1.0000 0.10000  0.77550  0.93030  Biso   1.000  H
  H50      1.0000 0.90000  0.77550  0.56970  Biso   1.000  H
  H51      1.0000 0.60000  0.27550  0.93030  Biso   1.000  H
  H52      1.0000 0.40000  0.27550  0.56970  Biso   1.000  H
  H53      1.0000 0.90000  0.22450  0.06970  Biso   1.000  H
  H54      1.0000 0.10000  0.22450  0.43030  Biso   1.000  H
  H55      1.0000 0.40000  0.72450  0.06970  Biso   1.000  H
  H56      1.0000 0.60000  0.72450  0.43030  Biso   1.000  H
  C57      1.0000 0.13106  0.47110  0.91214  Biso   1.000  C
  C58      1.0000 0.86894  0.47110  0.58786  Biso   1.000  C
  C59      1.0000 0.63106  0.97110  0.91214  Biso   1.000  C
  C60      1.0000 0.36894  0.97110  0.58786  Biso   1.000  C
  C61      1.0000 0.86894  0.52890  0.08786  Biso   1.000  C
  C62      1.0000 0.13106  0.52890  0.41214  Biso   1.000  C
  C63      1.0000 0.36894  0.02890  0.08786  Biso   1.000  C
  C64      1.0000 0.63106  0.02890  0.41214  Biso   1.000  C
  H57      1.0000 0.15660  0.47490  0.94450  Biso   1.000  H
  H58      1.0000 0.84340  0.47490  0.55550  Biso   1.000  H
  H59      1.0000 0.65660  0.97490  0.94450  Biso   1.000  H
  H60      1.0000 0.34340  0.97490  0.55550  Biso   1.000  H
  H61      1.0000 0.84340  0.52510  0.05550  Biso   1.000  H
  H62      1.0000 0.15660  0.52510  0.44450  Biso   1.000  H
  H63      1.0000 0.34340  0.02510  0.05550  Biso   1.000  H
  H64      1.0000 0.65660  0.02510  0.44450  Biso   1.000  H
  C65      1.0000 0.12671  0.28970  0.87240  Biso   1.000  C
  C66      1.0000 0.87329  0.28970  0.62760  Biso   1.000  C
  C67      1.0000 0.62671  0.78970  0.87240  Biso   1.000  C
  C68      1.0000 0.37329  0.78970  0.62760  Biso   1.000  C
  C69      1.0000 0.87329  0.71030  0.12760  Biso   1.000  C
  C70      1.0000 0.12671  0.71030  0.37240  Biso   1.000  C
  C71      1.0000 0.37329  0.21030  0.12760  Biso   1.000  C
  C72      1.0000 0.62671  0.21030  0.37240  Biso   1.000  C
  H65      1.0000 0.14940  0.16680  0.87690  Biso   1.000  H
  H66      1.0000 0.85060  0.16680  0.62310  Biso   1.000  H
  H67      1.0000 0.64940  0.66680  0.87690  Biso   1.000  H
  H68      1.0000 0.35060  0.66680  0.62310  Biso   1.000  H
  H69      1.0000 0.85060  0.83320  0.12310  Biso   1.000  H
  H70      1.0000 0.14940  0.83320  0.37690  Biso   1.000  H
  H71      1.0000 0.35060  0.33320  0.12310  Biso   1.000  H
  H72      1.0000 0.64940  0.33320  0.37690  Biso   1.000  H
  C73      1.0000 0.08903  0.28810  0.82592  Biso   1.000  C
  C74      1.0000 0.91097  0.28810  0.67408  Biso   1.000  C
  C75      1.0000 0.58903  0.78810  0.82592  Biso   1.000  C
  C76      1.0000 0.41097  0.78810  0.67408  Biso   1.000  C
  C77      1.0000 0.91097  0.71190  0.17408  Biso   1.000  C
  C78      1.0000 0.08903  0.71190  0.32592  Biso   1.000  C
  C79      1.0000 0.41097  0.21190  0.17408  Biso   1.000  C
  C80      1.0000 0.58903  0.21190  0.32592  Biso   1.000  C
  H73      1.0000 0.08650  0.16300  0.79850  Biso   1.000  H
  H74      1.0000 0.91350  0.16300  0.70150  Biso   1.000  H
  H75      1.0000 0.58650  0.66300  0.79850  Biso   1.000  H
  H76      1.0000 0.41350  0.66300  0.70150  Biso   1.000  H
  H77      1.0000 0.91350  0.83700  0.20150  Biso   1.000  H
  H78      1.0000 0.08650  0.83700  0.29850  Biso   1.000  H
  H79      1.0000 0.41350  0.33700  0.20150  Biso   1.000  H
  H80      1.0000 0.58650  0.33700  0.29850  Biso   1.000  H
  N17      1.0000 0.66579  0.51610  0.26030  Biso   1.000  N
  N18      1.0000 0.33421  0.51610  0.23970  Biso   1.000  N
  N19      1.0000 0.16579  0.01610  0.26030  Biso   1.000  N
  N20      1.0000 0.83421  0.01610  0.23970  Biso   1.000  N
  N21      1.0000 0.33421  0.48390  0.73970  Biso   1.000  N
  N22      1.0000 0.66579  0.48390  0.76030  Biso   1.000  N
  N23      1.0000 0.83421  0.98390  0.73970  Biso   1.000  N
  N24      1.0000 0.16579  0.98390  0.76030  Biso   1.000  N
  C81      1.0000 0.69504  0.33220  0.26280  Biso   1.000  C
  C82      1.0000 0.30496  0.33220  0.23720  Biso   1.000  C
  C83      1.0000 0.19504  0.83220  0.26280  Biso   1.000  C
  C84      1.0000 0.80496  0.83220  0.23720  Biso   1.000  C
  C85      1.0000 0.30496  0.66780  0.73720  Biso   1.000  C
  C86      1.0000 0.69504  0.66780  0.76280  Biso   1.000  C
  C87      1.0000 0.80496  0.16780  0.73720  Biso   1.000  C
  C88      1.0000 0.19504  0.16780  0.76280  Biso   1.000  C
  H81      1.0000 0.68690  0.20980  0.23510  Biso   1.000  H
  H82      1.0000 0.31310  0.20980  0.26490  Biso   1.000  H
  H83      1.0000 0.18690  0.70980  0.23510  Biso   1.000  H
  H84      1.0000 0.81310  0.70980  0.26490  Biso   1.000  H
  H85      1.0000 0.31310  0.79020  0.76490  Biso   1.000  H
  H86      1.0000 0.68690  0.79020  0.73510  Biso   1.000  H
  H87      1.0000 0.81310  0.29020  0.76490  Biso   1.000  H
  H88      1.0000 0.18690  0.29020  0.73510  Biso   1.000  H
  C89      1.0000 0.73629  0.31070  0.30345  Biso   1.000  C
  C90      1.0000 0.26371  0.31070  0.19655  Biso   1.000  C
  C91      1.0000 0.23629  0.81070  0.30345  Biso   1.000  C
  C92      1.0000 0.76371  0.81070  0.19655  Biso   1.000  C
  C93      1.0000 0.26371  0.68930  0.69655  Biso   1.000  C
  C94      1.0000 0.73629  0.68930  0.80345  Biso   1.000  C
  C95      1.0000 0.76371  0.18930  0.69655  Biso   1.000  C
  C96      1.0000 0.23629  0.18930  0.80345  Biso   1.000  C
  H89      1.0000 0.75600  0.17730  0.30320  Biso   1.000  H
  H90      1.0000 0.24400  0.17730  0.19680  Biso   1.000  H
  H91      1.0000 0.25600  0.67730  0.30320  Biso   1.000  H
  H92      1.0000 0.74400  0.67730  0.19680  Biso   1.000  H
  H93      1.0000 0.24400  0.82270  0.69680  Biso   1.000  H
  H94      1.0000 0.75600  0.82270  0.80320  Biso   1.000  H
  H95      1.0000 0.74400  0.32270  0.69680  Biso   1.000  H
  H96      1.0000 0.25600  0.32270  0.80320  Biso   1.000  H
  C97      1.0000 0.74844  0.48490  0.34432  Biso   1.000  C
  C98      1.0000 0.25156  0.48490  0.15568  Biso   1.000  C
  C99      1.0000 0.24844  0.98490  0.34432  Biso   1.000  C
  C100     1.0000 0.75156  0.98490  0.15568  Biso   1.000  C
  C101     1.0000 0.25156  0.51510  0.65568  Biso   1.000  C
  C102     1.0000 0.74844  0.51510  0.84432  Biso   1.000  C
  C103     1.0000 0.75156  0.01510  0.65568  Biso   1.000  C
  C104     1.0000 0.24844  0.01510  0.84432  Biso   1.000  C
  H97      1.0000 0.77650  0.47350  0.37300  Biso   1.000  H
  H98      1.0000 0.22350  0.47350  0.12700  Biso   1.000  H
  H99      1.0000 0.27650  0.97350  0.37300  Biso   1.000  H
  H100     1.0000 0.72350  0.97350  0.12700  Biso   1.000  H
  H101     1.0000 0.22350  0.52650  0.62700  Biso   1.000  H
  H102     1.0000 0.77650  0.52650  0.87300  Biso   1.000  H
  H103     1.0000 0.72350  0.02650  0.62700  Biso   1.000  H
  H104     1.0000 0.27650  0.02650  0.87300  Biso   1.000  H
  C105     1.0000 0.71879  0.67770  0.34274  Biso   1.000  C
  C106     1.0000 0.28121  0.67770  0.15726  Biso   1.000  C
  C107     1.0000 0.21879  0.17770  0.34274  Biso   1.000  C
  C108     1.0000 0.78121  0.17770  0.15726  Biso   1.000  C
  C109     1.0000 0.28121  0.32230  0.65726  Biso   1.000  C
  C110     1.0000 0.71879  0.32230  0.84274  Biso   1.000  C
  C111     1.0000 0.78121  0.82230  0.65726  Biso   1.000  C
  C112     1.0000 0.21879  0.82230  0.84274  Biso   1.000  C
  H105     1.0000 0.72610  0.80160  0.37030  Biso   1.000  H
  H106     1.0000 0.27390  0.80160  0.12970  Biso   1.000  H
  H107     1.0000 0.22610  0.30160  0.37030  Biso   1.000  H
  H108     1.0000 0.77390  0.30160  0.12970  Biso   1.000  H
  H109     1.0000 0.27390  0.19840  0.62970  Biso   1.000  H
  H110     1.0000 0.72610  0.19840  0.87030  Biso   1.000  H
  H111     1.0000 0.77390  0.69840  0.62970  Biso   1.000  H
  H112     1.0000 0.22610  0.69840  0.87030  Biso   1.000  H
  C113     1.0000 0.67835  0.68490  0.30001  Biso   1.000  C
  C114     1.0000 0.32165  0.68490  0.19999  Biso   1.000  C
  C115     1.0000 0.17835  0.18490  0.30001  Biso   1.000  C
  C116     1.0000 0.82165  0.18490  0.19999  Biso   1.000  C
  C117     1.0000 0.32165  0.31510  0.69999  Biso   1.000  C
  C118     1.0000 0.67835  0.31510  0.80001  Biso   1.000  C
  C119     1.0000 0.82165  0.81510  0.69999  Biso   1.000  C
  C120     1.0000 0.17835  0.81510  0.80001  Biso   1.000  C
  H113     1.0000 0.65830  0.81790  0.29880  Biso   1.000  H
  H114     1.0000 0.34170  0.81790  0.20120  Biso   1.000  H
  H115     1.0000 0.15830  0.31790  0.29880  Biso   1.000  H
  H116     1.0000 0.84170  0.31790  0.20120  Biso   1.000  H
  H117     1.0000 0.34170  0.18210  0.70120  Biso   1.000  H
  H118     1.0000 0.65830  0.18210  0.79880  Biso   1.000  H
  H119     1.0000 0.84170  0.68210  0.70120  Biso   1.000  H
  H120     1.0000 0.15830  0.68210  0.79880  Biso   1.000  H
  N25      1.0000 0.02479  0.99390  0.45449  Biso   1.000  N
  N26      1.0000 0.97521  0.99390  0.04551  Biso   1.000  N
  N27      1.0000 0.52479  0.49390  0.45449  Biso   1.000  N
  N28      1.0000 0.47521  0.49390  0.04551  Biso   1.000  N
  N29      1.0000 0.97521  0.00610  0.54551  Biso   1.000  N
  N30      1.0000 0.02479  0.00610  0.95449  Biso   1.000  N
  N31      1.0000 0.47521  0.50610  0.54551  Biso   1.000  N
  N32      1.0000 0.52479  0.50610  0.95449  Biso   1.000  N
  H121     1.0000 0.95810  0.01070  0.57670  Biso   1.000  H
  H122     1.0000 0.04190  0.01070  0.92330  Biso   1.000  H
  H123     1.0000 0.45810  0.51070  0.57670  Biso   1.000  H
  H124     1.0000 0.54190  0.51070  0.92330  Biso   1.000  H
  H125     1.0000 0.04190  0.98930  0.42330  Biso   1.000  H
  H126     1.0000 0.95810  0.98930  0.07670  Biso   1.000  H
  H127     1.0000 0.54190  0.48930  0.42330  Biso   1.000  H
  H128     1.0000 0.45810  0.48930  0.07670  Biso   1.000  H
  C121     1.0000 0.02988  0.81820  0.49591  Biso   1.000  C
  C122     1.0000 0.97012  0.81820  0.00409  Biso   1.000  C
  C123     1.0000 0.52988  0.31820  0.49591  Biso   1.000  C
  C124     1.0000 0.47012  0.31820  0.00409  Biso   1.000  C
  C125     1.0000 0.97012  0.18180  0.50409  Biso   1.000  C
  C126     1.0000 0.02988  0.18180  0.99591  Biso   1.000  C
  C127     1.0000 0.47012  0.68180  0.50409  Biso   1.000  C
  C128     1.0000 0.52988  0.68180  0.99591  Biso   1.000  C
  H129     1.0000 0.05060  0.69020  0.49340  Biso   1.000  H
  H130     1.0000 0.94940  0.69020  0.00660  Biso   1.000  H
  H131     1.0000 0.55060  0.19020  0.49340  Biso   1.000  H
  H132     1.0000 0.44940  0.19020  0.00660  Biso   1.000  H
  H133     1.0000 0.94940  0.30980  0.50660  Biso   1.000  H
  H134     1.0000 0.05060  0.30980  0.99340  Biso   1.000  H
  H135     1.0000 0.44940  0.80980  0.50660  Biso   1.000  H
  H136     1.0000 0.55060  0.80980  0.99340  Biso   1.000  H
  C129     1.0000 0.00482  0.82870  0.54089  Biso   1.000  C
  C130     1.0000 0.99518  0.82870  0.95911  Biso   1.000  C
  C131     1.0000 0.50482  0.32870  0.54089  Biso   1.000  C
  C132     1.0000 0.49518  0.32870  0.95911  Biso   1.000  C
  C133     1.0000 0.99518  0.17130  0.45911  Biso   1.000  C
  C134     1.0000 0.00482  0.17130  0.04089  Biso   1.000  C
  C135     1.0000 0.49518  0.67130  0.45911  Biso   1.000  C
  C136     1.0000 0.50482  0.67130  0.04089  Biso   1.000  C
  H137     1.0000 0.00860  0.70720  0.56930  Biso   1.000  H
  H138     1.0000 0.99140  0.70720  0.93070  Biso   1.000  H
  H139     1.0000 0.50860  0.20720  0.56930  Biso   1.000  H
  H140     1.0000 0.49140  0.20720  0.93070  Biso   1.000  H
  H141     1.0000 0.99140  0.29280  0.43070  Biso   1.000  H
  H142     1.0000 0.00860  0.29280  0.06930  Biso   1.000  H
  H143     1.0000 0.49140  0.79280  0.43070  Biso   1.000  H
  H144     1.0000 0.50860  0.79280  0.06930  Biso   1.000  H
  I1       1.0000 0.67449  0.49812  0.54187  Biso   1.000  I
  I2       1.0000 0.32551  0.49812  0.95813  Biso   1.000  I
  I3       1.0000 0.17449  0.99812  0.54187  Biso   1.000  I
  I4       1.0000 0.82551  0.99812  0.95813  Biso   1.000  I
  I5       1.0000 0.32551  0.50188  0.45813  Biso   1.000  I
  I6       1.0000 0.67449  0.50188  0.04187  Biso   1.000  I
  I7       1.0000 0.82551  0.00188  0.45813  Biso   1.000  I
  I8       1.0000 0.17449  0.00188  0.04187  Biso   1.000  I
  I9       1.0000 0.75000  0.25000  0.50000  Biso   1.000  I
  I10      1.0000 0.25000  0.25000  0.00000  Biso   1.000  I
  I11      1.0000 0.25000  0.75000  0.50000  Biso   1.000  I
  I12      1.0000 0.75000  0.75000  0.00000  Biso   1.000  I
