data_image0
_cell_length_a       11.1971
_cell_length_b       7.8693
_cell_length_c       21.101
_cell_angle_alpha    90
_cell_angle_beta     91.242
_cell_angle_gamma    90

_symmetry_space_group_name_H-M    "P 1"
_symmetry_int_tables_number       1

loop_
  _symmetry_equiv_pos_as_xyz
  'x, y, z'

loop_
  _atom_site_label
  _atom_site_occupancy
  _atom_site_fract_x
  _atom_site_fract_y
  _atom_site_fract_z
  _atom_site_thermal_displace_type
  _atom_site_B_iso_or_equiv
  _atom_site_type_symbol
  Cl1      1.0000 0.15682  0.91148  0.08022  Biso   1.000  Cl
  Cl2      1.0000 0.34318  0.41148  0.41978  Biso   1.000  Cl
  Cl3      1.0000 0.84318  0.08852  0.91978  Biso   1.000  Cl
  Cl4      1.0000 0.65682  0.58852  0.58022  Biso   1.000  Cl
  Cu1      1.0000 0.28790  0.63910  0.10049  Biso   1.000  Cu
  Cu2      1.0000 0.21210  0.13910  0.39951  Biso   1.000  Cu
  Cu3      1.0000 0.71210  0.36090  0.89951  Biso   1.000  Cu
  Cu4      1.0000 0.78790  0.86090  0.60049  Biso   1.000  Cu
  O1       1.0000 0.13503  0.21500  0.31999  Biso   1.000  O
  O2       1.0000 0.36497  0.71500  0.18001  Biso   1.000  O
  O3       1.0000 0.86497  0.78500  0.68001  Biso   1.000  O
  O4       1.0000 0.63503  0.28500  0.81999  Biso   1.000  O
  O5       1.0000 0.04268  0.96540  0.30892  Biso   1.000  O
  O6       1.0000 0.45732  0.46540  0.19108  Biso   1.000  O
  O7       1.0000 0.95732  0.03460  0.69108  Biso   1.000  O
  O8       1.0000 0.54268  0.53460  0.80892  Biso   1.000  O
  N1       1.0000 0.24056  0.53350  0.01588  Biso   1.000  N
  N2       1.0000 0.25944  0.03350  0.48412  Biso   1.000  N
  N3       1.0000 0.75944  0.46650  0.98412  Biso   1.000  N
  N4       1.0000 0.74056  0.96650  0.51588  Biso   1.000  N
  N5       1.0000 0.42442  0.72060  0.04849  Biso   1.000  N
  N6       1.0000 0.07558  0.22060  0.45151  Biso   1.000  N
  N7       1.0000 0.57558  0.27940  0.95151  Biso   1.000  N
  N8       1.0000 0.92442  0.77940  0.54849  Biso   1.000  N
  N9       1.0000 0.16957  0.51700  0.15182  Biso   1.000  N
  N10      1.0000 0.33043  0.01700  0.34818  Biso   1.000  N
  N11      1.0000 0.83043  0.48300  0.84818  Biso   1.000  N
  N12      1.0000 0.66957  0.98300  0.65182  Biso   1.000  N
  N13      1.0000 0.07038  0.32250  0.20305  Biso   1.000  N
  N14      1.0000 0.42962  0.82250  0.29695  Biso   1.000  N
  N15      1.0000 0.92962  0.67750  0.79695  Biso   1.000  N
  N16      1.0000 0.57038  0.17750  0.70305  Biso   1.000  N
  C1       1.0000 0.07311  0.10680  0.29015  Biso   1.000  C
  C2       1.0000 0.42689  0.60680  0.20985  Biso   1.000  C
  C3       1.0000 0.92689  0.89320  0.70985  Biso   1.000  C
  C4       1.0000 0.57311  0.39320  0.79015  Biso   1.000  C
  C5       1.0000 0.03070  0.15580  0.22358  Biso   1.000  C
  C6       1.0000 0.46930  0.65580  0.27642  Biso   1.000  C
  C7       1.0000 0.96930  0.84420  0.77642  Biso   1.000  C
  C8       1.0000 0.53070  0.34420  0.72358  Biso   1.000  C
  H1       1.0000 0.05910  0.07130  0.19400  Biso   1.000  H
  H2       1.0000 0.44090  0.57130  0.30600  Biso   1.000  H
  H3       1.0000 0.94090  0.92870  0.80600  Biso   1.000  H
  H4       1.0000 0.55910  0.42870  0.69400  Biso   1.000  H
  H5       1.0000 0.94410  0.15310  0.22190  Biso   1.000  H
  H6       1.0000 0.55590  0.65310  0.27810  Biso   1.000  H
  H7       1.0000 0.05590  0.84690  0.77810  Biso   1.000  H
  H8       1.0000 0.44410  0.34690  0.72190  Biso   1.000  H
  C9       1.0000 0.41801  0.68000  0.98657  Biso   1.000  C
  C10      1.0000 0.08199  0.18000  0.51343  Biso   1.000  C
  C11      1.0000 0.58199  0.32000  0.01343  Biso   1.000  C
  C12      1.0000 0.91801  0.82000  0.48657  Biso   1.000  C
  C13      1.0000 0.31268  0.57590  0.96804  Biso   1.000  C
  C14      1.0000 0.18732  0.07590  0.53196  Biso   1.000  C
  C15      1.0000 0.68732  0.42410  0.03196  Biso   1.000  C
  C16      1.0000 0.81268  0.92410  0.46804  Biso   1.000  C
  C17      1.0000 0.11770  0.37720  0.94261  Biso   1.000  C
  C18      1.0000 0.38230  0.87720  0.55739  Biso   1.000  C
  C19      1.0000 0.88230  0.62280  0.05739  Biso   1.000  C
  C20      1.0000 0.61770  0.12280  0.44261  Biso   1.000  C
  H9       1.0000 0.05110  0.30880  0.93520  Biso   1.000  H
  H10      1.0000 0.44890  0.80880  0.56480  Biso   1.000  H
  H11      1.0000 0.94890  0.69120  0.06480  Biso   1.000  H
  H12      1.0000 0.55110  0.19120  0.43520  Biso   1.000  H
  C21      1.0000 0.60890  0.86290  0.03058  Biso   1.000  C
  C22      1.0000 0.89110  0.36290  0.46942  Biso   1.000  C
  C23      1.0000 0.39110  0.13710  0.96942  Biso   1.000  C
  C24      1.0000 0.10890  0.63710  0.53058  Biso   1.000  C
  H13      1.0000 0.67400  0.92370  0.04680  Biso   1.000  H
  H14      1.0000 0.82600  0.42370  0.45320  Biso   1.000  H
  H15      1.0000 0.32600  0.07630  0.95320  Biso   1.000  H
  H16      1.0000 0.17400  0.57630  0.54680  Biso   1.000  H
  C25      1.0000 0.50550  0.72940  0.94497  Biso   1.000  C
  C26      1.0000 0.99450  0.22940  0.55503  Biso   1.000  C
  C27      1.0000 0.49450  0.27060  0.05503  Biso   1.000  C
  C28      1.0000 0.00550  0.77060  0.44497  Biso   1.000  C
  H17      1.0000 0.49980  0.69970  0.90230  Biso   1.000  H
  H18      1.0000 0.00020  0.19970  0.59770  Biso   1.000  H
  H19      1.0000 0.50020  0.30030  0.09770  Biso   1.000  H
  H20      1.0000 0.99980  0.80030  0.40230  Biso   1.000  H
  C29      1.0000 0.15270  0.35310  0.15978  Biso   1.000  C
  C30      1.0000 0.34730  0.85310  0.34022  Biso   1.000  C
  C31      1.0000 0.84730  0.64690  0.84022  Biso   1.000  C
  C32      1.0000 0.65270  0.14690  0.65978  Biso   1.000  C
  H21      1.0000 0.19310  0.26900  0.13790  Biso   1.000  H
  H22      1.0000 0.30690  0.76900  0.36210  Biso   1.000  H
  H23      1.0000 0.80690  0.73100  0.86210  Biso   1.000  H
  H24      1.0000 0.69310  0.23100  0.63790  Biso   1.000  H
  C33      1.0000 0.14517  0.43600  0.00298  Biso   1.000  C
  C34      1.0000 0.35483  0.93600  0.49702  Biso   1.000  C
  C35      1.0000 0.85483  0.56400  0.99702  Biso   1.000  C
  C36      1.0000 0.64517  0.06400  0.50298  Biso   1.000  C
  H25      1.0000 0.09530  0.40660  0.03590  Biso   1.000  H
  H26      1.0000 0.40470  0.90660  0.46410  Biso   1.000  H
  H27      1.0000 0.90470  0.59340  0.96410  Biso   1.000  H
  H28      1.0000 0.59530  0.09340  0.53590  Biso   1.000  H
  C37      1.0000 0.28920  0.52240  0.90637  Biso   1.000  C
  C38      1.0000 0.21080  0.02240  0.59363  Biso   1.000  C
  C39      1.0000 0.71080  0.47760  0.09363  Biso   1.000  C
  C40      1.0000 0.78920  0.97760  0.40637  Biso   1.000  C
  H29      1.0000 0.33930  0.55420  0.87390  Biso   1.000  H
  H30      1.0000 0.16070  0.05420  0.62610  Biso   1.000  H
  H31      1.0000 0.66070  0.44580  0.12610  Biso   1.000  H
  H32      1.0000 0.83930  0.94580  0.37390  Biso   1.000  H
  C41      1.0000 0.51853  0.81120  0.07009  Biso   1.000  C
  C42      1.0000 0.98147  0.31120  0.42991  Biso   1.000  C
  C43      1.0000 0.48147  0.18880  0.92991  Biso   1.000  C
  C44      1.0000 0.01853  0.68880  0.57009  Biso   1.000  C
  H33      1.0000 0.52310  0.84010  0.11280  Biso   1.000  H
  H34      1.0000 0.97690  0.34010  0.38720  Biso   1.000  H
  H35      1.0000 0.47690  0.15990  0.88720  Biso   1.000  H
  H36      1.0000 0.02310  0.65990  0.61280  Biso   1.000  H
  C45      1.0000 0.03390  0.47600  0.22494  Biso   1.000  C
  C46      1.0000 0.46610  0.97600  0.27506  Biso   1.000  C
  C47      1.0000 0.96610  0.52400  0.77506  Biso   1.000  C
  C48      1.0000 0.53390  0.02400  0.72494  Biso   1.000  C
  H37      1.0000 0.97750  0.49500  0.25580  Biso   1.000  H
  H38      1.0000 0.52250  0.99500  0.24420  Biso   1.000  H
  H39      1.0000 0.02250  0.50500  0.74420  Biso   1.000  H
  H40      1.0000 0.47750  0.00500  0.75580  Biso   1.000  H
  C49      1.0000 0.60120  0.82360  0.96779  Biso   1.000  C
  C50      1.0000 0.89880  0.32360  0.53221  Biso   1.000  C
  C51      1.0000 0.39880  0.17640  0.03221  Biso   1.000  C
  C52      1.0000 0.10120  0.67640  0.46779  Biso   1.000  C
  H41      1.0000 0.66010  0.85990  0.94040  Biso   1.000  H
  H42      1.0000 0.83990  0.35990  0.55960  Biso   1.000  H
  H43      1.0000 0.33990  0.14010  0.05960  Biso   1.000  H
  H44      1.0000 0.16010  0.64010  0.44040  Biso   1.000  H
  C53      1.0000 0.19090  0.42190  0.89375  Biso   1.000  C
  C54      1.0000 0.30910  0.92190  0.60625  Biso   1.000  C
  C55      1.0000 0.80910  0.57810  0.10625  Biso   1.000  C
  C56      1.0000 0.69090  0.07810  0.39375  Biso   1.000  C
  H45      1.0000 0.17420  0.38460  0.85270  Biso   1.000  H
  H46      1.0000 0.32580  0.88460  0.64730  Biso   1.000  H
  H47      1.0000 0.82580  0.61540  0.14730  Biso   1.000  H
  H48      1.0000 0.67420  0.11540  0.35270  Biso   1.000  H
  C57      1.0000 0.09500  0.59530  0.19333  Biso   1.000  C
  C58      1.0000 0.40500  0.09530  0.30667  Biso   1.000  C
  C59      1.0000 0.90500  0.40470  0.80667  Biso   1.000  C
  C60      1.0000 0.59500  0.90470  0.69333  Biso   1.000  C
  H49      1.0000 0.08780  0.71210  0.19880  Biso   1.000  H
  H50      1.0000 0.41220  0.21210  0.30120  Biso   1.000  H
  H51      1.0000 0.91220  0.28790  0.80120  Biso   1.000  H
  H52      1.0000 0.58780  0.78790  0.69880  Biso   1.000  H
  O9       1.0000 0.84017  0.80030  0.25627  Biso   1.000  O
  O10      1.0000 0.65983  0.30030  0.24373  Biso   1.000  O
  O11      1.0000 0.15983  0.19970  0.74373  Biso   1.000  O
  O12      1.0000 0.34017  0.69970  0.75627  Biso   1.000  O
  H53      1.0000 0.90420  0.84420  0.27120  Biso   1.000  H
  H54      1.0000 0.59580  0.34420  0.22880  Biso   1.000  H
  H55      1.0000 0.09580  0.15580  0.72880  Biso   1.000  H
  H56      1.0000 0.40420  0.65580  0.77120  Biso   1.000  H
  H57      1.0000 0.80310  0.87600  0.23490  Biso   1.000  H
  H58      1.0000 0.69690  0.37600  0.26510  Biso   1.000  H
  H59      1.0000 0.19690  0.12400  0.76510  Biso   1.000  H
  H60      1.0000 0.30310  0.62400  0.73490  Biso   1.000  H
  O13      1.0000 0.73443  0.03120  0.17036  Biso   1.000  O
  O14      1.0000 0.76557  0.53120  0.32964  Biso   1.000  O
  O15      1.0000 0.26557  0.96880  0.82964  Biso   1.000  O
  O16      1.0000 0.23443  0.46880  0.67036  Biso   1.000  O
  H61      1.0000 0.71560  0.12650  0.18630  Biso   1.000  H
  H62      1.0000 0.78440  0.62650  0.31370  Biso   1.000  H
  H63      1.0000 0.28440  0.87350  0.81370  Biso   1.000  H
  H64      1.0000 0.21560  0.37350  0.68630  Biso   1.000  H
  H65      1.0000 0.78510  0.04860  0.14170  Biso   1.000  H
  H66      1.0000 0.71490  0.54860  0.35830  Biso   1.000  H
  H67      1.0000 0.21490  0.95140  0.85830  Biso   1.000  H
  H68      1.0000 0.28510  0.45140  0.64170  Biso   1.000  H
  O17      1.0000 0.10115  0.89500  0.92822  Biso   1.000  O
  O18      1.0000 0.39885  0.39500  0.57178  Biso   1.000  O
  O19      1.0000 0.89885  0.10500  0.07178  Biso   1.000  O
  O20      1.0000 0.60115  0.60500  0.42822  Biso   1.000  O
  H69      1.0000 0.11800  0.89600  0.96770  Biso   1.000  H
  H70      1.0000 0.38200  0.39600  0.53230  Biso   1.000  H
  H71      1.0000 0.88200  0.10400  0.03230  Biso   1.000  H
  H72      1.0000 0.61800  0.60400  0.46770  Biso   1.000  H
  H73      1.0000 0.04380  0.96370  0.92110  Biso   1.000  H
  H74      1.0000 0.45620  0.46370  0.57890  Biso   1.000  H
  H75      1.0000 0.95620  0.03630  0.07890  Biso   1.000  H
  H76      1.0000 0.54380  0.53630  0.42110  Biso   1.000  H
