data_image0
_cell_length_a       15.776
_cell_length_b       12.3832
_cell_length_c       7.8616
_cell_angle_alpha    90
_cell_angle_beta     90
_cell_angle_gamma    90

_symmetry_space_group_name_H-M    "P 1"
_symmetry_int_tables_number       1

loop_
  _symmetry_equiv_pos_as_xyz
  'x, y, z'

loop_
  _atom_site_label
  _atom_site_occupancy
  _atom_site_fract_x
  _atom_site_fract_y
  _atom_site_fract_z
  _atom_site_thermal_displace_type
  _atom_site_B_iso_or_equiv
  _atom_site_type_symbol
  Cu1      1.0000 0.31153  0.25000  0.90715  Biso   1.000  Cu
  Cu2      1.0000 0.18847  0.75000  0.40715  Biso   1.000  Cu
  Cu3      1.0000 0.68847  0.75000  0.09285  Biso   1.000  Cu
  Cu4      1.0000 0.81153  0.25000  0.59285  Biso   1.000  Cu
  O1       1.0000 0.66330  0.25000  0.80300  Biso   1.000  O
  O2       1.0000 0.83670  0.75000  0.30300  Biso   1.000  O
  O3       1.0000 0.33670  0.75000  0.19700  Biso   1.000  O
  O4       1.0000 0.16330  0.25000  0.69700  Biso   1.000  O
  O5       1.0000 0.68798  0.25000  0.52500  Biso   1.000  O
  O6       1.0000 0.81202  0.75000  0.02500  Biso   1.000  O
  O7       1.0000 0.31202  0.75000  0.47500  Biso   1.000  O
  O8       1.0000 0.18798  0.25000  0.97500  Biso   1.000  O
  O9       1.0000 0.31910  0.25000  0.20970  Biso   1.000  O
  O10      1.0000 0.18090  0.75000  0.70970  Biso   1.000  O
  O11      1.0000 0.68090  0.75000  0.79030  Biso   1.000  O
  O12      1.0000 0.81910  0.25000  0.29030  Biso   1.000  O
  O13      1.0000 0.45160  0.25000  0.11960  Biso   1.000  O
  O14      1.0000 0.04840  0.75000  0.61960  Biso   1.000  O
  O15      1.0000 0.54840  0.75000  0.88040  Biso   1.000  O
  O16      1.0000 0.95160  0.25000  0.38040  Biso   1.000  O
  N1       1.0000 0.40260  0.25000  0.71450  Biso   1.000  N
  N2       1.0000 0.09740  0.75000  0.21450  Biso   1.000  N
  N3       1.0000 0.59740  0.75000  0.28550  Biso   1.000  N
  N4       1.0000 0.90260  0.25000  0.78550  Biso   1.000  N
  N5       1.0000 0.31517  0.09020  0.89760  Biso   1.000  N
  N6       1.0000 0.18483  0.90980  0.39760  Biso   1.000  N
  N7       1.0000 0.68483  0.59020  0.10240  Biso   1.000  N
  N8       1.0000 0.81517  0.40980  0.60240  Biso   1.000  N
  N9       1.0000 0.68483  0.90980  0.10240  Biso   1.000  N
  N10      1.0000 0.81517  0.09020  0.60240  Biso   1.000  N
  N11      1.0000 0.31517  0.40980  0.89760  Biso   1.000  N
  N12      1.0000 0.18483  0.59020  0.39760  Biso   1.000  N
  N13      1.0000 0.36590  0.92330  0.89570  Biso   1.000  N
  N14      1.0000 0.13410  0.07670  0.39570  Biso   1.000  N
  N15      1.0000 0.63410  0.42330  0.10430  Biso   1.000  N
  N16      1.0000 0.86590  0.57670  0.60430  Biso   1.000  N
  N17      1.0000 0.63410  0.07670  0.10430  Biso   1.000  N
  N18      1.0000 0.86590  0.92330  0.60430  Biso   1.000  N
  N19      1.0000 0.36590  0.57670  0.89570  Biso   1.000  N
  N20      1.0000 0.13410  0.42330  0.39570  Biso   1.000  N
  H1       1.0000 0.39780  0.86790  0.91180  Biso   1.000  H
  H2       1.0000 0.10220  0.13210  0.41180  Biso   1.000  H
  H3       1.0000 0.60220  0.36790  0.08820  Biso   1.000  H
  H4       1.0000 0.89780  0.63210  0.58820  Biso   1.000  H
  H5       1.0000 0.60220  0.13210  0.08820  Biso   1.000  H
  H6       1.0000 0.89780  0.86790  0.58820  Biso   1.000  H
  H7       1.0000 0.39780  0.63210  0.91180  Biso   1.000  H
  H8       1.0000 0.10220  0.36790  0.41180  Biso   1.000  H
  C1       1.0000 0.39850  0.25000  0.23410  Biso   1.000  C
  C2       1.0000 0.10150  0.75000  0.73410  Biso   1.000  C
  C3       1.0000 0.60150  0.75000  0.76590  Biso   1.000  C
  C4       1.0000 0.89850  0.25000  0.26590  Biso   1.000  C
  C5       1.0000 0.42980  0.25000  0.41580  Biso   1.000  C
  C6       1.0000 0.07020  0.75000  0.91580  Biso   1.000  C
  C7       1.0000 0.57020  0.75000  0.58420  Biso   1.000  C
  C8       1.0000 0.92980  0.25000  0.08420  Biso   1.000  C
  C9       1.0000 0.51650  0.25000  0.44800  Biso   1.000  C
  C10      1.0000 0.98350  0.75000  0.94800  Biso   1.000  C
  C11      1.0000 0.48350  0.75000  0.55200  Biso   1.000  C
  C12      1.0000 0.01650  0.25000  0.05200  Biso   1.000  C
  H9       1.0000 0.55480  0.25000  0.35820  Biso   1.000  H
  H10      1.0000 0.94520  0.75000  0.85820  Biso   1.000  H
  H11      1.0000 0.44520  0.75000  0.64180  Biso   1.000  H
  H12      1.0000 0.05480  0.25000  0.14180  Biso   1.000  H
  C13      1.0000 0.54550  0.25000  0.61360  Biso   1.000  C
  C14      1.0000 0.95450  0.75000  0.11360  Biso   1.000  C
  C15      1.0000 0.45450  0.75000  0.38640  Biso   1.000  C
  C16      1.0000 0.04550  0.25000  0.88640  Biso   1.000  C
  C17      1.0000 0.63970  0.25000  0.65370  Biso   1.000  C
  C18      1.0000 0.86030  0.75000  0.15370  Biso   1.000  C
  C19      1.0000 0.36030  0.75000  0.34630  Biso   1.000  C
  C20      1.0000 0.13970  0.25000  0.84630  Biso   1.000  C
  C21      1.0000 0.48620  0.25000  0.74330  Biso   1.000  C
  C22      1.0000 0.01380  0.75000  0.24330  Biso   1.000  C
  C23      1.0000 0.51380  0.75000  0.25670  Biso   1.000  C
  C24      1.0000 0.98620  0.25000  0.75670  Biso   1.000  C
  H13      1.0000 0.50530  0.25000  0.85520  Biso   1.000  H
  H14      1.0000 0.99470  0.75000  0.35520  Biso   1.000  H
  H15      1.0000 0.49470  0.75000  0.14480  Biso   1.000  H
  H16      1.0000 0.00530  0.25000  0.64480  Biso   1.000  H
  C25      1.0000 0.37510  0.25000  0.55370  Biso   1.000  C
  C26      1.0000 0.12490  0.75000  0.05370  Biso   1.000  C
  C27      1.0000 0.62490  0.75000  0.44630  Biso   1.000  C
  C28      1.0000 0.87510  0.25000  0.94630  Biso   1.000  C
  H17      1.0000 0.31700  0.25000  0.53350  Biso   1.000  H
  H18      1.0000 0.18300  0.75000  0.03350  Biso   1.000  H
  H19      1.0000 0.68300  0.75000  0.46650  Biso   1.000  H
  H20      1.0000 0.81700  0.25000  0.96650  Biso   1.000  H
  C29      1.0000 0.26290  0.02670  0.81450  Biso   1.000  C
  C30      1.0000 0.23710  0.97330  0.31450  Biso   1.000  C
  C31      1.0000 0.73710  0.52670  0.18550  Biso   1.000  C
  C32      1.0000 0.76290  0.47330  0.68550  Biso   1.000  C
  C33      1.0000 0.73710  0.97330  0.18550  Biso   1.000  C
  C34      1.0000 0.76290  0.02670  0.68550  Biso   1.000  C
  C35      1.0000 0.26290  0.47330  0.81450  Biso   1.000  C
  C36      1.0000 0.23710  0.52670  0.31450  Biso   1.000  C
  H21      1.0000 0.21280  0.04960  0.76370  Biso   1.000  H
  H22      1.0000 0.28720  0.95040  0.26370  Biso   1.000  H
  H23      1.0000 0.78720  0.54960  0.23630  Biso   1.000  H
  H24      1.0000 0.71280  0.45040  0.73630  Biso   1.000  H
  H25      1.0000 0.78720  0.95040  0.23630  Biso   1.000  H
  H26      1.0000 0.71280  0.04960  0.73630  Biso   1.000  H
  H27      1.0000 0.21280  0.45040  0.76370  Biso   1.000  H
  H28      1.0000 0.28720  0.54960  0.26370  Biso   1.000  H
  C37      1.0000 0.29080  0.92590  0.81240  Biso   1.000  C
  C38      1.0000 0.20920  0.07410  0.31240  Biso   1.000  C
  C39      1.0000 0.70920  0.42590  0.18760  Biso   1.000  C
  C40      1.0000 0.79080  0.57410  0.68760  Biso   1.000  C
  C41      1.0000 0.70920  0.07410  0.18760  Biso   1.000  C
  C42      1.0000 0.79080  0.92590  0.68760  Biso   1.000  C
  C43      1.0000 0.29080  0.57410  0.81240  Biso   1.000  C
  C44      1.0000 0.20920  0.42590  0.31240  Biso   1.000  C
  H29      1.0000 0.26360  0.86730  0.76260  Biso   1.000  H
  H30      1.0000 0.23640  0.13270  0.26260  Biso   1.000  H
  H31      1.0000 0.73640  0.36730  0.23740  Biso   1.000  H
  H32      1.0000 0.76360  0.63270  0.73740  Biso   1.000  H
  H33      1.0000 0.73640  0.13270  0.23740  Biso   1.000  H
  H34      1.0000 0.76360  0.86730  0.73740  Biso   1.000  H
  H35      1.0000 0.26360  0.63270  0.76260  Biso   1.000  H
  H36      1.0000 0.23640  0.36730  0.26260  Biso   1.000  H
  C45      1.0000 0.38050  0.02500  0.94800  Biso   1.000  C
  C46      1.0000 0.11950  0.97500  0.44800  Biso   1.000  C
  C47      1.0000 0.61950  0.52500  0.05200  Biso   1.000  C
  C48      1.0000 0.88050  0.47500  0.55200  Biso   1.000  C
  C49      1.0000 0.61950  0.97500  0.05200  Biso   1.000  C
  C50      1.0000 0.88050  0.02500  0.55200  Biso   1.000  C
  C51      1.0000 0.38050  0.47500  0.94800  Biso   1.000  C
  C52      1.0000 0.11950  0.52500  0.44800  Biso   1.000  C
  H37      1.0000 0.42770  0.04760  0.00920  Biso   1.000  H
  H38      1.0000 0.07230  0.95240  0.50920  Biso   1.000  H
  H39      1.0000 0.57230  0.54760  0.99080  Biso   1.000  H
  H40      1.0000 0.92770  0.45240  0.49080  Biso   1.000  H
  H41      1.0000 0.57230  0.95240  0.99080  Biso   1.000  H
  H42      1.0000 0.92770  0.04760  0.49080  Biso   1.000  H
  H43      1.0000 0.42770  0.45240  0.00920  Biso   1.000  H
  H44      1.0000 0.07230  0.54760  0.50920  Biso   1.000  H
