data_image0
_cell_length_a       11.752
_cell_length_b       11.663
_cell_length_c       12.921
_cell_angle_alpha    90
_cell_angle_beta     101.396
_cell_angle_gamma    90

_symmetry_space_group_name_H-M    "P 1"
_symmetry_int_tables_number       1

loop_
  _symmetry_equiv_pos_as_xyz
  'x, y, z'

loop_
  _atom_site_label
  _atom_site_occupancy
  _atom_site_fract_x
  _atom_site_fract_y
  _atom_site_fract_z
  _atom_site_thermal_displace_type
  _atom_site_B_iso_or_equiv
  _atom_site_type_symbol
  Cu1      1.0000 0.00000  0.50000  0.00000  Biso   1.000  Cu
  Cu2      1.0000 0.00000  0.00000  0.50000  Biso   1.000  Cu
  Cl1      1.0000 0.75166  0.59372  0.24679  Biso   1.000  Cl
  Cl2      1.0000 0.24834  0.09372  0.25321  Biso   1.000  Cl
  Cl3      1.0000 0.24834  0.40628  0.75321  Biso   1.000  Cl
  Cl4      1.0000 0.75166  0.90628  0.74679  Biso   1.000  Cl
  O1       1.0000 0.04445  0.63642  0.13769  Biso   1.000  O
  O2       1.0000 0.95555  0.13642  0.36231  Biso   1.000  O
  O3       1.0000 0.95555  0.36358  0.86231  Biso   1.000  O
  O4       1.0000 0.04445  0.86358  0.63769  Biso   1.000  O
  O5       1.0000 0.16190  0.44480  0.02850  Biso   1.000  O
  O6       1.0000 0.83810  0.94480  0.47150  Biso   1.000  O
  O7       1.0000 0.83810  0.55520  0.97150  Biso   1.000  O
  O8       1.0000 0.16190  0.05520  0.52850  Biso   1.000  O
  C1       1.0000 0.93710  0.80730  0.08350  Biso   1.000  C
  C2       1.0000 0.06290  0.30730  0.41650  Biso   1.000  C
  C3       1.0000 0.06290  0.19270  0.91650  Biso   1.000  C
  C4       1.0000 0.93710  0.69270  0.58350  Biso   1.000  C
  H1       1.0000 0.91430  0.78510  0.01330  Biso   1.000  H
  H2       1.0000 0.08570  0.28510  0.48670  Biso   1.000  H
  H3       1.0000 0.08570  0.21490  0.98670  Biso   1.000  H
  H4       1.0000 0.91430  0.71490  0.51330  Biso   1.000  H
  C5       1.0000 0.82720  0.98980  0.03770  Biso   1.000  C
  C6       1.0000 0.17280  0.48980  0.46230  Biso   1.000  C
  C7       1.0000 0.17280  0.01020  0.96230  Biso   1.000  C
  C8       1.0000 0.82720  0.51020  0.53770  Biso   1.000  C
  H5       1.0000 0.87560  0.03210  0.99940  Biso   1.000  H
  H6       1.0000 0.12440  0.53210  0.50060  Biso   1.000  H
  H7       1.0000 0.12440  0.96790  0.00060  Biso   1.000  H
  H8       1.0000 0.87560  0.46790  0.49940  Biso   1.000  H
  H9       1.0000 0.78750  0.04220  0.07570  Biso   1.000  H
  H10      1.0000 0.21250  0.54220  0.42430  Biso   1.000  H
  H11      1.0000 0.21250  0.95780  0.92430  Biso   1.000  H
  H12      1.0000 0.78750  0.45780  0.57570  Biso   1.000  H
  H13      1.0000 0.77130  0.94620  0.98900  Biso   1.000  H
  H14      1.0000 0.22870  0.44620  0.51100  Biso   1.000  H
  H15      1.0000 0.22870  0.05380  0.01100  Biso   1.000  H
  H16      1.0000 0.77130  0.55380  0.48900  Biso   1.000  H
  C9       1.0000 0.00810  0.73240  0.15370  Biso   1.000  C
  C10      1.0000 0.99190  0.23240  0.34630  Biso   1.000  C
  C11      1.0000 0.99190  0.26760  0.84630  Biso   1.000  C
  C12      1.0000 0.00810  0.76760  0.65370  Biso   1.000  C
  O9       1.0000 0.80800  0.48780  0.27370  Biso   1.000  O
  O10      1.0000 0.19200  0.98780  0.22630  Biso   1.000  O
  O11      1.0000 0.19200  0.51220  0.72630  Biso   1.000  O
  O12      1.0000 0.80800  0.01220  0.77370  Biso   1.000  O
  O13      1.0000 0.64200  0.59080  0.27160  Biso   1.000  O
  O14      1.0000 0.35800  0.09080  0.22840  Biso   1.000  O
  O15      1.0000 0.35800  0.40920  0.72840  Biso   1.000  O
  O16      1.0000 0.64200  0.90920  0.77160  Biso   1.000  O
  O17      1.0000 0.74400  0.62260  0.14090  Biso   1.000  O
  O18      1.0000 0.25600  0.12260  0.35910  Biso   1.000  O
  O19      1.0000 0.25600  0.37740  0.85910  Biso   1.000  O
  O20      1.0000 0.74400  0.87740  0.64090  Biso   1.000  O
  O21      1.0000 0.81740  0.68060  0.30620  Biso   1.000  O
  O22      1.0000 0.18260  0.18060  0.19380  Biso   1.000  O
  O23      1.0000 0.18260  0.31940  0.69380  Biso   1.000  O
  O24      1.0000 0.81740  0.81940  0.80620  Biso   1.000  O
  N1       1.0000 0.03940  0.77886  0.25517  Biso   1.000  N
  N2       1.0000 0.96060  0.27886  0.24483  Biso   1.000  N
  N3       1.0000 0.96060  0.22114  0.74483  Biso   1.000  N
  N4       1.0000 0.03940  0.72114  0.75517  Biso   1.000  N
  N5       1.0000 0.03860  0.89176  0.39027  Biso   1.000  N
  N6       1.0000 0.96140  0.39176  0.10973  Biso   1.000  N
  N7       1.0000 0.96140  0.10824  0.60973  Biso   1.000  N
  N8       1.0000 0.03860  0.60824  0.89027  Biso   1.000  N
  N9       1.0000 0.11000  0.72630  0.33848  Biso   1.000  N
  N10      1.0000 0.89000  0.22630  0.16152  Biso   1.000  N
  N11      1.0000 0.89000  0.27370  0.66152  Biso   1.000  N
  N12      1.0000 0.11000  0.77370  0.83848  Biso   1.000  N
  N13      1.0000 0.93000  0.94460  0.21694  Biso   1.000  N
  N14      1.0000 0.07000  0.44460  0.28306  Biso   1.000  N
  N15      1.0000 0.07000  0.05540  0.78306  Biso   1.000  N
  N16      1.0000 0.93000  0.55540  0.71694  Biso   1.000  N
  C13      1.0000 0.99820  0.87830  0.28750  Biso   1.000  C
  C14      1.0000 0.00180  0.37830  0.21250  Biso   1.000  C
  C15      1.0000 0.00180  0.12170  0.71250  Biso   1.000  C
  C16      1.0000 0.99820  0.62170  0.78750  Biso   1.000  C
  C17      1.0000 0.90040  0.91050  0.11350  Biso   1.000  C
  C18      1.0000 0.09960  0.41050  0.38650  Biso   1.000  C
  C19      1.0000 0.09960  0.08950  0.88650  Biso   1.000  C
  C20      1.0000 0.90040  0.58950  0.61350  Biso   1.000  C
  C21      1.0000 0.10700  0.79700  0.41610  Biso   1.000  C
  C22      1.0000 0.89300  0.29700  0.08390  Biso   1.000  C
  C23      1.0000 0.89300  0.20300  0.58390  Biso   1.000  C
  C24      1.0000 0.10700  0.70300  0.91610  Biso   1.000  C
  H17      1.0000 0.14840  0.78400  0.48420  Biso   1.000  H
  H18      1.0000 0.85160  0.28400  0.01580  Biso   1.000  H
  H19      1.0000 0.85160  0.21600  0.51580  Biso   1.000  H
  H20      1.0000 0.14840  0.71600  0.98420  Biso   1.000  H
  O25      1.0000 0.29960  0.70210  0.12130  Biso   1.000  O
  O26      1.0000 0.70040  0.20210  0.37870  Biso   1.000  O
  O27      1.0000 0.70040  0.29790  0.87870  Biso   1.000  O
  O28      1.0000 0.29960  0.79790  0.62130  Biso   1.000  O
  N17      1.0000 0.36600  0.58120  0.25790  Biso   1.000  N
  N18      1.0000 0.63400  0.08120  0.24210  Biso   1.000  N
  N19      1.0000 0.63400  0.41880  0.74210  Biso   1.000  N
  N20      1.0000 0.36600  0.91880  0.75790  Biso   1.000  N
  N21      1.0000 0.46350  0.64530  0.42170  Biso   1.000  N
  N22      1.0000 0.53650  0.14530  0.07830  Biso   1.000  N
  N23      1.0000 0.53650  0.35470  0.57830  Biso   1.000  N
  N24      1.0000 0.46350  0.85470  0.92170  Biso   1.000  N
  C25      1.0000 0.39460  0.77790  0.28620  Biso   1.000  C
  C26      1.0000 0.60540  0.27790  0.21380  Biso   1.000  C
  C27      1.0000 0.60540  0.22210  0.71380  Biso   1.000  C
  C28      1.0000 0.39460  0.72210  0.78620  Biso   1.000  C
  H21      1.0000 0.38730  0.85400  0.26440  Biso   1.000  H
  H22      1.0000 0.61270  0.35400  0.23560  Biso   1.000  H
  H23      1.0000 0.61270  0.14600  0.73560  Biso   1.000  H
  H24      1.0000 0.38730  0.64600  0.76440  Biso   1.000  H
  C29      1.0000 0.42350  0.55850  0.35680  Biso   1.000  C
  C30      1.0000 0.57650  0.05850  0.14320  Biso   1.000  C
  C31      1.0000 0.57650  0.44150  0.64320  Biso   1.000  C
  C32      1.0000 0.42350  0.94150  0.85680  Biso   1.000  C
  N25      1.0000 0.42850  0.44690  0.37500  Biso   1.000  N
  N26      1.0000 0.57150  0.94690  0.12500  Biso   1.000  N
  N27      1.0000 0.57150  0.55310  0.62500  Biso   1.000  N
  N28      1.0000 0.42850  0.05310  0.87500  Biso   1.000  N
  N29      1.0000 0.33100  0.47960  0.20830  Biso   1.000  N
  N30      1.0000 0.66900  0.97960  0.29170  Biso   1.000  N
  N31      1.0000 0.66900  0.52040  0.79170  Biso   1.000  N
  N32      1.0000 0.33100  0.02040  0.70830  Biso   1.000  N
  C33      1.0000 0.34860  0.69180  0.21300  Biso   1.000  C
  C34      1.0000 0.65140  0.19180  0.28700  Biso   1.000  C
  C35      1.0000 0.65140  0.30820  0.78700  Biso   1.000  C
  C36      1.0000 0.34860  0.80820  0.71300  Biso   1.000  C
  C37      1.0000 0.37020  0.40430  0.28080  Biso   1.000  C
  C38      1.0000 0.62980  0.90430  0.21920  Biso   1.000  C
  C39      1.0000 0.62980  0.59570  0.71920  Biso   1.000  C
  C40      1.0000 0.37020  0.09570  0.78080  Biso   1.000  C
  H25      1.0000 0.35930  0.32600  0.26920  Biso   1.000  H
  H26      1.0000 0.64070  0.82600  0.23080  Biso   1.000  H
  H27      1.0000 0.64070  0.67400  0.73080  Biso   1.000  H
  H28      1.0000 0.35930  0.17400  0.76920  Biso   1.000  H
  C41      1.0000 0.44870  0.75500  0.38660  Biso   1.000  C
  C42      1.0000 0.55130  0.25500  0.11340  Biso   1.000  C
  C43      1.0000 0.55130  0.24500  0.61340  Biso   1.000  C
  C44      1.0000 0.44870  0.74500  0.88660  Biso   1.000  C
  C45      1.0000 0.49730  0.84660  0.46470  Biso   1.000  C
  C46      1.0000 0.50270  0.34660  0.03530  Biso   1.000  C
  C47      1.0000 0.50270  0.15340  0.53530  Biso   1.000  C
  C48      1.0000 0.49730  0.65340  0.96470  Biso   1.000  C
  H29      1.0000 0.49140  0.91970  0.42980  Biso   1.000  H
  H30      1.0000 0.50860  0.41970  0.07020  Biso   1.000  H
  H31      1.0000 0.50860  0.08030  0.57020  Biso   1.000  H
  H32      1.0000 0.49140  0.58030  0.92980  Biso   1.000  H
  H33      1.0000 0.57740  0.83030  0.49350  Biso   1.000  H
  H34      1.0000 0.42260  0.33030  0.00650  Biso   1.000  H
  H35      1.0000 0.42260  0.16970  0.50650  Biso   1.000  H
  H36      1.0000 0.57740  0.66970  0.99350  Biso   1.000  H
  H37      1.0000 0.45430  0.84830  0.52060  Biso   1.000  H
  H38      1.0000 0.54570  0.34830  0.97940  Biso   1.000  H
  H39      1.0000 0.54570  0.15170  0.47940  Biso   1.000  H
  H40      1.0000 0.45430  0.65170  0.02060  Biso   1.000  H
  H41      1.0000 0.91600  0.00500  0.23600  Biso   1.000  H
  H42      1.0000 0.08400  0.50500  0.26400  Biso   1.000  H
  H43      1.0000 0.08400  0.99500  0.76400  Biso   1.000  H
  H44      1.0000 0.91600  0.49500  0.73600  Biso   1.000  H
  H45      1.0000 0.18900  0.44000  0.97800  Biso   1.000  H
  H46      1.0000 0.81100  0.94000  0.52200  Biso   1.000  H
  H47      1.0000 0.81100  0.56000  0.02200  Biso   1.000  H
  H48      1.0000 0.18900  0.06000  0.47800  Biso   1.000  H
  H49      1.0000 0.20100  0.46300  0.06800  Biso   1.000  H
  H50      1.0000 0.79900  0.96300  0.43200  Biso   1.000  H
  H51      1.0000 0.79900  0.53700  0.93200  Biso   1.000  H
  H52      1.0000 0.20100  0.03700  0.56800  Biso   1.000  H
  H53      1.0000 0.49300  0.62900  0.47800  Biso   1.000  H
  H54      1.0000 0.50700  0.12900  0.02200  Biso   1.000  H
  H55      1.0000 0.50700  0.37100  0.52200  Biso   1.000  H
  H56      1.0000 0.49300  0.87100  0.97800  Biso   1.000  H
