data_image0
_cell_length_a       20.93
_cell_length_b       12.246
_cell_length_c       14.933
_cell_angle_alpha    90
_cell_angle_beta     90
_cell_angle_gamma    90

_symmetry_space_group_name_H-M    "P 1"
_symmetry_int_tables_number       1

loop_
  _symmetry_equiv_pos_as_xyz
  'x, y, z'

loop_
  _atom_site_label
  _atom_site_occupancy
  _atom_site_fract_x
  _atom_site_fract_y
  _atom_site_fract_z
  _atom_site_thermal_displace_type
  _atom_site_B_iso_or_equiv
  _atom_site_type_symbol
  Cu1      1.0000 0.37420  0.61900  0.03934  Biso   1.000  Cu
  Cu2      1.0000 0.87420  0.11900  0.46066  Biso   1.000  Cu
  Cu3      1.0000 0.37420  0.38100  0.53934  Biso   1.000  Cu
  Cu4      1.0000 0.12580  0.11900  0.03934  Biso   1.000  Cu
  Cu5      1.0000 0.62580  0.38100  0.96066  Biso   1.000  Cu
  Cu6      1.0000 0.12580  0.88100  0.53934  Biso   1.000  Cu
  Cu7      1.0000 0.62580  0.61900  0.46066  Biso   1.000  Cu
  Cu8      1.0000 0.87420  0.88100  0.96066  Biso   1.000  Cu
  Cl1      1.0000 0.30832  0.33614  0.21397  Biso   1.000  Cl
  Cl2      1.0000 0.80832  0.83614  0.28603  Biso   1.000  Cl
  Cl3      1.0000 0.30832  0.66386  0.71397  Biso   1.000  Cl
  Cl4      1.0000 0.19168  0.83614  0.21397  Biso   1.000  Cl
  Cl5      1.0000 0.69168  0.66386  0.78603  Biso   1.000  Cl
  Cl6      1.0000 0.19168  0.16386  0.71397  Biso   1.000  Cl
  Cl7      1.0000 0.69168  0.33614  0.28603  Biso   1.000  Cl
  Cl8      1.0000 0.80832  0.16386  0.78603  Biso   1.000  Cl
  Cl9      1.0000 0.31780  0.08381  0.24278  Biso   1.000  Cl
  Cl10     1.0000 0.81780  0.58381  0.25722  Biso   1.000  Cl
  Cl11     1.0000 0.31780  0.91619  0.74278  Biso   1.000  Cl
  Cl12     1.0000 0.18220  0.58381  0.24278  Biso   1.000  Cl
  Cl13     1.0000 0.68220  0.91619  0.75722  Biso   1.000  Cl
  Cl14     1.0000 0.18220  0.41619  0.74278  Biso   1.000  Cl
  Cl15     1.0000 0.68220  0.08381  0.25722  Biso   1.000  Cl
  Cl16     1.0000 0.81780  0.41619  0.75722  Biso   1.000  Cl
  Cl17     1.0000 0.43658  0.95700  0.17179  Biso   1.000  Cl
  Cl18     1.0000 0.93658  0.45700  0.32821  Biso   1.000  Cl
  Cl19     1.0000 0.43658  0.04300  0.67179  Biso   1.000  Cl
  Cl20     1.0000 0.06342  0.45700  0.17179  Biso   1.000  Cl
  Cl21     1.0000 0.56342  0.04300  0.82821  Biso   1.000  Cl
  Cl22     1.0000 0.06342  0.54300  0.67179  Biso   1.000  Cl
  Cl23     1.0000 0.56342  0.95700  0.32821  Biso   1.000  Cl
  Cl24     1.0000 0.93658  0.54300  0.82821  Biso   1.000  Cl
  Cl25     1.0000 0.55087  0.08565  0.08832  Biso   1.000  Cl
  Cl26     1.0000 0.05087  0.58565  0.41168  Biso   1.000  Cl
  Cl27     1.0000 0.55087  0.91435  0.58832  Biso   1.000  Cl
  Cl28     1.0000 0.94913  0.58565  0.08832  Biso   1.000  Cl
  Cl29     1.0000 0.44913  0.91435  0.91168  Biso   1.000  Cl
  Cl30     1.0000 0.94913  0.41435  0.58832  Biso   1.000  Cl
  Cl31     1.0000 0.44913  0.08565  0.41168  Biso   1.000  Cl
  Cl32     1.0000 0.05087  0.41435  0.91168  Biso   1.000  Cl
  O1       1.0000 0.40836  0.46830  0.04304  Biso   1.000  O
  O2       1.0000 0.90836  0.96830  0.45696  Biso   1.000  O
  O3       1.0000 0.40836  0.53170  0.54304  Biso   1.000  O
  O4       1.0000 0.09164  0.96830  0.04304  Biso   1.000  O
  O5       1.0000 0.59164  0.53170  0.95696  Biso   1.000  O
  O6       1.0000 0.09164  0.03170  0.54304  Biso   1.000  O
  O7       1.0000 0.59164  0.46830  0.45696  Biso   1.000  O
  O8       1.0000 0.90836  0.03170  0.95696  Biso   1.000  O
  O9       1.0000 0.42266  0.51390  0.18430  Biso   1.000  O
  O10      1.0000 0.92266  0.01390  0.31570  Biso   1.000  O
  O11      1.0000 0.42266  0.48610  0.68430  Biso   1.000  O
  O12      1.0000 0.07734  0.01390  0.18430  Biso   1.000  O
  O13      1.0000 0.57734  0.48610  0.81570  Biso   1.000  O
  O14      1.0000 0.07734  0.98610  0.68430  Biso   1.000  O
  O15      1.0000 0.57734  0.51390  0.31570  Biso   1.000  O
  O16      1.0000 0.92266  0.98610  0.81570  Biso   1.000  O
  O17      1.0000 0.54118  0.32040  0.98663  Biso   1.000  O
  O18      1.0000 0.04118  0.82040  0.51337  Biso   1.000  O
  O19      1.0000 0.54118  0.67960  0.48663  Biso   1.000  O
  O20      1.0000 0.95882  0.82040  0.98663  Biso   1.000  O
  O21      1.0000 0.45882  0.67960  0.01337  Biso   1.000  O
  O22      1.0000 0.95882  0.17960  0.48663  Biso   1.000  O
  O23      1.0000 0.45882  0.32040  0.51337  Biso   1.000  O
  O24      1.0000 0.04118  0.17960  0.01337  Biso   1.000  O
  O25      1.0000 0.57598  0.37250  0.12010  Biso   1.000  O
  O26      1.0000 0.07598  0.87250  0.37990  Biso   1.000  O
  O27      1.0000 0.57598  0.62750  0.62010  Biso   1.000  O
  O28      1.0000 0.92402  0.87250  0.12010  Biso   1.000  O
  O29      1.0000 0.42402  0.62750  0.87990  Biso   1.000  O
  O30      1.0000 0.92402  0.12750  0.62010  Biso   1.000  O
  O31      1.0000 0.42402  0.37250  0.37990  Biso   1.000  O
  O32      1.0000 0.07598  0.12750  0.87990  Biso   1.000  O
  C1       1.0000 0.41960  0.44540  0.12430  Biso   1.000  C
  C2       1.0000 0.91960  0.94540  0.37570  Biso   1.000  C
  C3       1.0000 0.41960  0.55460  0.62430  Biso   1.000  C
  C4       1.0000 0.08040  0.94540  0.12430  Biso   1.000  C
  C5       1.0000 0.58040  0.55460  0.87570  Biso   1.000  C
  C6       1.0000 0.08040  0.05460  0.62430  Biso   1.000  C
  C7       1.0000 0.58040  0.44540  0.37570  Biso   1.000  C
  C8       1.0000 0.91960  0.05460  0.87570  Biso   1.000  C
  C9       1.0000 0.42693  0.32430  0.14240  Biso   1.000  C
  C10      1.0000 0.92693  0.82430  0.35760  Biso   1.000  C
  C11      1.0000 0.42693  0.67570  0.64240  Biso   1.000  C
  C12      1.0000 0.07307  0.82430  0.14240  Biso   1.000  C
  C13      1.0000 0.57307  0.67570  0.85760  Biso   1.000  C
  C14      1.0000 0.07307  0.17570  0.64240  Biso   1.000  C
  C15      1.0000 0.57307  0.32430  0.35760  Biso   1.000  C
  C16      1.0000 0.92693  0.17570  0.85760  Biso   1.000  C
  C17      1.0000 0.37660  0.26660  0.18190  Biso   1.000  C
  C18      1.0000 0.87660  0.76660  0.31810  Biso   1.000  C
  C19      1.0000 0.37660  0.73340  0.68190  Biso   1.000  C
  C20      1.0000 0.12340  0.76660  0.18190  Biso   1.000  C
  C21      1.0000 0.62340  0.73340  0.81810  Biso   1.000  C
  C22      1.0000 0.12340  0.23340  0.68190  Biso   1.000  C
  C23      1.0000 0.62340  0.26660  0.31810  Biso   1.000  C
  C24      1.0000 0.87660  0.23340  0.81810  Biso   1.000  C
  C25      1.0000 0.37961  0.15410  0.19280  Biso   1.000  C
  C26      1.0000 0.87961  0.65410  0.30720  Biso   1.000  C
  C27      1.0000 0.37961  0.84590  0.69280  Biso   1.000  C
  C28      1.0000 0.12039  0.65410  0.19280  Biso   1.000  C
  C29      1.0000 0.62039  0.84590  0.80720  Biso   1.000  C
  C30      1.0000 0.12039  0.34590  0.69280  Biso   1.000  C
  C31      1.0000 0.62039  0.15410  0.30720  Biso   1.000  C
  C32      1.0000 0.87961  0.34590  0.80720  Biso   1.000  C
  C33      1.0000 0.43330  0.09690  0.16290  Biso   1.000  C
  C34      1.0000 0.93330  0.59690  0.33710  Biso   1.000  C
  C35      1.0000 0.43330  0.90310  0.66290  Biso   1.000  C
  C36      1.0000 0.06670  0.59690  0.16290  Biso   1.000  C
  C37      1.0000 0.56670  0.90310  0.83710  Biso   1.000  C
  C38      1.0000 0.06670  0.40310  0.66290  Biso   1.000  C
  C39      1.0000 0.56670  0.09690  0.33710  Biso   1.000  C
  C40      1.0000 0.93330  0.40310  0.83710  Biso   1.000  C
  C41      1.0000 0.48386  0.15440  0.12480  Biso   1.000  C
  C42      1.0000 0.98386  0.65440  0.37520  Biso   1.000  C
  C43      1.0000 0.48386  0.84560  0.62480  Biso   1.000  C
  C44      1.0000 0.01614  0.65440  0.12480  Biso   1.000  C
  C45      1.0000 0.51614  0.84560  0.87520  Biso   1.000  C
  C46      1.0000 0.01614  0.34560  0.62480  Biso   1.000  C
  C47      1.0000 0.51614  0.15440  0.37520  Biso   1.000  C
  C48      1.0000 0.98386  0.34560  0.87520  Biso   1.000  C
  C49      1.0000 0.48079  0.26760  0.11420  Biso   1.000  C
  C50      1.0000 0.98079  0.76760  0.38580  Biso   1.000  C
  C51      1.0000 0.48079  0.73240  0.61420  Biso   1.000  C
  C52      1.0000 0.01921  0.76760  0.11420  Biso   1.000  C
  C53      1.0000 0.51921  0.73240  0.88580  Biso   1.000  C
  C54      1.0000 0.01921  0.23240  0.61420  Biso   1.000  C
  C55      1.0000 0.51921  0.26760  0.38580  Biso   1.000  C
  C56      1.0000 0.98079  0.23240  0.88580  Biso   1.000  C
  C57      1.0000 0.53693  0.32590  0.07090  Biso   1.000  C
  C58      1.0000 0.03693  0.82590  0.42910  Biso   1.000  C
  C59      1.0000 0.53693  0.67410  0.57090  Biso   1.000  C
  C60      1.0000 0.96307  0.82590  0.07090  Biso   1.000  C
  C61      1.0000 0.46307  0.67410  0.92910  Biso   1.000  C
  C62      1.0000 0.96307  0.17410  0.57090  Biso   1.000  C
  C63      1.0000 0.46307  0.32590  0.42910  Biso   1.000  C
  C64      1.0000 0.03693  0.17410  0.92910  Biso   1.000  C
  N1       1.0000 0.34057  0.76670  0.05570  Biso   1.000  N
  N2       1.0000 0.84057  0.26670  0.44430  Biso   1.000  N
  N3       1.0000 0.34057  0.23330  0.55570  Biso   1.000  N
  N4       1.0000 0.15943  0.26670  0.05570  Biso   1.000  N
  N5       1.0000 0.65943  0.23330  0.94430  Biso   1.000  N
  N6       1.0000 0.15943  0.73330  0.55570  Biso   1.000  N
  N7       1.0000 0.65943  0.76670  0.44430  Biso   1.000  N
  N8       1.0000 0.84057  0.73330  0.94430  Biso   1.000  N
  N9       1.0000 0.31264  0.95700  0.02900  Biso   1.000  N
  N10      1.0000 0.81264  0.45700  0.47100  Biso   1.000  N
  N11      1.0000 0.31264  0.04300  0.52900  Biso   1.000  N
  N12      1.0000 0.18736  0.45700  0.02900  Biso   1.000  N
  N13      1.0000 0.68736  0.04300  0.97100  Biso   1.000  N
  N14      1.0000 0.18736  0.54300  0.52900  Biso   1.000  N
  N15      1.0000 0.68736  0.95700  0.47100  Biso   1.000  N
  N16      1.0000 0.81264  0.54300  0.97100  Biso   1.000  N
  N17      1.0000 0.21155  0.05470  0.04020  Biso   1.000  N
  N18      1.0000 0.71155  0.55470  0.45980  Biso   1.000  N
  N19      1.0000 0.21155  0.94530  0.54020  Biso   1.000  N
  N20      1.0000 0.28845  0.55470  0.04020  Biso   1.000  N
  N21      1.0000 0.78845  0.94530  0.95980  Biso   1.000  N
  N22      1.0000 0.28845  0.44530  0.54020  Biso   1.000  N
  N23      1.0000 0.78845  0.05470  0.45980  Biso   1.000  N
  N24      1.0000 0.71155  0.44530  0.95980  Biso   1.000  N
  C65      1.0000 0.32360  0.85400  0.04440  Biso   1.000  C
  C66      1.0000 0.82360  0.35400  0.45560  Biso   1.000  C
  C67      1.0000 0.32360  0.14600  0.54440  Biso   1.000  C
  C68      1.0000 0.17640  0.35400  0.04440  Biso   1.000  C
  C69      1.0000 0.67640  0.14600  0.95560  Biso   1.000  C
  C70      1.0000 0.17640  0.64600  0.54440  Biso   1.000  C
  C71      1.0000 0.67640  0.85400  0.45560  Biso   1.000  C
  C72      1.0000 0.82360  0.64600  0.95560  Biso   1.000  C
  C73      1.0000 0.25700  0.00350  0.03750  Biso   1.000  C
  C74      1.0000 0.75700  0.50350  0.46250  Biso   1.000  C
  C75      1.0000 0.25700  0.99650  0.53750  Biso   1.000  C
  C76      1.0000 0.24300  0.50350  0.03750  Biso   1.000  C
  C77      1.0000 0.74300  0.99650  0.96250  Biso   1.000  C
  C78      1.0000 0.24300  0.49650  0.53750  Biso   1.000  C
  C79      1.0000 0.74300  0.00350  0.46250  Biso   1.000  C
  C80      1.0000 0.75700  0.49650  0.96250  Biso   1.000  C
  N25      1.0000 0.59518  0.60200  0.14380  Biso   1.000  N
  N26      1.0000 0.09518  0.10200  0.35620  Biso   1.000  N
  N27      1.0000 0.59518  0.39800  0.64380  Biso   1.000  N
  N28      1.0000 0.90482  0.10200  0.14380  Biso   1.000  N
  N29      1.0000 0.40482  0.39800  0.85620  Biso   1.000  N
  N30      1.0000 0.90482  0.89800  0.64380  Biso   1.000  N
  N31      1.0000 0.40482  0.60200  0.35620  Biso   1.000  N
  N32      1.0000 0.09518  0.89800  0.85620  Biso   1.000  N
  H1       1.0000 0.58560  0.58720  0.08630  Biso   1.000  H
  H2       1.0000 0.08560  0.08720  0.41370  Biso   1.000  H
  H3       1.0000 0.58560  0.41280  0.58630  Biso   1.000  H
  H4       1.0000 0.91440  0.08720  0.08630  Biso   1.000  H
  H5       1.0000 0.41440  0.41280  0.91370  Biso   1.000  H
  H6       1.0000 0.91440  0.91280  0.58630  Biso   1.000  H
  H7       1.0000 0.41440  0.58720  0.41370  Biso   1.000  H
  H8       1.0000 0.08560  0.91280  0.91370  Biso   1.000  H
  H9       1.0000 0.57920  0.54790  0.17780  Biso   1.000  H
  H10      1.0000 0.07920  0.04790  0.32220  Biso   1.000  H
  H11      1.0000 0.57920  0.45210  0.67780  Biso   1.000  H
  H12      1.0000 0.92080  0.04790  0.17780  Biso   1.000  H
  H13      1.0000 0.42080  0.45210  0.82220  Biso   1.000  H
  H14      1.0000 0.92080  0.95210  0.67780  Biso   1.000  H
  H15      1.0000 0.42080  0.54790  0.32220  Biso   1.000  H
  H16      1.0000 0.07920  0.95210  0.82220  Biso   1.000  H
  C81      1.0000 0.56450  0.70600  0.16960  Biso   1.000  C
  C82      1.0000 0.06450  0.20600  0.33040  Biso   1.000  C
  C83      1.0000 0.56450  0.29400  0.66960  Biso   1.000  C
  C84      1.0000 0.93550  0.20600  0.16960  Biso   1.000  C
  C85      1.0000 0.43550  0.29400  0.83040  Biso   1.000  C
  C86      1.0000 0.93550  0.79400  0.66960  Biso   1.000  C
  C87      1.0000 0.43550  0.70600  0.33040  Biso   1.000  C
  C88      1.0000 0.06450  0.79400  0.83040  Biso   1.000  C
  H17      1.0000 0.57050  0.71830  0.23320  Biso   1.000  H
  H18      1.0000 0.07050  0.21830  0.26680  Biso   1.000  H
  H19      1.0000 0.57050  0.28170  0.73320  Biso   1.000  H
  H20      1.0000 0.92950  0.21830  0.23320  Biso   1.000  H
  H21      1.0000 0.42950  0.28170  0.76680  Biso   1.000  H
  H22      1.0000 0.92950  0.78170  0.73320  Biso   1.000  H
  H23      1.0000 0.42950  0.71830  0.26680  Biso   1.000  H
  H24      1.0000 0.07050  0.78170  0.76680  Biso   1.000  H
  H25      1.0000 0.51900  0.70160  0.15800  Biso   1.000  H
  H26      1.0000 0.01900  0.20160  0.34200  Biso   1.000  H
  H27      1.0000 0.51900  0.29840  0.65800  Biso   1.000  H
  H28      1.0000 0.98100  0.20160  0.15800  Biso   1.000  H
  H29      1.0000 0.48100  0.29840  0.84200  Biso   1.000  H
  H30      1.0000 0.98100  0.79840  0.65800  Biso   1.000  H
  H31      1.0000 0.48100  0.70160  0.34200  Biso   1.000  H
  H32      1.0000 0.01900  0.79840  0.84200  Biso   1.000  H
  C89      1.0000 0.59270  0.80030  0.11750  Biso   1.000  C
  C90      1.0000 0.09270  0.30030  0.38250  Biso   1.000  C
  C91      1.0000 0.59270  0.19970  0.61750  Biso   1.000  C
  C92      1.0000 0.90730  0.30030  0.11750  Biso   1.000  C
  C93      1.0000 0.40730  0.19970  0.88250  Biso   1.000  C
  C94      1.0000 0.90730  0.69970  0.61750  Biso   1.000  C
  C95      1.0000 0.40730  0.80030  0.38250  Biso   1.000  C
  C96      1.0000 0.09270  0.69970  0.88250  Biso   1.000  C
  H33      1.0000 0.58240  0.79190  0.05460  Biso   1.000  H
  H34      1.0000 0.08240  0.29190  0.44540  Biso   1.000  H
  H35      1.0000 0.58240  0.20810  0.55460  Biso   1.000  H
  H36      1.0000 0.91760  0.29190  0.05460  Biso   1.000  H
  H37      1.0000 0.41760  0.20810  0.94540  Biso   1.000  H
  H38      1.0000 0.91760  0.70810  0.55460  Biso   1.000  H
  H39      1.0000 0.41760  0.79190  0.44540  Biso   1.000  H
  H40      1.0000 0.08240  0.70810  0.94540  Biso   1.000  H
  H41      1.0000 0.57380  0.86810  0.13820  Biso   1.000  H
  H42      1.0000 0.07380  0.36810  0.36180  Biso   1.000  H
  H43      1.0000 0.57380  0.13190  0.63820  Biso   1.000  H
  H44      1.0000 0.92620  0.36810  0.13820  Biso   1.000  H
  H45      1.0000 0.42620  0.13190  0.86180  Biso   1.000  H
  H46      1.0000 0.92620  0.63190  0.63820  Biso   1.000  H
  H47      1.0000 0.42620  0.86810  0.36180  Biso   1.000  H
  H48      1.0000 0.07380  0.63190  0.86180  Biso   1.000  H
  C97      1.0000 0.66370  0.80580  0.12850  Biso   1.000  C
  C98      1.0000 0.16370  0.30580  0.37150  Biso   1.000  C
  C99      1.0000 0.66370  0.19420  0.62850  Biso   1.000  C
  C100     1.0000 0.83630  0.30580  0.12850  Biso   1.000  C
  C101     1.0000 0.33630  0.19420  0.87150  Biso   1.000  C
  C102     1.0000 0.83630  0.69420  0.62850  Biso   1.000  C
  C103     1.0000 0.33630  0.80580  0.37150  Biso   1.000  C
  C104     1.0000 0.16370  0.69420  0.87150  Biso   1.000  C
  H49      1.0000 0.67400  0.82230  0.19030  Biso   1.000  H
  H50      1.0000 0.17400  0.32230  0.30970  Biso   1.000  H
  H51      1.0000 0.67400  0.17770  0.69030  Biso   1.000  H
  H52      1.0000 0.82600  0.32230  0.19030  Biso   1.000  H
  H53      1.0000 0.32600  0.17770  0.80970  Biso   1.000  H
  H54      1.0000 0.82600  0.67770  0.69030  Biso   1.000  H
  H55      1.0000 0.32600  0.82230  0.30970  Biso   1.000  H
  H56      1.0000 0.17400  0.67770  0.80970  Biso   1.000  H
  H57      1.0000 0.68070  0.86400  0.09130  Biso   1.000  H
  H58      1.0000 0.18070  0.36400  0.40870  Biso   1.000  H
  H59      1.0000 0.68070  0.13600  0.59130  Biso   1.000  H
  H60      1.0000 0.81930  0.36400  0.09130  Biso   1.000  H
  H61      1.0000 0.31930  0.13600  0.90870  Biso   1.000  H
  H62      1.0000 0.81930  0.63600  0.59130  Biso   1.000  H
  H63      1.0000 0.31930  0.86400  0.40870  Biso   1.000  H
  H64      1.0000 0.18070  0.63600  0.90870  Biso   1.000  H
  C105     1.0000 0.69420  0.69820  0.10200  Biso   1.000  C
  C106     1.0000 0.19420  0.19820  0.39800  Biso   1.000  C
  C107     1.0000 0.69420  0.30180  0.60200  Biso   1.000  C
  C108     1.0000 0.80580  0.19820  0.10200  Biso   1.000  C
  C109     1.0000 0.30580  0.30180  0.89800  Biso   1.000  C
  C110     1.0000 0.80580  0.80180  0.60200  Biso   1.000  C
  C111     1.0000 0.30580  0.69820  0.39800  Biso   1.000  C
  C112     1.0000 0.19420  0.80180  0.89800  Biso   1.000  C
  H65      1.0000 0.68790  0.68580  0.03850  Biso   1.000  H
  H66      1.0000 0.18790  0.18580  0.46150  Biso   1.000  H
  H67      1.0000 0.68790  0.31420  0.53850  Biso   1.000  H
  H68      1.0000 0.81210  0.18580  0.03850  Biso   1.000  H
  H69      1.0000 0.31210  0.31420  0.96150  Biso   1.000  H
  H70      1.0000 0.81210  0.81420  0.53850  Biso   1.000  H
  H71      1.0000 0.31210  0.68580  0.46150  Biso   1.000  H
  H72      1.0000 0.18790  0.81420  0.96150  Biso   1.000  H
  H73      1.0000 0.73980  0.70140  0.11330  Biso   1.000  H
  H74      1.0000 0.23980  0.20140  0.38670  Biso   1.000  H
  H75      1.0000 0.73980  0.29860  0.61330  Biso   1.000  H
  H76      1.0000 0.76020  0.20140  0.11330  Biso   1.000  H
  H77      1.0000 0.26020  0.29860  0.88670  Biso   1.000  H
  H78      1.0000 0.76020  0.79860  0.61330  Biso   1.000  H
  H79      1.0000 0.26020  0.70140  0.38670  Biso   1.000  H
  H80      1.0000 0.23980  0.79860  0.88670  Biso   1.000  H
  C113     1.0000 0.66550  0.60490  0.15430  Biso   1.000  C
  C114     1.0000 0.16550  0.10490  0.34570  Biso   1.000  C
  C115     1.0000 0.66550  0.39510  0.65430  Biso   1.000  C
  C116     1.0000 0.83450  0.10490  0.15430  Biso   1.000  C
  C117     1.0000 0.33450  0.39510  0.84570  Biso   1.000  C
  C118     1.0000 0.83450  0.89510  0.65430  Biso   1.000  C
  C119     1.0000 0.33450  0.60490  0.34570  Biso   1.000  C
  C120     1.0000 0.16550  0.89510  0.84570  Biso   1.000  C
  H81      1.0000 0.68350  0.53650  0.13340  Biso   1.000  H
  H82      1.0000 0.18350  0.03650  0.36660  Biso   1.000  H
  H83      1.0000 0.68350  0.46350  0.63340  Biso   1.000  H
  H84      1.0000 0.81650  0.03650  0.13340  Biso   1.000  H
  H85      1.0000 0.31650  0.46350  0.86660  Biso   1.000  H
  H86      1.0000 0.81650  0.96350  0.63340  Biso   1.000  H
  H87      1.0000 0.31650  0.53650  0.36660  Biso   1.000  H
  H88      1.0000 0.18350  0.96350  0.86660  Biso   1.000  H
  H89      1.0000 0.67610  0.61290  0.21710  Biso   1.000  H
  H90      1.0000 0.17610  0.11290  0.28290  Biso   1.000  H
  H91      1.0000 0.67610  0.38710  0.71710  Biso   1.000  H
  H92      1.0000 0.82390  0.11290  0.21710  Biso   1.000  H
  H93      1.0000 0.32390  0.38710  0.78290  Biso   1.000  H
  H94      1.0000 0.82390  0.88710  0.71710  Biso   1.000  H
  H95      1.0000 0.32390  0.61290  0.28290  Biso   1.000  H
  H96      1.0000 0.17610  0.88710  0.78290  Biso   1.000  H
