data_image0
_cell_length_a       12.315
_cell_length_b       11.963
_cell_length_c       13.074
_cell_angle_alpha    90
_cell_angle_beta     114.167
_cell_angle_gamma    90

_symmetry_space_group_name_H-M    "P 1"
_symmetry_int_tables_number       1

loop_
  _symmetry_equiv_pos_as_xyz
  'x, y, z'

loop_
  _atom_site_label
  _atom_site_occupancy
  _atom_site_fract_x
  _atom_site_fract_y
  _atom_site_fract_z
  _atom_site_thermal_displace_type
  _atom_site_B_iso_or_equiv
  _atom_site_type_symbol
  Cu1      1.0000 0.06751  0.70162  0.17206  Biso   1.000  Cu
  Cu2      1.0000 0.06751  0.79838  0.67206  Biso   1.000  Cu
  Cu3      1.0000 0.93249  0.29838  0.82794  Biso   1.000  Cu
  Cu4      1.0000 0.93249  0.20162  0.32794  Biso   1.000  Cu
  Cl1      1.0000 0.35413  0.71359  0.54792  Biso   1.000  Cl
  Cl2      1.0000 0.35413  0.78641  0.04792  Biso   1.000  Cl
  Cl3      1.0000 0.64587  0.28641  0.45208  Biso   1.000  Cl
  Cl4      1.0000 0.64587  0.21359  0.95208  Biso   1.000  Cl
  Cl5      1.0000 0.56649  0.85678  0.70618  Biso   1.000  Cl
  Cl6      1.0000 0.56649  0.64322  0.20618  Biso   1.000  Cl
  Cl7      1.0000 0.43351  0.14322  0.29382  Biso   1.000  Cl
  Cl8      1.0000 0.43351  0.35678  0.79382  Biso   1.000  Cl
  Cl9      1.0000 0.55952  0.11422  0.68054  Biso   1.000  Cl
  Cl10     1.0000 0.55952  0.38578  0.18054  Biso   1.000  Cl
  Cl11     1.0000 0.44048  0.88578  0.31946  Biso   1.000  Cl
  Cl12     1.0000 0.44048  0.61422  0.81946  Biso   1.000  Cl
  Cl13     1.0000 0.32603  0.22990  0.51441  Biso   1.000  Cl
  Cl14     1.0000 0.32603  0.27010  0.01441  Biso   1.000  Cl
  Cl15     1.0000 0.67397  0.77010  0.48559  Biso   1.000  Cl
  Cl16     1.0000 0.67397  0.72990  0.98559  Biso   1.000  Cl
  O1       1.0000 0.17083  0.79470  0.29721  Biso   1.000  O
  O2       1.0000 0.17083  0.70530  0.79721  Biso   1.000  O
  O3       1.0000 0.82917  0.20530  0.70279  Biso   1.000  O
  O4       1.0000 0.82917  0.29470  0.20279  Biso   1.000  O
  O5       1.0000 0.05360  0.82724  0.38600  Biso   1.000  O
  O6       1.0000 0.05360  0.67276  0.88600  Biso   1.000  O
  O7       1.0000 0.94640  0.17276  0.61400  Biso   1.000  O
  O8       1.0000 0.94640  0.32724  0.11400  Biso   1.000  O
  O9       1.0000 0.10420  0.11350  0.28810  Biso   1.000  O
  O10      1.0000 0.10420  0.38650  0.78810  Biso   1.000  O
  O11      1.0000 0.89580  0.88650  0.71190  Biso   1.000  O
  O12      1.0000 0.89580  0.61350  0.21190  Biso   1.000  O
  O13      1.0000 0.05368  0.09916  0.43033  Biso   1.000  O
  O14      1.0000 0.05368  0.40084  0.93033  Biso   1.000  O
  O15      1.0000 0.94632  0.90084  0.56967  Biso   1.000  O
  O16      1.0000 0.94632  0.59916  0.06967  Biso   1.000  O
  C1       1.0000 0.24730  0.90750  0.45690  Biso   1.000  C
  C2       1.0000 0.24730  0.59250  0.95690  Biso   1.000  C
  C3       1.0000 0.75270  0.09250  0.54310  Biso   1.000  C
  C4       1.0000 0.75270  0.40750  0.04310  Biso   1.000  C
  C5       1.0000 0.34830  0.85750  0.53540  Biso   1.000  C
  C6       1.0000 0.34830  0.64250  0.03540  Biso   1.000  C
  C7       1.0000 0.65170  0.14250  0.46460  Biso   1.000  C
  C8       1.0000 0.65170  0.35750  0.96460  Biso   1.000  C
  C9       1.0000 0.44470  0.92000  0.60570  Biso   1.000  C
  C10      1.0000 0.44470  0.58000  0.10570  Biso   1.000  C
  C11      1.0000 0.55530  0.08000  0.39430  Biso   1.000  C
  C12      1.0000 0.55530  0.42000  0.89430  Biso   1.000  C
  C13      1.0000 0.43950  0.03510  0.59630  Biso   1.000  C
  C14      1.0000 0.43950  0.46490  0.09630  Biso   1.000  C
  C15      1.0000 0.56050  0.96490  0.40370  Biso   1.000  C
  C16      1.0000 0.56050  0.53510  0.90370  Biso   1.000  C
  C17      1.0000 0.33690  0.08640  0.52220  Biso   1.000  C
  C18      1.0000 0.33690  0.41360  0.02220  Biso   1.000  C
  C19      1.0000 0.66310  0.91360  0.47780  Biso   1.000  C
  C20      1.0000 0.66310  0.58640  0.97780  Biso   1.000  C
  C21      1.0000 0.23860  0.02330  0.45400  Biso   1.000  C
  C22      1.0000 0.23860  0.47670  0.95400  Biso   1.000  C
  C23      1.0000 0.76140  0.97670  0.54600  Biso   1.000  C
  C24      1.0000 0.76140  0.52330  0.04600  Biso   1.000  C
  C25      1.0000 0.14650  0.83590  0.37420  Biso   1.000  C
  C26      1.0000 0.14650  0.66410  0.87420  Biso   1.000  C
  C27      1.0000 0.85350  0.16410  0.62580  Biso   1.000  C
  C28      1.0000 0.85350  0.33590  0.12580  Biso   1.000  C
  C29      1.0000 0.12420  0.08280  0.38250  Biso   1.000  C
  C30      1.0000 0.12420  0.41720  0.88250  Biso   1.000  C
  C31      1.0000 0.87580  0.91720  0.61750  Biso   1.000  C
  C32      1.0000 0.87580  0.58280  0.11750  Biso   1.000  C
  N1       1.0000 0.18630  0.57970  0.21790  Biso   1.000  N
  N2       1.0000 0.18630  0.92030  0.71790  Biso   1.000  N
  N3       1.0000 0.81370  0.42030  0.78210  Biso   1.000  N
  N4       1.0000 0.81370  0.07970  0.28210  Biso   1.000  N
  N5       1.0000 0.15930  0.47500  0.17940  Biso   1.000  N
  N6       1.0000 0.15930  0.02500  0.67940  Biso   1.000  N
  N7       1.0000 0.84070  0.52500  0.82060  Biso   1.000  N
  N8       1.0000 0.84070  0.97500  0.32060  Biso   1.000  N
  H1       1.0000 0.09220  0.45530  0.12750  Biso   1.000  H
  H2       1.0000 0.09220  0.04470  0.62750  Biso   1.000  H
  H3       1.0000 0.90780  0.54470  0.87250  Biso   1.000  H
  H4       1.0000 0.90780  0.95530  0.37250  Biso   1.000  H
  C33      1.0000 0.24900  0.40560  0.23140  Biso   1.000  C
  C34      1.0000 0.24900  0.09440  0.73140  Biso   1.000  C
  C35      1.0000 0.75100  0.59440  0.76860  Biso   1.000  C
  C36      1.0000 0.75100  0.90560  0.26860  Biso   1.000  C
  H5       1.0000 0.24970  0.32930  0.21850  Biso   1.000  H
  H6       1.0000 0.24970  0.17070  0.71850  Biso   1.000  H
  H7       1.0000 0.75030  0.67070  0.78150  Biso   1.000  H
  H8       1.0000 0.75030  0.82930  0.28150  Biso   1.000  H
  C37      1.0000 0.33890  0.46590  0.30650  Biso   1.000  C
  C38      1.0000 0.33890  0.03410  0.80650  Biso   1.000  C
  C39      1.0000 0.66110  0.53410  0.69350  Biso   1.000  C
  C40      1.0000 0.66110  0.96590  0.19350  Biso   1.000  C
  H9       1.0000 0.41350  0.44010  0.35510  Biso   1.000  H
  H10      1.0000 0.41350  0.05990  0.85510  Biso   1.000  H
  H11      1.0000 0.58650  0.55990  0.64490  Biso   1.000  H
  H12      1.0000 0.58650  0.94010  0.14490  Biso   1.000  H
  C41      1.0000 0.29630  0.57390  0.29540  Biso   1.000  C
  C42      1.0000 0.29630  0.92610  0.79540  Biso   1.000  C
  C43      1.0000 0.70370  0.42610  0.70460  Biso   1.000  C
  C44      1.0000 0.70370  0.07390  0.20460  Biso   1.000  C
  H13      1.0000 0.33930  0.63450  0.33700  Biso   1.000  H
  H14      1.0000 0.33930  0.86550  0.83700  Biso   1.000  H
  H15      1.0000 0.66070  0.36550  0.66300  Biso   1.000  H
  H16      1.0000 0.66070  0.13450  0.16300  Biso   1.000  H
  N9       1.0000 0.97820  0.82900  0.08180  Biso   1.000  N
  N10      1.0000 0.97820  0.67100  0.58180  Biso   1.000  N
  N11      1.0000 0.02180  0.17100  0.91820  Biso   1.000  N
  N12      1.0000 0.02180  0.32900  0.41820  Biso   1.000  N
  N13      1.0000 0.93760  0.83500  0.96920  Biso   1.000  N
  N14      1.0000 0.93760  0.66500  0.46920  Biso   1.000  N
  N15      1.0000 0.06240  0.16500  0.03080  Biso   1.000  N
  N16      1.0000 0.06240  0.33500  0.53080  Biso   1.000  N
  H17      1.0000 0.95570  0.78870  0.92830  Biso   1.000  H
  H18      1.0000 0.95570  0.71130  0.42830  Biso   1.000  H
  H19      1.0000 0.04430  0.21130  0.07170  Biso   1.000  H
  H20      1.0000 0.04430  0.28870  0.57170  Biso   1.000  H
  C45      1.0000 0.92840  0.91370  0.11100  Biso   1.000  C
  C46      1.0000 0.92840  0.58630  0.61100  Biso   1.000  C
  C47      1.0000 0.07160  0.08630  0.88900  Biso   1.000  C
  C48      1.0000 0.07160  0.41370  0.38900  Biso   1.000  C
  H21      1.0000 0.94020  0.93040  0.18430  Biso   1.000  H
  H22      1.0000 0.94020  0.56960  0.68430  Biso   1.000  H
  H23      1.0000 0.05980  0.06960  0.81570  Biso   1.000  H
  H24      1.0000 0.05980  0.43040  0.31570  Biso   1.000  H
  C49      1.0000 0.85670  0.97400  0.01830  Biso   1.000  C
  C50      1.0000 0.85670  0.52600  0.51830  Biso   1.000  C
  C51      1.0000 0.14330  0.02600  0.98170  Biso   1.000  C
  C52      1.0000 0.14330  0.47400  0.48170  Biso   1.000  C
  H25      1.0000 0.81180  0.03690  0.01690  Biso   1.000  H
  H26      1.0000 0.81180  0.46310  0.51690  Biso   1.000  H
  H27      1.0000 0.18820  0.96310  0.98310  Biso   1.000  H
  H28      1.0000 0.18820  0.53690  0.48310  Biso   1.000  H
  C53      1.0000 0.86510  0.92290  0.92970  Biso   1.000  C
  C54      1.0000 0.86510  0.57710  0.42970  Biso   1.000  C
  C55      1.0000 0.13490  0.07710  0.07030  Biso   1.000  C
  C56      1.0000 0.13490  0.42290  0.57030  Biso   1.000  C
  H29      1.0000 0.82740  0.94470  0.85510  Biso   1.000  H
  H30      1.0000 0.82740  0.55530  0.35510  Biso   1.000  H
  H31      1.0000 0.17260  0.05530  0.14490  Biso   1.000  H
  H32      1.0000 0.17260  0.44470  0.64490  Biso   1.000  H
