data_image0
_cell_length_a       11.7804
_cell_length_b       11.791
_cell_length_c       22.6857
_cell_angle_alpha    90
_cell_angle_beta     94.764
_cell_angle_gamma    90

_symmetry_space_group_name_H-M    "P 1"
_symmetry_int_tables_number       1

loop_
  _symmetry_equiv_pos_as_xyz
  'x, y, z'

loop_
  _atom_site_label
  _atom_site_occupancy
  _atom_site_fract_x
  _atom_site_fract_y
  _atom_site_fract_z
  _atom_site_thermal_displace_type
  _atom_site_B_iso_or_equiv
  _atom_site_type_symbol
  Cu1      1.0000 0.88717  0.82950  0.38031  Biso   1.000  Cu
  Cu2      1.0000 0.11283  0.32950  0.11969  Biso   1.000  Cu
  Cu3      1.0000 0.11283  0.17050  0.61969  Biso   1.000  Cu
  Cu4      1.0000 0.88717  0.67050  0.88031  Biso   1.000  Cu
  N1       1.0000 0.99180  0.77920  0.44448  Biso   1.000  N
  N2       1.0000 0.00820  0.27920  0.05552  Biso   1.000  N
  N3       1.0000 0.00820  0.22080  0.55552  Biso   1.000  N
  N4       1.0000 0.99180  0.72080  0.94448  Biso   1.000  N
  O1       1.0000 0.94800  0.97810  0.37812  Biso   1.000  O
  O2       1.0000 0.05200  0.47810  0.12188  Biso   1.000  O
  O3       1.0000 0.05200  0.02190  0.62188  Biso   1.000  O
  O4       1.0000 0.94800  0.52190  0.87812  Biso   1.000  O
  O5       1.0000 0.74280  0.89010  0.33970  Biso   1.000  O
  O6       1.0000 0.25720  0.39010  0.16030  Biso   1.000  O
  O7       1.0000 0.25720  0.10990  0.66030  Biso   1.000  O
  O8       1.0000 0.74280  0.60990  0.83970  Biso   1.000  O
  N5       1.0000 0.81940  0.66860  0.38555  Biso   1.000  N
  N6       1.0000 0.18060  0.16860  0.11445  Biso   1.000  N
  N7       1.0000 0.18060  0.33140  0.61445  Biso   1.000  N
  N8       1.0000 0.81940  0.83140  0.88555  Biso   1.000  N
  O9       1.0000 0.91950  0.80000  0.28237  Biso   1.000  O
  O10      1.0000 0.08050  0.30000  0.21763  Biso   1.000  O
  O11      1.0000 0.08050  0.20000  0.71763  Biso   1.000  O
  O12      1.0000 0.91950  0.70000  0.78237  Biso   1.000  O
  C1       1.0000 0.07130  0.84030  0.47098  Biso   1.000  C
  C2       1.0000 0.92870  0.34030  0.02902  Biso   1.000  C
  C3       1.0000 0.92870  0.15970  0.52902  Biso   1.000  C
  C4       1.0000 0.07130  0.65970  0.97098  Biso   1.000  C
  C5       1.0000 0.96850  0.66540  0.46702  Biso   1.000  C
  C6       1.0000 0.03150  0.16540  0.03298  Biso   1.000  C
  C7       1.0000 0.03150  0.33460  0.53298  Biso   1.000  C
  C8       1.0000 0.96850  0.83460  0.96702  Biso   1.000  C
  C9       1.0000 0.04020  0.01630  0.40811  Biso   1.000  C
  C10      1.0000 0.95980  0.51630  0.09189  Biso   1.000  C
  C11      1.0000 0.95980  0.98370  0.59189  Biso   1.000  C
  C12      1.0000 0.04020  0.48370  0.90811  Biso   1.000  C
  Na1      1.0000 0.83324  0.05936  0.30061  Biso   1.000  Na
  Na2      1.0000 0.16676  0.55936  0.19939  Biso   1.000  Na
  Na3      1.0000 0.16676  0.94064  0.69939  Biso   1.000  Na
  Na4      1.0000 0.83324  0.44064  0.80061  Biso   1.000  Na
  Cu5      1.0000 0.71875  0.81283  0.26158  Biso   1.000  Cu
  Cu6      1.0000 0.28125  0.31283  0.23842  Biso   1.000  Cu
  Cu7      1.0000 0.28125  0.18717  0.73842  Biso   1.000  Cu
  Cu8      1.0000 0.71875  0.68717  0.76158  Biso   1.000  Cu
  C13      1.0000 0.65390  0.86920  0.37334  Biso   1.000  C
  C14      1.0000 0.34610  0.36920  0.12666  Biso   1.000  C
  C15      1.0000 0.34610  0.13080  0.62666  Biso   1.000  C
  C16      1.0000 0.65390  0.63080  0.87334  Biso   1.000  C
  C17      1.0000 0.69620  0.66170  0.36688  Biso   1.000  C
  C18      1.0000 0.30380  0.16170  0.13312  Biso   1.000  C
  C19      1.0000 0.30380  0.33830  0.63312  Biso   1.000  C
  C20      1.0000 0.69620  0.83830  0.86688  Biso   1.000  C
  C21      1.0000 0.87180  0.58430  0.34705  Biso   1.000  C
  C22      1.0000 0.12820  0.08430  0.15295  Biso   1.000  C
  C23      1.0000 0.12820  0.41570  0.65295  Biso   1.000  C
  C24      1.0000 0.87180  0.91570  0.84705  Biso   1.000  C
  C25      1.0000 0.84430  0.64000  0.44878  Biso   1.000  C
  C26      1.0000 0.15570  0.14000  0.05122  Biso   1.000  C
  C27      1.0000 0.15570  0.36000  0.55122  Biso   1.000  C
  C28      1.0000 0.84430  0.86000  0.94878  Biso   1.000  C
  Cl1      1.0000 0.02672  0.79650  0.25560  Biso   1.000  Cl
  Cl2      1.0000 0.97328  0.29650  0.24440  Biso   1.000  Cl
  Cl3      1.0000 0.97328  0.20350  0.74440  Biso   1.000  Cl
  Cl4      1.0000 0.02672  0.70350  0.75560  Biso   1.000  Cl
  H1       1.0000 0.11140  0.80940  0.50420  Biso   1.000  H
  H2       1.0000 0.88860  0.30940  0.99580  Biso   1.000  H
  H3       1.0000 0.88860  0.19060  0.49580  Biso   1.000  H
  H4       1.0000 0.11140  0.69060  0.00420  Biso   1.000  H
  C29      1.0000 0.10290  0.95220  0.45333  Biso   1.000  C
  C30      1.0000 0.89710  0.45220  0.04667  Biso   1.000  C
  C31      1.0000 0.89710  0.04780  0.54667  Biso   1.000  C
  C32      1.0000 0.10290  0.54780  0.95333  Biso   1.000  C
  H5       1.0000 0.98250  0.66350  0.50980  Biso   1.000  H
  H6       1.0000 0.01750  0.16350  0.99020  Biso   1.000  H
  H7       1.0000 0.01750  0.33650  0.49020  Biso   1.000  H
  H8       1.0000 0.98250  0.83650  0.00980  Biso   1.000  H
  H9       1.0000 0.01720  0.60970  0.45030  Biso   1.000  H
  H10      1.0000 0.98280  0.10970  0.04970  Biso   1.000  H
  H11      1.0000 0.98280  0.39030  0.54970  Biso   1.000  H
  H12      1.0000 0.01720  0.89030  0.95030  Biso   1.000  H
  C33      1.0000 0.07870  0.12550  0.39667  Biso   1.000  C
  C34      1.0000 0.92130  0.62550  0.10333  Biso   1.000  C
  C35      1.0000 0.92130  0.87450  0.60333  Biso   1.000  C
  C36      1.0000 0.07870  0.37450  0.89667  Biso   1.000  C
  O13      1.0000 0.73870  0.95390  0.22247  Biso   1.000  O
  O14      1.0000 0.26130  0.45390  0.27753  Biso   1.000  O
  O15      1.0000 0.26130  0.04610  0.77753  Biso   1.000  O
  O16      1.0000 0.73870  0.54610  0.72247  Biso   1.000  O
  O17      1.0000 0.72090  0.20480  0.33930  Biso   1.000  O
  O18      1.0000 0.27910  0.70480  0.16070  Biso   1.000  O
  O19      1.0000 0.27910  0.79520  0.66070  Biso   1.000  O
  O20      1.0000 0.72090  0.29520  0.83930  Biso   1.000  O
  O21      1.0000 0.67710  0.19960  0.24990  Biso   1.000  O
  O22      1.0000 0.32290  0.69960  0.25010  Biso   1.000  O
  O23      1.0000 0.32290  0.80040  0.75010  Biso   1.000  O
  O24      1.0000 0.67710  0.30040  0.74990  Biso   1.000  O
  O25      1.0000 0.04300  0.68110  0.24488  Biso   1.000  O
  O26      1.0000 0.95700  0.18110  0.25512  Biso   1.000  O
  O27      1.0000 0.95700  0.31890  0.75512  Biso   1.000  O
  O28      1.0000 0.04300  0.81890  0.74488  Biso   1.000  O
  N9       1.0000 0.63130  0.74510  0.19514  Biso   1.000  N
  N10      1.0000 0.36870  0.24510  0.30486  Biso   1.000  N
  N11      1.0000 0.36870  0.25490  0.80486  Biso   1.000  N
  N12      1.0000 0.63130  0.75490  0.69514  Biso   1.000  N
  N13      1.0000 0.69620  0.65780  0.30157  Biso   1.000  N
  N14      1.0000 0.30380  0.15780  0.19843  Biso   1.000  N
  N15      1.0000 0.30380  0.34220  0.69843  Biso   1.000  N
  N16      1.0000 0.69620  0.84220  0.80157  Biso   1.000  N
  C37      1.0000 0.62770  0.75710  0.38775  Biso   1.000  C
  C38      1.0000 0.37230  0.25710  0.11225  Biso   1.000  C
  C39      1.0000 0.37230  0.24290  0.61225  Biso   1.000  C
  C40      1.0000 0.62770  0.74290  0.88775  Biso   1.000  C
  C41      1.0000 0.59070  0.95900  0.39336  Biso   1.000  C
  C42      1.0000 0.40930  0.45900  0.10664  Biso   1.000  C
  C43      1.0000 0.40930  0.04100  0.60664  Biso   1.000  C
  C44      1.0000 0.59070  0.54100  0.89336  Biso   1.000  C
  H13      1.0000 0.66610  0.59000  0.38090  Biso   1.000  H
  H14      1.0000 0.33390  0.09000  0.11910  Biso   1.000  H
  H15      1.0000 0.33390  0.41000  0.61910  Biso   1.000  H
  H16      1.0000 0.66610  0.91000  0.88090  Biso   1.000  H
  C45      1.0000 0.79040  0.57830  0.29110  Biso   1.000  C
  C46      1.0000 0.20960  0.07830  0.20890  Biso   1.000  C
  C47      1.0000 0.20960  0.42170  0.70890  Biso   1.000  C
  C48      1.0000 0.79040  0.92170  0.79110  Biso   1.000  C
  H17      1.0000 0.87860  0.51090  0.36630  Biso   1.000  H
  H18      1.0000 0.12140  0.01090  0.13370  Biso   1.000  H
  H19      1.0000 0.12140  0.48910  0.63370  Biso   1.000  H
  H20      1.0000 0.87860  0.98910  0.86630  Biso   1.000  H
  H21      1.0000 0.94680  0.60910  0.33780  Biso   1.000  H
  H22      1.0000 0.05320  0.10910  0.16220  Biso   1.000  H
  H23      1.0000 0.05320  0.39090  0.66220  Biso   1.000  H
  H24      1.0000 0.94680  0.89090  0.83780  Biso   1.000  H
  H25      1.0000 0.82890  0.56030  0.45510  Biso   1.000  H
  H26      1.0000 0.17110  0.06030  0.04490  Biso   1.000  H
  H27      1.0000 0.17110  0.43970  0.54490  Biso   1.000  H
  H28      1.0000 0.82890  0.93970  0.95510  Biso   1.000  H
  H29      1.0000 0.79600  0.68420  0.47260  Biso   1.000  H
  H30      1.0000 0.20400  0.18420  0.02740  Biso   1.000  H
  H31      1.0000 0.20400  0.31580  0.52740  Biso   1.000  H
  H32      1.0000 0.79600  0.81580  0.97260  Biso   1.000  H
  O29      1.0000 0.11940  0.84590  0.29140  Biso   1.000  O
  O30      1.0000 0.88060  0.34590  0.20860  Biso   1.000  O
  O31      1.0000 0.88060  0.15410  0.70860  Biso   1.000  O
  O32      1.0000 0.11940  0.65410  0.79140  Biso   1.000  O
  O33      1.0000 0.02010  0.86360  0.20280  Biso   1.000  O
  O34      1.0000 0.97990  0.36360  0.29720  Biso   1.000  O
  O35      1.0000 0.97990  0.13640  0.79720  Biso   1.000  O
  O36      1.0000 0.02010  0.63640  0.70280  Biso   1.000  O
  C49      1.0000 0.19980  0.00180  0.48406  Biso   1.000  C
  C50      1.0000 0.80020  0.50180  0.01594  Biso   1.000  C
  C51      1.0000 0.80020  0.99820  0.51594  Biso   1.000  C
  C52      1.0000 0.19980  0.49820  0.98406  Biso   1.000  C
  C53      1.0000 0.17520  0.16980  0.42668  Biso   1.000  C
  C54      1.0000 0.82480  0.66980  0.07332  Biso   1.000  C
  C55      1.0000 0.82480  0.83020  0.57332  Biso   1.000  C
  C56      1.0000 0.17520  0.33020  0.92668  Biso   1.000  C
  H33      1.0000 0.03830  0.16940  0.36810  Biso   1.000  H
  H34      1.0000 0.96170  0.66940  0.13190  Biso   1.000  H
  H35      1.0000 0.96170  0.83060  0.63190  Biso   1.000  H
  H36      1.0000 0.03830  0.33060  0.86810  Biso   1.000  H
  C57      1.0000 0.71570  0.97300  0.16570  Biso   1.000  C
  C58      1.0000 0.28430  0.47300  0.33430  Biso   1.000  C
  C59      1.0000 0.28430  0.02700  0.83430  Biso   1.000  C
  C60      1.0000 0.71570  0.52700  0.66570  Biso   1.000  C
  Cl5      1.0000 0.71691  0.28521  0.39017  Biso   1.000  Cl
  Cl6      1.0000 0.28309  0.78521  0.10983  Biso   1.000  Cl
  Cl7      1.0000 0.28309  0.71479  0.60983  Biso   1.000  Cl
  Cl8      1.0000 0.71691  0.21479  0.89017  Biso   1.000  Cl
  H37      1.0000 0.65220  0.24230  0.27610  Biso   1.000  H
  H38      1.0000 0.34780  0.74230  0.22390  Biso   1.000  H
  H39      1.0000 0.34780  0.75770  0.72390  Biso   1.000  H
  H40      1.0000 0.65220  0.25770  0.77610  Biso   1.000  H
  H41      1.0000 0.70770  0.23980  0.22440  Biso   1.000  H
  H42      1.0000 0.29230  0.73980  0.27560  Biso   1.000  H
  H43      1.0000 0.29230  0.76020  0.77560  Biso   1.000  H
  H44      1.0000 0.70770  0.26020  0.72440  Biso   1.000  H
  C61      1.0000 0.60590  0.79380  0.14487  Biso   1.000  C
  C62      1.0000 0.39410  0.29380  0.35513  Biso   1.000  C
  C63      1.0000 0.39410  0.20620  0.85513  Biso   1.000  C
  C64      1.0000 0.60590  0.70620  0.64487  Biso   1.000  C
  C65      1.0000 0.58630  0.63130  0.20700  Biso   1.000  C
  C66      1.0000 0.41370  0.13130  0.29300  Biso   1.000  C
  C67      1.0000 0.41370  0.36870  0.79300  Biso   1.000  C
  C68      1.0000 0.58630  0.86870  0.70700  Biso   1.000  C
  C69      1.0000 0.58390  0.61920  0.27335  Biso   1.000  C
  C70      1.0000 0.41610  0.11920  0.22665  Biso   1.000  C
  C71      1.0000 0.41610  0.38080  0.72665  Biso   1.000  C
  C72      1.0000 0.58390  0.88080  0.77335  Biso   1.000  C
  C73      1.0000 0.53500  0.73810  0.42143  Biso   1.000  C
  C74      1.0000 0.46500  0.23810  0.07857  Biso   1.000  C
  C75      1.0000 0.46500  0.26190  0.57857  Biso   1.000  C
  C76      1.0000 0.53500  0.76190  0.92143  Biso   1.000  C
  C77      1.0000 0.49990  0.93630  0.42669  Biso   1.000  C
  C78      1.0000 0.50010  0.43630  0.07331  Biso   1.000  C
  C79      1.0000 0.50010  0.06370  0.57331  Biso   1.000  C
  C80      1.0000 0.49990  0.56370  0.92669  Biso   1.000  C
  H45      1.0000 0.60920  0.03340  0.38450  Biso   1.000  H
  H46      1.0000 0.39080  0.53340  0.11550  Biso   1.000  H
  H47      1.0000 0.39080  0.96660  0.61550  Biso   1.000  H
  H48      1.0000 0.60920  0.46660  0.88450  Biso   1.000  H
  H49      1.0000 0.82860  0.60130  0.25680  Biso   1.000  H
  H50      1.0000 0.17140  0.10130  0.24320  Biso   1.000  H
  H51      1.0000 0.17140  0.39870  0.74320  Biso   1.000  H
  H52      1.0000 0.82860  0.89870  0.75680  Biso   1.000  H
  H53      1.0000 0.76160  0.50180  0.28480  Biso   1.000  H
  H54      1.0000 0.23840  0.00180  0.21520  Biso   1.000  H
  H55      1.0000 0.23840  0.49820  0.71520  Biso   1.000  H
  H56      1.0000 0.76160  0.99820  0.78480  Biso   1.000  H
  H57      1.0000 0.23970  0.96100  0.51420  Biso   1.000  H
  H58      1.0000 0.76030  0.46100  0.98580  Biso   1.000  H
  H59      1.0000 0.76030  0.03900  0.48580  Biso   1.000  H
  H60      1.0000 0.23970  0.53900  0.01420  Biso   1.000  H
  C81      1.0000 0.23670  0.10820  0.47074  Biso   1.000  C
  C82      1.0000 0.76330  0.60820  0.02926  Biso   1.000  C
  C83      1.0000 0.76330  0.89180  0.52926  Biso   1.000  C
  C84      1.0000 0.23670  0.39180  0.97074  Biso   1.000  C
  H61      1.0000 0.19950  0.24210  0.41730  Biso   1.000  H
  H62      1.0000 0.80050  0.74210  0.08270  Biso   1.000  H
  H63      1.0000 0.80050  0.75790  0.58270  Biso   1.000  H
  H64      1.0000 0.19950  0.25790  0.91730  Biso   1.000  H
  C85      1.0000 0.75690  0.07310  0.14130  Biso   1.000  C
  C86      1.0000 0.24310  0.57310  0.35870  Biso   1.000  C
  C87      1.0000 0.24310  0.92690  0.85870  Biso   1.000  C
  C88      1.0000 0.75690  0.42690  0.64130  Biso   1.000  C
  C89      1.0000 0.64860  0.90010  0.12749  Biso   1.000  C
  C90      1.0000 0.35140  0.40010  0.37251  Biso   1.000  C
  C91      1.0000 0.35140  0.09990  0.87251  Biso   1.000  C
  C92      1.0000 0.64860  0.59990  0.62749  Biso   1.000  C
  O37      1.0000 0.65600  0.37540  0.36182  Biso   1.000  O
  O38      1.0000 0.34400  0.87540  0.13818  Biso   1.000  O
  O39      1.0000 0.34400  0.62460  0.63818  Biso   1.000  O
  O40      1.0000 0.65600  0.12460  0.86182  Biso   1.000  O
  O41      1.0000 0.65330  0.23670  0.43436  Biso   1.000  O
  O42      1.0000 0.34670  0.73670  0.06564  Biso   1.000  O
  O43      1.0000 0.34670  0.76330  0.56564  Biso   1.000  O
  O44      1.0000 0.65330  0.26330  0.93436  Biso   1.000  O
  O45      1.0000 0.82230  0.32710  0.41390  Biso   1.000  O
  O46      1.0000 0.17770  0.82710  0.08610  Biso   1.000  O
  O47      1.0000 0.17770  0.67290  0.58610  Biso   1.000  O
  O48      1.0000 0.82230  0.17290  0.91390  Biso   1.000  O
  H65      1.0000 0.55560  0.75610  0.11780  Biso   1.000  H
  H66      1.0000 0.44440  0.25610  0.38220  Biso   1.000  H
  H67      1.0000 0.44440  0.24390  0.88220  Biso   1.000  H
  H68      1.0000 0.55560  0.74390  0.61780  Biso   1.000  H
  H69      1.0000 0.63470  0.57340  0.19190  Biso   1.000  H
  H70      1.0000 0.36530  0.07340  0.30810  Biso   1.000  H
  H71      1.0000 0.36530  0.42660  0.80810  Biso   1.000  H
  H72      1.0000 0.63470  0.92660  0.69190  Biso   1.000  H
  H73      1.0000 0.51020  0.62280  0.18770  Biso   1.000  H
  H74      1.0000 0.48980  0.12280  0.31230  Biso   1.000  H
  H75      1.0000 0.48980  0.37720  0.81230  Biso   1.000  H
  H76      1.0000 0.51020  0.87720  0.68770  Biso   1.000  H
  H77      1.0000 0.52310  0.66500  0.28720  Biso   1.000  H
  H78      1.0000 0.47690  0.16500  0.21280  Biso   1.000  H
  H79      1.0000 0.47690  0.33500  0.71280  Biso   1.000  H
  H80      1.0000 0.52310  0.83500  0.78720  Biso   1.000  H
  H81      1.0000 0.57070  0.54070  0.28350  Biso   1.000  H
  H82      1.0000 0.42930  0.04070  0.21650  Biso   1.000  H
  H83      1.0000 0.42930  0.45930  0.71650  Biso   1.000  H
  H84      1.0000 0.57070  0.95930  0.78350  Biso   1.000  H
  C93      1.0000 0.47200  0.82800  0.44070  Biso   1.000  C
  C94      1.0000 0.52800  0.32800  0.05930  Biso   1.000  C
  C95      1.0000 0.52800  0.17200  0.55930  Biso   1.000  C
  C96      1.0000 0.47200  0.67200  0.94070  Biso   1.000  C
  H85      1.0000 0.51560  0.66430  0.43100  Biso   1.000  H
  H86      1.0000 0.48440  0.16430  0.06900  Biso   1.000  H
  H87      1.0000 0.48440  0.33570  0.56900  Biso   1.000  H
  H88      1.0000 0.51560  0.83570  0.93100  Biso   1.000  H
  H89      1.0000 0.45720  0.99620  0.43980  Biso   1.000  H
  H90      1.0000 0.54280  0.49620  0.06020  Biso   1.000  H
  H91      1.0000 0.54280  0.00380  0.56020  Biso   1.000  H
  H92      1.0000 0.45720  0.50380  0.93980  Biso   1.000  H
  H93      1.0000 0.30170  0.13870  0.49080  Biso   1.000  H
  H94      1.0000 0.69830  0.63870  0.00920  Biso   1.000  H
  H95      1.0000 0.69830  0.86130  0.50920  Biso   1.000  H
  H96      1.0000 0.30170  0.36130  0.99080  Biso   1.000  H
  H97      1.0000 0.80070  0.12300  0.16540  Biso   1.000  H
  H98      1.0000 0.19930  0.62300  0.33460  Biso   1.000  H
  H99      1.0000 0.19930  0.87700  0.83460  Biso   1.000  H
  H100     1.0000 0.80070  0.37700  0.66540  Biso   1.000  H
  C97      1.0000 0.73350  0.09850  0.08210  Biso   1.000  C
  C98      1.0000 0.26650  0.59850  0.41790  Biso   1.000  C
  C99      1.0000 0.26650  0.90150  0.91790  Biso   1.000  C
  C100     1.0000 0.73350  0.40150  0.58210  Biso   1.000  C
  C101     1.0000 0.62410  0.93200  0.06771  Biso   1.000  C
  C102     1.0000 0.37590  0.43200  0.43229  Biso   1.000  C
  C103     1.0000 0.37590  0.06800  0.93229  Biso   1.000  C
  C104     1.0000 0.62410  0.56800  0.56771  Biso   1.000  C
  H101     1.0000 0.41080  0.81450  0.46310  Biso   1.000  H
  H102     1.0000 0.58920  0.31450  0.03690  Biso   1.000  H
  H103     1.0000 0.58920  0.18550  0.53690  Biso   1.000  H
  H104     1.0000 0.41080  0.68550  0.96310  Biso   1.000  H
  H105     1.0000 0.76360  0.16410  0.06680  Biso   1.000  H
  H106     1.0000 0.23640  0.66410  0.43320  Biso   1.000  H
  H107     1.0000 0.23640  0.83590  0.93320  Biso   1.000  H
  H108     1.0000 0.76360  0.33590  0.56680  Biso   1.000  H
  C105     1.0000 0.66550  0.02750  0.04500  Biso   1.000  C
  C106     1.0000 0.33450  0.52750  0.45500  Biso   1.000  C
  C107     1.0000 0.33450  0.97250  0.95500  Biso   1.000  C
  C108     1.0000 0.66550  0.47250  0.54500  Biso   1.000  C
  H109     1.0000 0.57770  0.88510  0.04310  Biso   1.000  H
  H110     1.0000 0.42230  0.38510  0.45690  Biso   1.000  H
  H111     1.0000 0.42230  0.11490  0.95690  Biso   1.000  H
  H112     1.0000 0.57770  0.61490  0.54310  Biso   1.000  H
  H113     1.0000 0.64900  0.04570  0.00530  Biso   1.000  H
  H114     1.0000 0.35100  0.54570  0.49470  Biso   1.000  H
  H115     1.0000 0.35100  0.95430  0.99470  Biso   1.000  H
  H116     1.0000 0.64900  0.45430  0.50530  Biso   1.000  H
  O49      1.0000 0.39000  0.83750  0.27650  Biso   1.000  O
  O50      1.0000 0.61000  0.33750  0.22350  Biso   1.000  O
  O51      1.0000 0.61000  0.16250  0.72350  Biso   1.000  O
  O52      1.0000 0.39000  0.66250  0.77650  Biso   1.000  O
  O53      1.0000 0.77600  0.19200  0.37460  Biso   1.000  O
  O54      1.0000 0.22400  0.69200  0.12540  Biso   1.000  O
  O55      1.0000 0.22400  0.80800  0.62540  Biso   1.000  O
  O56      1.0000 0.77600  0.30800  0.87460  Biso   1.000  O
