data_image0
_cell_length_a       10.3143
_cell_length_b       10.4469
_cell_length_c       25.949
_cell_angle_alpha    90
_cell_angle_beta     90
_cell_angle_gamma    90

_symmetry_space_group_name_H-M    "P 1"
_symmetry_int_tables_number       1

loop_
  _symmetry_equiv_pos_as_xyz
  'x, y, z'

loop_
  _atom_site_label
  _atom_site_occupancy
  _atom_site_fract_x
  _atom_site_fract_y
  _atom_site_fract_z
  _atom_site_thermal_displace_type
  _atom_site_B_iso_or_equiv
  _atom_site_type_symbol
  Cu1      1.0000 0.68070  0.95495  0.77175  Biso   1.000  Cu
  Cu2      1.0000 0.81930  0.04505  0.27175  Biso   1.000  Cu
  Cu3      1.0000 0.31930  0.45495  0.72825  Biso   1.000  Cu
  Cu4      1.0000 0.18070  0.54505  0.22825  Biso   1.000  Cu
  Cu5      1.0000 0.05235  0.55529  0.70359  Biso   1.000  Cu
  Cu6      1.0000 0.44765  0.44471  0.20359  Biso   1.000  Cu
  Cu7      1.0000 0.94765  0.05529  0.79641  Biso   1.000  Cu
  Cu8      1.0000 0.55235  0.94471  0.29641  Biso   1.000  Cu
  S1       1.0000 0.59424  0.64711  0.52468  Biso   1.000  S
  S2       1.0000 0.90576  0.35289  0.02468  Biso   1.000  S
  S3       1.0000 0.40576  0.14711  0.97532  Biso   1.000  S
  S4       1.0000 0.09424  0.85289  0.47532  Biso   1.000  S
  S5       1.0000 0.39066  0.77603  0.64072  Biso   1.000  S
  S6       1.0000 0.10934  0.22397  0.14072  Biso   1.000  S
  S7       1.0000 0.60934  0.27603  0.85928  Biso   1.000  S
  S8       1.0000 0.89066  0.72397  0.35928  Biso   1.000  S
  O1       1.0000 0.92830  0.67200  0.73284  Biso   1.000  O
  O2       1.0000 0.57170  0.32800  0.23284  Biso   1.000  O
  O3       1.0000 0.07170  0.17200  0.76716  Biso   1.000  O
  O4       1.0000 0.42830  0.82800  0.26716  Biso   1.000  O
  O5       1.0000 0.74310  0.77240  0.71663  Biso   1.000  O
  O6       1.0000 0.75690  0.22760  0.21663  Biso   1.000  O
  O7       1.0000 0.25690  0.27240  0.78337  Biso   1.000  O
  O8       1.0000 0.24310  0.72760  0.28337  Biso   1.000  O
  O9       1.0000 0.19840  0.46870  0.67175  Biso   1.000  O
  O10      1.0000 0.30160  0.53130  0.17175  Biso   1.000  O
  O11      1.0000 0.80160  0.96870  0.82825  Biso   1.000  O
  O12      1.0000 0.69840  0.03130  0.32825  Biso   1.000  O
  O13      1.0000 0.81910  0.05610  0.73960  Biso   1.000  O
  O14      1.0000 0.68090  0.94390  0.23960  Biso   1.000  O
  O15      1.0000 0.18090  0.55610  0.76040  Biso   1.000  O
  O16      1.0000 0.31910  0.44390  0.26040  Biso   1.000  O
  O17      1.0000 0.94600  0.37610  0.71996  Biso   1.000  O
  O18      1.0000 0.55400  0.62390  0.21996  Biso   1.000  O
  O19      1.0000 0.05400  0.87610  0.78004  Biso   1.000  O
  O20      1.0000 0.44600  0.12390  0.28004  Biso   1.000  O
  H1       1.0000 0.97660  0.30460  0.72980  Biso   1.000  H
  H2       1.0000 0.52340  0.69540  0.22980  Biso   1.000  H
  H3       1.0000 0.02340  0.80460  0.77020  Biso   1.000  H
  H4       1.0000 0.47660  0.19540  0.27020  Biso   1.000  H
  H5       1.0000 0.86940  0.37530  0.70780  Biso   1.000  H
  H6       1.0000 0.63060  0.62470  0.20780  Biso   1.000  H
  H7       1.0000 0.13060  0.87530  0.79220  Biso   1.000  H
  H8       1.0000 0.36940  0.12470  0.29220  Biso   1.000  H
  O21      1.0000 0.53030  0.88960  0.80801  Biso   1.000  O
  O22      1.0000 0.96970  0.11040  0.30801  Biso   1.000  O
  O23      1.0000 0.46970  0.38960  0.69199  Biso   1.000  O
  O24      1.0000 0.03030  0.61040  0.19199  Biso   1.000  O
  O25      1.0000 0.31570  0.89520  0.80795  Biso   1.000  O
  O26      1.0000 0.18430  0.10480  0.30795  Biso   1.000  O
  O27      1.0000 0.68430  0.39520  0.69205  Biso   1.000  O
  O28      1.0000 0.81570  0.60480  0.19205  Biso   1.000  O
  N1       1.0000 0.95820  0.58500  0.63733  Biso   1.000  N
  N2       1.0000 0.54180  0.41500  0.13733  Biso   1.000  N
  N3       1.0000 0.04180  0.08500  0.86267  Biso   1.000  N
  N4       1.0000 0.45820  0.91500  0.36267  Biso   1.000  N
  N5       1.0000 0.55570  0.97880  0.71469  Biso   1.000  N
  N6       1.0000 0.94430  0.02120  0.21469  Biso   1.000  N
  N7       1.0000 0.44430  0.47880  0.78531  Biso   1.000  N
  N8       1.0000 0.05570  0.52120  0.28531  Biso   1.000  N
  C1       1.0000 0.19610  0.41780  0.62385  Biso   1.000  C
  C2       1.0000 0.30390  0.58220  0.12385  Biso   1.000  C
  C3       1.0000 0.80390  0.91780  0.87615  Biso   1.000  C
  C4       1.0000 0.69610  0.08220  0.37615  Biso   1.000  C
  C5       1.0000 0.25740  0.30430  0.61219  Biso   1.000  C
  C6       1.0000 0.24260  0.69570  0.11219  Biso   1.000  C
  C7       1.0000 0.74260  0.80430  0.88781  Biso   1.000  C
  C8       1.0000 0.75740  0.19570  0.38781  Biso   1.000  C
  H9       1.0000 0.30270  0.26110  0.63780  Biso   1.000  H
  H10      1.0000 0.19730  0.73890  0.13780  Biso   1.000  H
  H11      1.0000 0.69730  0.76110  0.86220  Biso   1.000  H
  H12      1.0000 0.80270  0.23890  0.36220  Biso   1.000  H
  C9       1.0000 0.25300  0.25410  0.56364  Biso   1.000  C
  C10      1.0000 0.24700  0.74590  0.06364  Biso   1.000  C
  C11      1.0000 0.74700  0.75410  0.93636  Biso   1.000  C
  C12      1.0000 0.75300  0.24590  0.43636  Biso   1.000  C
  H13      1.0000 0.29700  0.17860  0.55640  Biso   1.000  H
  H14      1.0000 0.20300  0.82140  0.05640  Biso   1.000  H
  H15      1.0000 0.70300  0.67860  0.94360  Biso   1.000  H
  H16      1.0000 0.79700  0.32140  0.44360  Biso   1.000  H
  C13      1.0000 0.18360  0.31460  0.52541  Biso   1.000  C
  C14      1.0000 0.31640  0.68540  0.02541  Biso   1.000  C
  C15      1.0000 0.81640  0.81460  0.97459  Biso   1.000  C
  C16      1.0000 0.68360  0.18540  0.47459  Biso   1.000  C
  H17      1.0000 0.17930  0.27940  0.49250  Biso   1.000  H
  H18      1.0000 0.32070  0.72060  0.99250  Biso   1.000  H
  H19      1.0000 0.82070  0.77940  0.00750  Biso   1.000  H
  H20      1.0000 0.67930  0.22060  0.50750  Biso   1.000  H
  C17      1.0000 0.12090  0.42730  0.53628  Biso   1.000  C
  C18      1.0000 0.37910  0.57270  0.03628  Biso   1.000  C
  C19      1.0000 0.87910  0.92730  0.96372  Biso   1.000  C
  C20      1.0000 0.62090  0.07270  0.46372  Biso   1.000  C
  H21      1.0000 0.07400  0.46800  0.51040  Biso   1.000  H
  H22      1.0000 0.42600  0.53200  0.01040  Biso   1.000  H
  H23      1.0000 0.92600  0.96800  0.98960  Biso   1.000  H
  H24      1.0000 0.57400  0.03200  0.48960  Biso   1.000  H
  C21      1.0000 0.12570  0.48170  0.58491  Biso   1.000  C
  C22      1.0000 0.37430  0.51830  0.08491  Biso   1.000  C
  C23      1.0000 0.87430  0.98170  0.91509  Biso   1.000  C
  C24      1.0000 0.62570  0.01830  0.41509  Biso   1.000  C
  C25      1.0000 0.05790  0.60510  0.59618  Biso   1.000  C
  C26      1.0000 0.44210  0.39490  0.09618  Biso   1.000  C
  C27      1.0000 0.94210  0.10510  0.90382  Biso   1.000  C
  C28      1.0000 0.55790  0.89490  0.40382  Biso   1.000  C
  H25      1.0000 0.01650  0.63670  0.56510  Biso   1.000  H
  H26      1.0000 0.48350  0.36330  0.06510  Biso   1.000  H
  H27      1.0000 0.98350  0.13670  0.93490  Biso   1.000  H
  H28      1.0000 0.51650  0.86330  0.43490  Biso   1.000  H
  H29      1.0000 0.12050  0.66850  0.60750  Biso   1.000  H
  H30      1.0000 0.37950  0.33150  0.10750  Biso   1.000  H
  H31      1.0000 0.87950  0.16850  0.89250  Biso   1.000  H
  H32      1.0000 0.62050  0.83150  0.39250  Biso   1.000  H
  C29      1.0000 0.86530  0.69360  0.64418  Biso   1.000  C
  C30      1.0000 0.63470  0.30640  0.14418  Biso   1.000  C
  C31      1.0000 0.13470  0.19360  0.85582  Biso   1.000  C
  C32      1.0000 0.36530  0.80640  0.35582  Biso   1.000  C
  H33      1.0000 0.90670  0.77100  0.63060  Biso   1.000  H
  H34      1.0000 0.59330  0.22900  0.13060  Biso   1.000  H
  H35      1.0000 0.09330  0.27100  0.86940  Biso   1.000  H
  H36      1.0000 0.40670  0.72900  0.36940  Biso   1.000  H
  C33      1.0000 0.84020  0.71490  0.70220  Biso   1.000  C
  C34      1.0000 0.65980  0.28510  0.20220  Biso   1.000  C
  C35      1.0000 0.15980  0.21490  0.79780  Biso   1.000  C
  C36      1.0000 0.34020  0.78510  0.29780  Biso   1.000  C
  C37      1.0000 0.73740  0.67550  0.61559  Biso   1.000  C
  C38      1.0000 0.76260  0.32450  0.11559  Biso   1.000  C
  C39      1.0000 0.26260  0.17550  0.88441  Biso   1.000  C
  C40      1.0000 0.23740  0.82450  0.38441  Biso   1.000  C
  H37      1.0000 0.68310  0.74960  0.62200  Biso   1.000  H
  H38      1.0000 0.81690  0.25040  0.12200  Biso   1.000  H
  H39      1.0000 0.31690  0.24960  0.87800  Biso   1.000  H
  H40      1.0000 0.18310  0.75040  0.37800  Biso   1.000  H
  H41      1.0000 0.69340  0.60140  0.62990  Biso   1.000  H
  H42      1.0000 0.80660  0.39860  0.12990  Biso   1.000  H
  H43      1.0000 0.30660  0.10140  0.87010  Biso   1.000  H
  H44      1.0000 0.19340  0.89860  0.37010  Biso   1.000  H
  C41      1.0000 0.74980  0.65720  0.55712  Biso   1.000  C
  C42      1.0000 0.75020  0.34280  0.05712  Biso   1.000  C
  C43      1.0000 0.25020  0.15720  0.94288  Biso   1.000  C
  C44      1.0000 0.24980  0.84280  0.44288  Biso   1.000  C
  H45      1.0000 0.79840  0.57950  0.55040  Biso   1.000  H
  H46      1.0000 0.70160  0.42050  0.05040  Biso   1.000  H
  H47      1.0000 0.20160  0.07950  0.94960  Biso   1.000  H
  H48      1.0000 0.29840  0.92050  0.44960  Biso   1.000  H
  H49      1.0000 0.79840  0.72830  0.54290  Biso   1.000  H
  H50      1.0000 0.70160  0.27170  0.04290  Biso   1.000  H
  H51      1.0000 0.20160  0.22830  0.95710  Biso   1.000  H
  H52      1.0000 0.29840  0.77170  0.45710  Biso   1.000  H
  C45      1.0000 0.52470  0.50710  0.55380  Biso   1.000  C
  C46      1.0000 0.97530  0.49290  0.05380  Biso   1.000  C
  C47      1.0000 0.47530  0.00710  0.94620  Biso   1.000  C
  C48      1.0000 0.02470  0.99290  0.44620  Biso   1.000  C
  H53      1.0000 0.52310  0.51740  0.59050  Biso   1.000  H
  H54      1.0000 0.97690  0.48260  0.09050  Biso   1.000  H
  H55      1.0000 0.47690  0.01740  0.90950  Biso   1.000  H
  H56      1.0000 0.02310  0.98260  0.40950  Biso   1.000  H
  H57      1.0000 0.57600  0.43350  0.54510  Biso   1.000  H
  H58      1.0000 0.92400  0.56650  0.04510  Biso   1.000  H
  H59      1.0000 0.42400  0.93350  0.95490  Biso   1.000  H
  H60      1.0000 0.07600  0.06650  0.45490  Biso   1.000  H
  H61      1.0000 0.43790  0.49550  0.54130  Biso   1.000  H
  H62      1.0000 0.06210  0.50450  0.04130  Biso   1.000  H
  H63      1.0000 0.56210  0.99550  0.95870  Biso   1.000  H
  H64      1.0000 0.93790  0.00450  0.45870  Biso   1.000  H
  C49      1.0000 0.83530  0.05210  0.68791  Biso   1.000  C
  C50      1.0000 0.66470  0.94790  0.18791  Biso   1.000  C
  C51      1.0000 0.16470  0.55210  0.81209  Biso   1.000  C
  C52      1.0000 0.33530  0.44790  0.31209  Biso   1.000  C
  C53      1.0000 0.95810  0.04200  0.66545  Biso   1.000  C
  C54      1.0000 0.54190  0.95800  0.16545  Biso   1.000  C
  C55      1.0000 0.04190  0.54200  0.83455  Biso   1.000  C
  C56      1.0000 0.45810  0.45800  0.33455  Biso   1.000  C
  H65      1.0000 0.03150  0.04140  0.68620  Biso   1.000  H
  H66      1.0000 0.46850  0.95860  0.18620  Biso   1.000  H
  H67      1.0000 0.96850  0.54140  0.81380  Biso   1.000  H
  H68      1.0000 0.53150  0.45860  0.31380  Biso   1.000  H
  C57      1.0000 0.97080  0.03310  0.61273  Biso   1.000  C
  C58      1.0000 0.52920  0.96690  0.11273  Biso   1.000  C
  C59      1.0000 0.02920  0.53310  0.88727  Biso   1.000  C
  C60      1.0000 0.47080  0.46690  0.38727  Biso   1.000  C
  H69      1.0000 0.05300  0.02690  0.59820  Biso   1.000  H
  H70      1.0000 0.44700  0.97310  0.09820  Biso   1.000  H
  H71      1.0000 0.94700  0.52690  0.90180  Biso   1.000  H
  H72      1.0000 0.55300  0.47310  0.40180  Biso   1.000  H
  C61      1.0000 0.86440  0.03340  0.58152  Biso   1.000  C
  C62      1.0000 0.63560  0.96660  0.08152  Biso   1.000  C
  C63      1.0000 0.13560  0.53340  0.91848  Biso   1.000  C
  C64      1.0000 0.36440  0.46660  0.41848  Biso   1.000  C
  H73      1.0000 0.87370  0.02570  0.54600  Biso   1.000  H
  H74      1.0000 0.62630  0.97430  0.04600  Biso   1.000  H
  H75      1.0000 0.12630  0.52570  0.95400  Biso   1.000  H
  H76      1.0000 0.37370  0.47430  0.45400  Biso   1.000  H
  C65      1.0000 0.74240  0.04510  0.60330  Biso   1.000  C
  C66      1.0000 0.75760  0.95490  0.10330  Biso   1.000  C
  C67      1.0000 0.25760  0.54510  0.89670  Biso   1.000  C
  C68      1.0000 0.24240  0.45490  0.39670  Biso   1.000  C
  H77      1.0000 0.67000  0.04520  0.58200  Biso   1.000  H
  H78      1.0000 0.83000  0.95480  0.08200  Biso   1.000  H
  H79      1.0000 0.33000  0.54520  0.91800  Biso   1.000  H
  H80      1.0000 0.17000  0.45480  0.41800  Biso   1.000  H
  C69      1.0000 0.72550  0.05680  0.65581  Biso   1.000  C
  C70      1.0000 0.77450  0.94320  0.15581  Biso   1.000  C
  C71      1.0000 0.27450  0.55680  0.84419  Biso   1.000  C
  C72      1.0000 0.22550  0.44320  0.34419  Biso   1.000  C
  C73      1.0000 0.59460  0.08140  0.67823  Biso   1.000  C
  C74      1.0000 0.90540  0.91860  0.17823  Biso   1.000  C
  C75      1.0000 0.40540  0.58140  0.82177  Biso   1.000  C
  C76      1.0000 0.09460  0.41860  0.32177  Biso   1.000  C
  H81      1.0000 0.59540  0.16290  0.69610  Biso   1.000  H
  H82      1.0000 0.90460  0.83710  0.19610  Biso   1.000  H
  H83      1.0000 0.40460  0.66290  0.80390  Biso   1.000  H
  H84      1.0000 0.09540  0.33710  0.30390  Biso   1.000  H
  H85      1.0000 0.53140  0.08680  0.65060  Biso   1.000  H
  H86      1.0000 0.96860  0.91320  0.15060  Biso   1.000  H
  H87      1.0000 0.46860  0.58680  0.84940  Biso   1.000  H
  H88      1.0000 0.03140  0.41320  0.34940  Biso   1.000  H
  C77      1.0000 0.42750  0.00090  0.73902  Biso   1.000  C
  C78      1.0000 0.07250  0.99910  0.23902  Biso   1.000  C
  C79      1.0000 0.57250  0.50090  0.76098  Biso   1.000  C
  C80      1.0000 0.92750  0.49910  0.26098  Biso   1.000  C
  H89      1.0000 0.42600  0.09090  0.74960  Biso   1.000  H
  H90      1.0000 0.07400  0.90910  0.24960  Biso   1.000  H
  H91      1.0000 0.57400  0.59090  0.75040  Biso   1.000  H
  H92      1.0000 0.92600  0.40910  0.25040  Biso   1.000  H
  C81      1.0000 0.42170  0.92170  0.78849  Biso   1.000  C
  C82      1.0000 0.07830  0.07830  0.28849  Biso   1.000  C
  C83      1.0000 0.57830  0.42170  0.71151  Biso   1.000  C
  C84      1.0000 0.92170  0.57830  0.21151  Biso   1.000  C
  C85      1.0000 0.30950  0.98120  0.70384  Biso   1.000  C
  C86      1.0000 0.19050  0.01880  0.20384  Biso   1.000  C
  C87      1.0000 0.69050  0.48120  0.79616  Biso   1.000  C
  C88      1.0000 0.80950  0.51880  0.29616  Biso   1.000  C
  H93      1.0000 0.23360  0.01370  0.72160  Biso   1.000  H
  H94      1.0000 0.26640  0.98630  0.22160  Biso   1.000  H
  H95      1.0000 0.76640  0.51370  0.77840  Biso   1.000  H
  H96      1.0000 0.73360  0.48630  0.27840  Biso   1.000  H
  H97      1.0000 0.32160  0.03320  0.67320  Biso   1.000  H
  H98      1.0000 0.17840  0.96680  0.17320  Biso   1.000  H
  H99      1.0000 0.67840  0.53320  0.82680  Biso   1.000  H
  H100     1.0000 0.82160  0.46680  0.32680  Biso   1.000  H
  C89      1.0000 0.28100  0.84610  0.68681  Biso   1.000  C
  C90      1.0000 0.21900  0.15390  0.18681  Biso   1.000  C
  C91      1.0000 0.71900  0.34610  0.81319  Biso   1.000  C
  C92      1.0000 0.78100  0.65390  0.31319  Biso   1.000  C
  H101     1.0000 0.19450  0.84450  0.67220  Biso   1.000  H
  H102     1.0000 0.30550  0.15550  0.17220  Biso   1.000  H
  H103     1.0000 0.80550  0.34450  0.82780  Biso   1.000  H
  H104     1.0000 0.69450  0.65550  0.32780  Biso   1.000  H
  H105     1.0000 0.27980  0.79190  0.71720  Biso   1.000  H
  H106     1.0000 0.22020  0.20810  0.21720  Biso   1.000  H
  H107     1.0000 0.72020  0.29190  0.78280  Biso   1.000  H
  H108     1.0000 0.77980  0.70810  0.28280  Biso   1.000  H
  C93      1.0000 0.35440  0.87360  0.58570  Biso   1.000  C
  C94      1.0000 0.14560  0.12640  0.08570  Biso   1.000  C
  C95      1.0000 0.64560  0.37360  0.91430  Biso   1.000  C
  C96      1.0000 0.85440  0.62640  0.41430  Biso   1.000  C
  H109     1.0000 0.36020  0.96230  0.59510  Biso   1.000  H
  H110     1.0000 0.13980  0.03770  0.09510  Biso   1.000  H
  H111     1.0000 0.63980  0.46230  0.90490  Biso   1.000  H
  H112     1.0000 0.86020  0.53770  0.40490  Biso   1.000  H
  H113     1.0000 0.26830  0.85510  0.57390  Biso   1.000  H
  H114     1.0000 0.23170  0.14490  0.07390  Biso   1.000  H
  H115     1.0000 0.73170  0.35510  0.92610  Biso   1.000  H
  H116     1.0000 0.76830  0.64490  0.42610  Biso   1.000  H
  H117     1.0000 0.41540  0.85560  0.55870  Biso   1.000  H
  H118     1.0000 0.08460  0.14440  0.05870  Biso   1.000  H
  H119     1.0000 0.58460  0.35560  0.94130  Biso   1.000  H
  H120     1.0000 0.91540  0.64440  0.44130  Biso   1.000  H
  O29      1.0000 0.18350  0.85630  0.90169  Biso   1.000  O
  O30      1.0000 0.31650  0.14370  0.40169  Biso   1.000  O
  O31      1.0000 0.81650  0.35630  0.59831  Biso   1.000  O
  O32      1.0000 0.68350  0.64370  0.09831  Biso   1.000  O
  H121     1.0000 0.25470  0.90890  0.90200  Biso   1.000  H
  H122     1.0000 0.24530  0.09110  0.40200  Biso   1.000  H
  H123     1.0000 0.74530  0.40890  0.59800  Biso   1.000  H
  H124     1.0000 0.75470  0.59110  0.09800  Biso   1.000  H
  H125     1.0000 0.19880  0.77730  0.90590  Biso   1.000  H
  H126     1.0000 0.30120  0.22270  0.40590  Biso   1.000  H
  H127     1.0000 0.80120  0.27730  0.59410  Biso   1.000  H
  H128     1.0000 0.69880  0.72270  0.09410  Biso   1.000  H
