data_image0
_cell_length_a       18.336
_cell_length_b       19.494
_cell_length_c       11.389
_cell_angle_alpha    90
_cell_angle_beta     113.76
_cell_angle_gamma    90

_symmetry_space_group_name_H-M    "P 1"
_symmetry_int_tables_number       1

loop_
  _symmetry_equiv_pos_as_xyz
  'x, y, z'

loop_
  _atom_site_label
  _atom_site_occupancy
  _atom_site_fract_x
  _atom_site_fract_y
  _atom_site_fract_z
  _atom_site_thermal_displace_type
  _atom_site_B_iso_or_equiv
  _atom_site_type_symbol
  Cu1      1.0000 0.18392  0.24534  0.02359  Biso   1.000  Cu
  Cu2      1.0000 0.68392  0.74534  0.02359  Biso   1.000  Cu
  Cu3      1.0000 0.81608  0.24534  0.47641  Biso   1.000  Cu
  Cu4      1.0000 0.31608  0.74534  0.47641  Biso   1.000  Cu
  Cu5      1.0000 0.81608  0.75466  0.97641  Biso   1.000  Cu
  Cu6      1.0000 0.31608  0.25466  0.97641  Biso   1.000  Cu
  Cu7      1.0000 0.18392  0.75466  0.52359  Biso   1.000  Cu
  Cu8      1.0000 0.68392  0.25466  0.52359  Biso   1.000  Cu
  O1       1.0000 0.16934  0.15774  0.93082  Biso   1.000  O
  O2       1.0000 0.66934  0.65774  0.93082  Biso   1.000  O
  O3       1.0000 0.83066  0.15774  0.56918  Biso   1.000  O
  O4       1.0000 0.33066  0.65774  0.56918  Biso   1.000  O
  O5       1.0000 0.83066  0.84226  0.06918  Biso   1.000  O
  O6       1.0000 0.33066  0.34226  0.06918  Biso   1.000  O
  O7       1.0000 0.16934  0.84226  0.43082  Biso   1.000  O
  O8       1.0000 0.66934  0.34226  0.43082  Biso   1.000  O
  O9       1.0000 0.28149  0.16406  0.89884  Biso   1.000  O
  O10      1.0000 0.78149  0.66406  0.89884  Biso   1.000  O
  O11      1.0000 0.71851  0.16406  0.60116  Biso   1.000  O
  O12      1.0000 0.21851  0.66406  0.60116  Biso   1.000  O
  O13      1.0000 0.71851  0.83594  0.10116  Biso   1.000  O
  O14      1.0000 0.21851  0.33594  0.10116  Biso   1.000  O
  O15      1.0000 0.28149  0.83594  0.39884  Biso   1.000  O
  O16      1.0000 0.78149  0.33594  0.39884  Biso   1.000  O
  O17      1.0000 0.12680  0.28945  0.85191  Biso   1.000  O
  O18      1.0000 0.62680  0.78945  0.85191  Biso   1.000  O
  O19      1.0000 0.87320  0.28945  0.64809  Biso   1.000  O
  O20      1.0000 0.37320  0.78945  0.64809  Biso   1.000  O
  O21      1.0000 0.87320  0.71055  0.14809  Biso   1.000  O
  O22      1.0000 0.37320  0.21055  0.14809  Biso   1.000  O
  O23      1.0000 0.12680  0.71055  0.35191  Biso   1.000  O
  O24      1.0000 0.62680  0.21055  0.35191  Biso   1.000  O
  O25      1.0000 0.23795  0.30010  0.81957  Biso   1.000  O
  O26      1.0000 0.73795  0.80010  0.81957  Biso   1.000  O
  O27      1.0000 0.76205  0.30010  0.68043  Biso   1.000  O
  O28      1.0000 0.26205  0.80010  0.68043  Biso   1.000  O
  O29      1.0000 0.76205  0.69990  0.18043  Biso   1.000  O
  O30      1.0000 0.26205  0.19990  0.18043  Biso   1.000  O
  O31      1.0000 0.23795  0.69990  0.31957  Biso   1.000  O
  O32      1.0000 0.73795  0.19990  0.31957  Biso   1.000  O
  N1       1.0000 0.08855  0.22695  0.08483  Biso   1.000  N
  N2       1.0000 0.58855  0.72695  0.08483  Biso   1.000  N
  N3       1.0000 0.91145  0.22695  0.41517  Biso   1.000  N
  N4       1.0000 0.41145  0.72695  0.41517  Biso   1.000  N
  N5       1.0000 0.91145  0.77305  0.91517  Biso   1.000  N
  N6       1.0000 0.41145  0.27305  0.91517  Biso   1.000  N
  N7       1.0000 0.08855  0.77305  0.58483  Biso   1.000  N
  N8       1.0000 0.58855  0.27305  0.58483  Biso   1.000  N
  N9       1.0000 0.02132  0.19200  0.01300  Biso   1.000  N
  N10      1.0000 0.52132  0.69200  0.01300  Biso   1.000  N
  N11      1.0000 0.97868  0.19200  0.48700  Biso   1.000  N
  N12      1.0000 0.47868  0.69200  0.48700  Biso   1.000  N
  N13      1.0000 0.97868  0.80800  0.98700  Biso   1.000  N
  N14      1.0000 0.47868  0.30800  0.98700  Biso   1.000  N
  N15      1.0000 0.02132  0.80800  0.51300  Biso   1.000  N
  N16      1.0000 0.52132  0.30800  0.51300  Biso   1.000  N
  C1       1.0000 0.14766  0.27416  0.30400  Biso   1.000  C
  C2       1.0000 0.64766  0.77416  0.30400  Biso   1.000  C
  C3       1.0000 0.85234  0.27416  0.19600  Biso   1.000  C
  C4       1.0000 0.35234  0.77416  0.19600  Biso   1.000  C
  C5       1.0000 0.85234  0.72584  0.69600  Biso   1.000  C
  C6       1.0000 0.35234  0.22584  0.69600  Biso   1.000  C
  C7       1.0000 0.14766  0.72584  0.80400  Biso   1.000  C
  C8       1.0000 0.64766  0.22584  0.80400  Biso   1.000  C
  H1       1.0000 0.19180  0.24380  0.34620  Biso   1.000  H
  H2       1.0000 0.69180  0.74380  0.34620  Biso   1.000  H
  H3       1.0000 0.80820  0.24380  0.15380  Biso   1.000  H
  H4       1.0000 0.30820  0.74380  0.15380  Biso   1.000  H
  H5       1.0000 0.80820  0.75620  0.65380  Biso   1.000  H
  H6       1.0000 0.30820  0.25620  0.65380  Biso   1.000  H
  H7       1.0000 0.19180  0.75620  0.84620  Biso   1.000  H
  H8       1.0000 0.69180  0.25620  0.84620  Biso   1.000  H
  H9       1.0000 0.12700  0.28990  0.36450  Biso   1.000  H
  H10      1.0000 0.62700  0.78990  0.36450  Biso   1.000  H
  H11      1.0000 0.87300  0.28990  0.13550  Biso   1.000  H
  H12      1.0000 0.37300  0.78990  0.13550  Biso   1.000  H
  H13      1.0000 0.87300  0.71010  0.63550  Biso   1.000  H
  H14      1.0000 0.37300  0.21010  0.63550  Biso   1.000  H
  H15      1.0000 0.12700  0.71010  0.86450  Biso   1.000  H
  H16      1.0000 0.62700  0.21010  0.86450  Biso   1.000  H
  H17      1.0000 0.16520  0.31280  0.27000  Biso   1.000  H
  H18      1.0000 0.66520  0.81280  0.27000  Biso   1.000  H
  H19      1.0000 0.83480  0.31280  0.23000  Biso   1.000  H
  H20      1.0000 0.33480  0.81280  0.23000  Biso   1.000  H
  H21      1.0000 0.83480  0.68720  0.73000  Biso   1.000  H
  H22      1.0000 0.33480  0.18720  0.73000  Biso   1.000  H
  H23      1.0000 0.16520  0.68720  0.77000  Biso   1.000  H
  H24      1.0000 0.66520  0.18720  0.77000  Biso   1.000  H
  C9       1.0000 0.08372  0.23682  0.19710  Biso   1.000  C
  C10      1.0000 0.58372  0.73682  0.19710  Biso   1.000  C
  C11      1.0000 0.91628  0.23682  0.30290  Biso   1.000  C
  C12      1.0000 0.41628  0.73682  0.30290  Biso   1.000  C
  C13      1.0000 0.91628  0.76318  0.80290  Biso   1.000  C
  C14      1.0000 0.41628  0.26318  0.80290  Biso   1.000  C
  C15      1.0000 0.08372  0.76318  0.69710  Biso   1.000  C
  C16      1.0000 0.58372  0.26318  0.69710  Biso   1.000  C
  C17      1.0000 0.01331  0.20793  0.19712  Biso   1.000  C
  C18      1.0000 0.51331  0.70793  0.19712  Biso   1.000  C
  C19      1.0000 0.98669  0.20793  0.30288  Biso   1.000  C
  C20      1.0000 0.48669  0.70793  0.30288  Biso   1.000  C
  C21      1.0000 0.98669  0.79207  0.80288  Biso   1.000  C
  C22      1.0000 0.48669  0.29207  0.80288  Biso   1.000  C
  C23      1.0000 0.01331  0.79207  0.69712  Biso   1.000  C
  C24      1.0000 0.51331  0.29207  0.69712  Biso   1.000  C
  C25      1.0000 0.97459  0.18010  0.07690  Biso   1.000  C
  C26      1.0000 0.47459  0.68010  0.07690  Biso   1.000  C
  C27      1.0000 0.02541  0.18010  0.42310  Biso   1.000  C
  C28      1.0000 0.52541  0.68010  0.42310  Biso   1.000  C
  C29      1.0000 0.02541  0.81990  0.92310  Biso   1.000  C
  C30      1.0000 0.52541  0.31990  0.92310  Biso   1.000  C
  C31      1.0000 0.97459  0.81990  0.57690  Biso   1.000  C
  C32      1.0000 0.47459  0.31990  0.57690  Biso   1.000  C
  C33      1.0000 0.89735  0.14254  0.01670  Biso   1.000  C
  C34      1.0000 0.39735  0.64254  0.01670  Biso   1.000  C
  C35      1.0000 0.10265  0.14254  0.48330  Biso   1.000  C
  C36      1.0000 0.60265  0.64254  0.48330  Biso   1.000  C
  C37      1.0000 0.10265  0.85746  0.98330  Biso   1.000  C
  C38      1.0000 0.60265  0.35746  0.98330  Biso   1.000  C
  C39      1.0000 0.89735  0.85746  0.51670  Biso   1.000  C
  C40      1.0000 0.39735  0.35746  0.51670  Biso   1.000  C
  H25      1.0000 0.85910  0.17100  0.95250  Biso   1.000  H
  H26      1.0000 0.35910  0.67100  0.95250  Biso   1.000  H
  H27      1.0000 0.14090  0.17100  0.54750  Biso   1.000  H
  H28      1.0000 0.64090  0.67100  0.54750  Biso   1.000  H
  H29      1.0000 0.14090  0.82900  0.04750  Biso   1.000  H
  H30      1.0000 0.64090  0.32900  0.04750  Biso   1.000  H
  H31      1.0000 0.85910  0.82900  0.45250  Biso   1.000  H
  H32      1.0000 0.35910  0.32900  0.45250  Biso   1.000  H
  H33      1.0000 0.87810  0.13130  0.08120  Biso   1.000  H
  H34      1.0000 0.37810  0.63130  0.08120  Biso   1.000  H
  H35      1.0000 0.12190  0.13130  0.41880  Biso   1.000  H
  H36      1.0000 0.62190  0.63130  0.41880  Biso   1.000  H
  H37      1.0000 0.12190  0.86870  0.91880  Biso   1.000  H
  H38      1.0000 0.62190  0.36870  0.91880  Biso   1.000  H
  H39      1.0000 0.87810  0.86870  0.58120  Biso   1.000  H
  H40      1.0000 0.37810  0.36870  0.58120  Biso   1.000  H
  H41      1.0000 0.90520  0.10110  0.97770  Biso   1.000  H
  H42      1.0000 0.40520  0.60110  0.97770  Biso   1.000  H
  H43      1.0000 0.09480  0.10110  0.52230  Biso   1.000  H
  H44      1.0000 0.59480  0.60110  0.52230  Biso   1.000  H
  H45      1.0000 0.09480  0.89890  0.02230  Biso   1.000  H
  H46      1.0000 0.59480  0.39890  0.02230  Biso   1.000  H
  H47      1.0000 0.90520  0.89890  0.47770  Biso   1.000  H
  H48      1.0000 0.40520  0.39890  0.47770  Biso   1.000  H
  C41      1.0000 0.24193  0.04545  0.74990  Biso   1.000  C
  C42      1.0000 0.74193  0.54545  0.74990  Biso   1.000  C
  C43      1.0000 0.75807  0.04545  0.75010  Biso   1.000  C
  C44      1.0000 0.25807  0.54545  0.75010  Biso   1.000  C
  C45      1.0000 0.75807  0.95455  0.25010  Biso   1.000  C
  C46      1.0000 0.25807  0.45455  0.25010  Biso   1.000  C
  C47      1.0000 0.24193  0.95455  0.24990  Biso   1.000  C
  C48      1.0000 0.74193  0.45455  0.24990  Biso   1.000  C
  H49      1.0000 0.29060  0.06610  0.76510  Biso   1.000  H
  H50      1.0000 0.79060  0.56610  0.76510  Biso   1.000  H
  H51      1.0000 0.70940  0.06610  0.73490  Biso   1.000  H
  H52      1.0000 0.20940  0.56610  0.73490  Biso   1.000  H
  H53      1.0000 0.70940  0.93390  0.23490  Biso   1.000  H
  H54      1.0000 0.20940  0.43390  0.23490  Biso   1.000  H
  H55      1.0000 0.29060  0.93390  0.26510  Biso   1.000  H
  H56      1.0000 0.79060  0.43390  0.26510  Biso   1.000  H
  C49      1.0000 0.21811  0.98864  0.67070  Biso   1.000  C
  C50      1.0000 0.71811  0.48864  0.67070  Biso   1.000  C
  C51      1.0000 0.78189  0.98864  0.82930  Biso   1.000  C
  C52      1.0000 0.28189  0.48864  0.82930  Biso   1.000  C
  C53      1.0000 0.78189  0.01136  0.32930  Biso   1.000  C
  C54      1.0000 0.28189  0.51136  0.32930  Biso   1.000  C
  C55      1.0000 0.21811  0.01136  0.17070  Biso   1.000  C
  C56      1.0000 0.71811  0.51136  0.17070  Biso   1.000  C
  H57      1.0000 0.25070  0.97150  0.63270  Biso   1.000  H
  H58      1.0000 0.75070  0.47150  0.63270  Biso   1.000  H
  H59      1.0000 0.74930  0.97150  0.86730  Biso   1.000  H
  H60      1.0000 0.24930  0.47150  0.86730  Biso   1.000  H
  H61      1.0000 0.74930  0.02850  0.36730  Biso   1.000  H
  H62      1.0000 0.24930  0.52850  0.36730  Biso   1.000  H
  H63      1.0000 0.25070  0.02850  0.13270  Biso   1.000  H
  H64      1.0000 0.75070  0.52850  0.13270  Biso   1.000  H
  C57      1.0000 0.14630  0.95735  0.64790  Biso   1.000  C
  C58      1.0000 0.64630  0.45735  0.64790  Biso   1.000  C
  C59      1.0000 0.85370  0.95735  0.85210  Biso   1.000  C
  C60      1.0000 0.35370  0.45735  0.85210  Biso   1.000  C
  C61      1.0000 0.85370  0.04265  0.35210  Biso   1.000  C
  C62      1.0000 0.35370  0.54265  0.35210  Biso   1.000  C
  C63      1.0000 0.14630  0.04265  0.14790  Biso   1.000  C
  C64      1.0000 0.64630  0.54265  0.14790  Biso   1.000  C
  H65      1.0000 0.13050  0.91890  0.59530  Biso   1.000  H
  H66      1.0000 0.63050  0.41890  0.59530  Biso   1.000  H
  H67      1.0000 0.86950  0.91890  0.90470  Biso   1.000  H
  H68      1.0000 0.36950  0.41890  0.90470  Biso   1.000  H
  H69      1.0000 0.86950  0.08110  0.40470  Biso   1.000  H
  H70      1.0000 0.36950  0.58110  0.40470  Biso   1.000  H
  H71      1.0000 0.13050  0.08110  0.09530  Biso   1.000  H
  H72      1.0000 0.63050  0.58110  0.09530  Biso   1.000  H
  C65      1.0000 0.09860  0.98329  0.70340  Biso   1.000  C
  C66      1.0000 0.59860  0.48329  0.70340  Biso   1.000  C
  C67      1.0000 0.90140  0.98329  0.79660  Biso   1.000  C
  C68      1.0000 0.40140  0.48329  0.79660  Biso   1.000  C
  C69      1.0000 0.90140  0.01671  0.29660  Biso   1.000  C
  C70      1.0000 0.40140  0.51671  0.29660  Biso   1.000  C
  C71      1.0000 0.09860  0.01671  0.20340  Biso   1.000  C
  C72      1.0000 0.59860  0.51671  0.20340  Biso   1.000  C
  H73      1.0000 0.05000  0.96240  0.68770  Biso   1.000  H
  H74      1.0000 0.55000  0.46240  0.68770  Biso   1.000  H
  H75      1.0000 0.95000  0.96240  0.81230  Biso   1.000  H
  H76      1.0000 0.45000  0.46240  0.81230  Biso   1.000  H
  H77      1.0000 0.95000  0.03760  0.31230  Biso   1.000  H
  H78      1.0000 0.45000  0.53760  0.31230  Biso   1.000  H
  H79      1.0000 0.05000  0.03760  0.18770  Biso   1.000  H
  H80      1.0000 0.55000  0.53760  0.18770  Biso   1.000  H
  C73      1.0000 0.12162  0.03998  0.78260  Biso   1.000  C
  C74      1.0000 0.62162  0.53998  0.78260  Biso   1.000  C
  C75      1.0000 0.87838  0.03998  0.71740  Biso   1.000  C
  C76      1.0000 0.37838  0.53998  0.71740  Biso   1.000  C
  C77      1.0000 0.87838  0.96002  0.21740  Biso   1.000  C
  C78      1.0000 0.37838  0.46002  0.21740  Biso   1.000  C
  C79      1.0000 0.12162  0.96002  0.28260  Biso   1.000  C
  C80      1.0000 0.62162  0.46002  0.28260  Biso   1.000  C
  H81      1.0000 0.08860  0.05690  0.82000  Biso   1.000  H
  H82      1.0000 0.58860  0.55690  0.82000  Biso   1.000  H
  H83      1.0000 0.91140  0.05690  0.68000  Biso   1.000  H
  H84      1.0000 0.41140  0.55690  0.68000  Biso   1.000  H
  H85      1.0000 0.91140  0.94310  0.18000  Biso   1.000  H
  H86      1.0000 0.41140  0.44310  0.18000  Biso   1.000  H
  H87      1.0000 0.08860  0.94310  0.32000  Biso   1.000  H
  H88      1.0000 0.58860  0.44310  0.32000  Biso   1.000  H
  C81      1.0000 0.19397  0.07173  0.80640  Biso   1.000  C
  C82      1.0000 0.69397  0.57173  0.80640  Biso   1.000  C
  C83      1.0000 0.80603  0.07173  0.69360  Biso   1.000  C
  C84      1.0000 0.30603  0.57173  0.69360  Biso   1.000  C
  C85      1.0000 0.80603  0.92827  0.19360  Biso   1.000  C
  C86      1.0000 0.30603  0.42827  0.19360  Biso   1.000  C
  C87      1.0000 0.19397  0.92827  0.30640  Biso   1.000  C
  C88      1.0000 0.69397  0.42827  0.30640  Biso   1.000  C
  C89      1.0000 0.21677  0.13569  0.88490  Biso   1.000  C
  C90      1.0000 0.71677  0.63569  0.88490  Biso   1.000  C
  C91      1.0000 0.78323  0.13569  0.61510  Biso   1.000  C
  C92      1.0000 0.28323  0.63569  0.61510  Biso   1.000  C
  C93      1.0000 0.78323  0.86431  0.11510  Biso   1.000  C
  C94      1.0000 0.28323  0.36431  0.11510  Biso   1.000  C
  C95      1.0000 0.21677  0.86431  0.38490  Biso   1.000  C
  C96      1.0000 0.71677  0.36431  0.38490  Biso   1.000  C
  C97      1.0000 0.16395  0.37921  0.60250  Biso   1.000  C
  C98      1.0000 0.66395  0.87921  0.60250  Biso   1.000  C
  C99      1.0000 0.83605  0.37921  0.89750  Biso   1.000  C
  C100     1.0000 0.33605  0.87921  0.89750  Biso   1.000  C
  C101     1.0000 0.83605  0.62079  0.39750  Biso   1.000  C
  C102     1.0000 0.33605  0.12079  0.39750  Biso   1.000  C
  C103     1.0000 0.16395  0.62079  0.10250  Biso   1.000  C
  C104     1.0000 0.66395  0.12079  0.10250  Biso   1.000  C
  H89      1.0000 0.21900  0.37410  0.63360  Biso   1.000  H
  H90      1.0000 0.71900  0.87410  0.63360  Biso   1.000  H
  H91      1.0000 0.78100  0.37410  0.86640  Biso   1.000  H
  H92      1.0000 0.28100  0.87410  0.86640  Biso   1.000  H
  H93      1.0000 0.78100  0.62590  0.36640  Biso   1.000  H
  H94      1.0000 0.28100  0.12590  0.36640  Biso   1.000  H
  H95      1.0000 0.21900  0.62590  0.13360  Biso   1.000  H
  H96      1.0000 0.71900  0.12590  0.13360  Biso   1.000  H
  C105     1.0000 0.12340  0.41769  0.49230  Biso   1.000  C
  C106     1.0000 0.62340  0.91769  0.49230  Biso   1.000  C
  C107     1.0000 0.87660  0.41769  0.00770  Biso   1.000  C
  C108     1.0000 0.37660  0.91769  0.00770  Biso   1.000  C
  C109     1.0000 0.87660  0.58231  0.50770  Biso   1.000  C
  C110     1.0000 0.37660  0.08231  0.50770  Biso   1.000  C
  C111     1.0000 0.12340  0.58231  0.99230  Biso   1.000  C
  C112     1.0000 0.62340  0.08231  0.99230  Biso   1.000  C
  H97      1.0000 0.15170  0.43870  0.45040  Biso   1.000  H
  H98      1.0000 0.65170  0.93870  0.45040  Biso   1.000  H
  H99      1.0000 0.84830  0.43870  0.04960  Biso   1.000  H
  H100     1.0000 0.34830  0.93870  0.04960  Biso   1.000  H
  H101     1.0000 0.84830  0.56130  0.54960  Biso   1.000  H
  H102     1.0000 0.34830  0.06130  0.54960  Biso   1.000  H
  H103     1.0000 0.15170  0.56130  0.95040  Biso   1.000  H
  H104     1.0000 0.65170  0.06130  0.95040  Biso   1.000  H
  C113     1.0000 0.04280  0.42485  0.44530  Biso   1.000  C
  C114     1.0000 0.54280  0.92485  0.44530  Biso   1.000  C
  C115     1.0000 0.95720  0.42485  0.05470  Biso   1.000  C
  C116     1.0000 0.45720  0.92485  0.05470  Biso   1.000  C
  C117     1.0000 0.95720  0.57515  0.55470  Biso   1.000  C
  C118     1.0000 0.45720  0.07515  0.55470  Biso   1.000  C
  C119     1.0000 0.04280  0.57515  0.94530  Biso   1.000  C
  C120     1.0000 0.54280  0.07515  0.94530  Biso   1.000  C
  H105     1.0000 0.01650  0.45150  0.37280  Biso   1.000  H
  H106     1.0000 0.51650  0.95150  0.37280  Biso   1.000  H
  H107     1.0000 0.98350  0.45150  0.12720  Biso   1.000  H
  H108     1.0000 0.48350  0.95150  0.12720  Biso   1.000  H
  H109     1.0000 0.98350  0.54850  0.62720  Biso   1.000  H
  H110     1.0000 0.48350  0.04850  0.62720  Biso   1.000  H
  H111     1.0000 0.01650  0.54850  0.87280  Biso   1.000  H
  H112     1.0000 0.51650  0.04850  0.87280  Biso   1.000  H
  C121     1.0000 0.00050  0.39290  0.50460  Biso   1.000  C
  C122     1.0000 0.50050  0.89290  0.50460  Biso   1.000  C
  C123     1.0000 0.99950  0.39290  0.99540  Biso   1.000  C
  C124     1.0000 0.49950  0.89290  0.99540  Biso   1.000  C
  C125     1.0000 0.99950  0.60710  0.49540  Biso   1.000  C
  C126     1.0000 0.49950  0.10710  0.49540  Biso   1.000  C
  C127     1.0000 0.00050  0.60710  0.00460  Biso   1.000  C
  C128     1.0000 0.50050  0.10710  0.00460  Biso   1.000  C
  H113     1.0000 0.94520  0.39630  0.47040  Biso   1.000  H
  H114     1.0000 0.44520  0.89630  0.47040  Biso   1.000  H
  H115     1.0000 0.05480  0.39630  0.02960  Biso   1.000  H
  H116     1.0000 0.55480  0.89630  0.02960  Biso   1.000  H
  H117     1.0000 0.05480  0.60370  0.52960  Biso   1.000  H
  H118     1.0000 0.55480  0.10370  0.52960  Biso   1.000  H
  H119     1.0000 0.94520  0.60370  0.97040  Biso   1.000  H
  H120     1.0000 0.44520  0.10370  0.97040  Biso   1.000  H
  C129     1.0000 0.03981  0.35562  0.61520  Biso   1.000  C
  C130     1.0000 0.53981  0.85562  0.61520  Biso   1.000  C
  C131     1.0000 0.96019  0.35562  0.88480  Biso   1.000  C
  C132     1.0000 0.46019  0.85562  0.88480  Biso   1.000  C
  C133     1.0000 0.96019  0.64438  0.38480  Biso   1.000  C
  C134     1.0000 0.46019  0.14438  0.38480  Biso   1.000  C
  C135     1.0000 0.03981  0.64438  0.11520  Biso   1.000  C
  C136     1.0000 0.53981  0.14438  0.11520  Biso   1.000  C
  H121     1.0000 0.01080  0.33500  0.65630  Biso   1.000  H
  H122     1.0000 0.51080  0.83500  0.65630  Biso   1.000  H
  H123     1.0000 0.98920  0.33500  0.84370  Biso   1.000  H
  H124     1.0000 0.48920  0.83500  0.84370  Biso   1.000  H
  H125     1.0000 0.98920  0.66500  0.34370  Biso   1.000  H
  H126     1.0000 0.48920  0.16500  0.34370  Biso   1.000  H
  H127     1.0000 0.01080  0.66500  0.15630  Biso   1.000  H
  H128     1.0000 0.51080  0.16500  0.15630  Biso   1.000  H
  C137     1.0000 0.12152  0.34860  0.66550  Biso   1.000  C
  C138     1.0000 0.62152  0.84860  0.66550  Biso   1.000  C
  C139     1.0000 0.87848  0.34860  0.83450  Biso   1.000  C
  C140     1.0000 0.37848  0.84860  0.83450  Biso   1.000  C
  C141     1.0000 0.87848  0.65140  0.33450  Biso   1.000  C
  C142     1.0000 0.37848  0.15140  0.33450  Biso   1.000  C
  C143     1.0000 0.12152  0.65140  0.16550  Biso   1.000  C
  C144     1.0000 0.62152  0.15140  0.16550  Biso   1.000  C
  C145     1.0000 0.16568  0.30976  0.78840  Biso   1.000  C
  C146     1.0000 0.66568  0.80976  0.78840  Biso   1.000  C
  C147     1.0000 0.83432  0.30976  0.71160  Biso   1.000  C
  C148     1.0000 0.33432  0.80976  0.71160  Biso   1.000  C
  C149     1.0000 0.83432  0.69024  0.21160  Biso   1.000  C
  C150     1.0000 0.33432  0.19024  0.21160  Biso   1.000  C
  C151     1.0000 0.16568  0.69024  0.28840  Biso   1.000  C
  C152     1.0000 0.66568  0.19024  0.28840  Biso   1.000  C
  H129     1.0000 0.01030  0.17820  0.93200  Biso   1.000  H
  H130     1.0000 0.51030  0.67820  0.93200  Biso   1.000  H
  H131     1.0000 0.98970  0.17820  0.56800  Biso   1.000  H
  H132     1.0000 0.48970  0.67820  0.56800  Biso   1.000  H
  H133     1.0000 0.98970  0.82180  0.06800  Biso   1.000  H
  H134     1.0000 0.48970  0.32180  0.06800  Biso   1.000  H
  H135     1.0000 0.01030  0.82180  0.43200  Biso   1.000  H
  H136     1.0000 0.51030  0.32180  0.43200  Biso   1.000  H
  O33      1.0000 0.00000  0.19046  0.75000  Biso   1.000  O
  O34      1.0000 0.50000  0.69046  0.75000  Biso   1.000  O
  O35      1.0000 0.00000  0.80954  0.25000  Biso   1.000  O
  O36      1.0000 0.50000  0.30954  0.25000  Biso   1.000  O
  H137     1.0000 0.03830  0.21980  0.77200  Biso   1.000  H
  H138     1.0000 0.53830  0.71980  0.77200  Biso   1.000  H
  H139     1.0000 0.96170  0.21980  0.72800  Biso   1.000  H
  H140     1.0000 0.46170  0.71980  0.72800  Biso   1.000  H
  H141     1.0000 0.96170  0.78020  0.22800  Biso   1.000  H
  H142     1.0000 0.46170  0.28020  0.22800  Biso   1.000  H
  H143     1.0000 0.03830  0.78020  0.27200  Biso   1.000  H
  H144     1.0000 0.53830  0.28020  0.27200  Biso   1.000  H
