data_image0
_cell_length_a       5.974
_cell_length_b       8.657
_cell_length_c       10.76
_cell_angle_alpha    95.07
_cell_angle_beta     88.3
_cell_angle_gamma    109.65

_symmetry_space_group_name_H-M    "P 1"
_symmetry_int_tables_number       1

loop_
  _symmetry_equiv_pos_as_xyz
  'x, y, z'

loop_
  _atom_site_label
  _atom_site_occupancy
  _atom_site_fract_x
  _atom_site_fract_y
  _atom_site_fract_z
  _atom_site_thermal_displace_type
  _atom_site_B_iso_or_equiv
  _atom_site_type_symbol
  Cu1      1.0000 0.00000  0.00000  0.00000  Biso   1.000  Cu
  S1       1.0000 0.49763  0.33628  0.14219  Biso   1.000  S
  S2       1.0000 0.50237  0.66372  0.85781  Biso   1.000  S
  O1       1.0000 0.37150  0.18610  0.06770  Biso   1.000  O
  O2       1.0000 0.62850  0.81390  0.93230  Biso   1.000  O
  O3       1.0000 0.75450  0.36660  0.14350  Biso   1.000  O
  O4       1.0000 0.24550  0.63340  0.85650  Biso   1.000  O
  O5       1.0000 0.40700  0.34660  0.26880  Biso   1.000  O
  O6       1.0000 0.59300  0.65340  0.73120  Biso   1.000  O
  C1       1.0000 0.45680  0.50030  0.06720  Biso   1.000  C
  C2       1.0000 0.54320  0.49970  0.93280  Biso   1.000  C
  O7       1.0000 0.88950  0.17840  0.96130  Biso   1.000  O
  O8       1.0000 0.11050  0.82160  0.03870  Biso   1.000  O
  O9       1.0000 0.87980  0.01220  0.17180  Biso   1.000  O
  O10      1.0000 0.12020  0.98780  0.82820  Biso   1.000  O
  H1       1.0000 0.28200  0.48600  0.07300  Biso   1.000  H
  H2       1.0000 0.71800  0.51400  0.92700  Biso   1.000  H
  H3       1.0000 0.54200  0.60200  0.12500  Biso   1.000  H
  H4       1.0000 0.45800  0.39800  0.87500  Biso   1.000  H
  H5       1.0000 0.86100  0.22000  0.02100  Biso   1.000  H
  H6       1.0000 0.13900  0.78000  0.97900  Biso   1.000  H
  H7       1.0000 0.79600  0.15300  0.91300  Biso   1.000  H
  H8       1.0000 0.20400  0.84700  0.08700  Biso   1.000  H
  H9       1.0000 0.78200  0.96900  0.17300  Biso   1.000  H
  H10      1.0000 0.21800  0.03100  0.82700  Biso   1.000  H
  H11      1.0000 0.94400  0.97900  0.22700  Biso   1.000  H
  H12      1.0000 0.05600  0.02100  0.77300  Biso   1.000  H
  Cu2      1.0000 0.00000  0.50000  0.50000  Biso   1.000  Cu
  S3       1.0000 0.73240  0.15049  0.64730  Biso   1.000  S
  S4       1.0000 0.26760  0.84951  0.35270  Biso   1.000  S
  O11      1.0000 0.71890  0.30510  0.61170  Biso   1.000  O
  O12      1.0000 0.28110  0.69490  0.38830  Biso   1.000  O
  O13      1.0000 0.97900  0.15430  0.66190  Biso   1.000  O
  O14      1.0000 0.02100  0.84570  0.33810  Biso   1.000  O
  O15      1.0000 0.59110  0.09410  0.75740  Biso   1.000  O
  O16      1.0000 0.40890  0.90590  0.24260  Biso   1.000  O
  C3       1.0000 0.62090  0.00090  0.52000  Biso   1.000  C
  C4       1.0000 0.37910  0.99910  0.48000  Biso   1.000  C
  O17      1.0000 0.25990  0.43090  0.56060  Biso   1.000  O
  O18      1.0000 0.74010  0.56910  0.43940  Biso   1.000  O
  O19      1.0000 0.03140  0.66480  0.64130  Biso   1.000  O
  O20      1.0000 0.96860  0.33520  0.35870  Biso   1.000  O
  H13      1.0000 0.73600  0.02600  0.44900  Biso   1.000  H
  H14      1.0000 0.26400  0.97400  0.55100  Biso   1.000  H
  H15      1.0000 0.60900  0.88500  0.56000  Biso   1.000  H
  H16      1.0000 0.39100  0.11500  0.44000  Biso   1.000  H
  H17      1.0000 0.37000  0.49200  0.59900  Biso   1.000  H
  H18      1.0000 0.63000  0.50800  0.40100  Biso   1.000  H
  H19      1.0000 0.18300  0.33100  0.58900  Biso   1.000  H
  H20      1.0000 0.81700  0.66900  0.41100  Biso   1.000  H
  H21      1.0000 0.91700  0.65900  0.66400  Biso   1.000  H
  H22      1.0000 0.08300  0.34100  0.33600  Biso   1.000  H
  H23      1.0000 0.10400  0.66900  0.70200  Biso   1.000  H
  H24      1.0000 0.89600  0.33100  0.29800  Biso   1.000  H
