data_image0
_cell_length_a       8.662
_cell_length_b       9.998
_cell_length_c       12.599
_cell_angle_alpha    90
_cell_angle_beta     107.466
_cell_angle_gamma    90

_symmetry_space_group_name_H-M    "P 1"
_symmetry_int_tables_number       1

loop_
  _symmetry_equiv_pos_as_xyz
  'x, y, z'

loop_
  _atom_site_label
  _atom_site_occupancy
  _atom_site_fract_x
  _atom_site_fract_y
  _atom_site_fract_z
  _atom_site_thermal_displace_type
  _atom_site_B_iso_or_equiv
  _atom_site_type_symbol
  Cu1      1.0000 0.45416  0.17280  0.22539  Biso   1.000  Cu
  Cu2      1.0000 0.54584  0.67280  0.77461  Biso   1.000  Cu
  S1       1.0000 0.29794  0.16232  0.01554  Biso   1.000  S
  S2       1.0000 0.70206  0.66232  0.98446  Biso   1.000  S
  F1       1.0000 0.94990  0.85680  0.30706  Biso   1.000  F
  F2       1.0000 0.05010  0.35680  0.69294  Biso   1.000  F
  O1       1.0000 0.66910  0.93960  0.14946  Biso   1.000  O
  O2       1.0000 0.33090  0.43960  0.85054  Biso   1.000  O
  N1       1.0000 0.45230  0.85590  0.76870  Biso   1.000  N
  N2       1.0000 0.54770  0.35590  0.23130  Biso   1.000  N
  C1       1.0000 0.42730  0.06730  0.85210  Biso   1.000  C
  C2       1.0000 0.57270  0.56730  0.14790  Biso   1.000  C
  F3       1.0000 0.00340  0.02130  0.21770  Biso   1.000  F
  F4       1.0000 0.99660  0.52130  0.78230  Biso   1.000  F
  O3       1.0000 0.68100  0.10850  0.26940  Biso   1.000  O
  O4       1.0000 0.31900  0.60850  0.73060  Biso   1.000  O
  C3       1.0000 0.49080  0.94110  0.85500  Biso   1.000  C
  C4       1.0000 0.50920  0.44110  0.14500  Biso   1.000  C
  H1       1.0000 0.56530  0.91280  0.92100  Biso   1.000  H
  H2       1.0000 0.43470  0.41280  0.07900  Biso   1.000  H
  C5       1.0000 0.28570  0.02680  0.66010  Biso   1.000  C
  C6       1.0000 0.71430  0.52680  0.33990  Biso   1.000  C
  H3       1.0000 0.21670  0.05500  0.59200  Biso   1.000  H
  H4       1.0000 0.78330  0.55500  0.40800  Biso   1.000  H
  C7       1.0000 0.14530  0.92890  0.93200  Biso   1.000  C
  C8       1.0000 0.85470  0.42890  0.06800  Biso   1.000  C
  H5       1.0000 0.11470  0.97510  0.86480  Biso   1.000  H
  H6       1.0000 0.88530  0.47510  0.13520  Biso   1.000  H
  F5       1.0000 0.97970  0.04870  0.38000  Biso   1.000  F
  F6       1.0000 0.02030  0.54870  0.62000  Biso   1.000  F
  C9       1.0000 0.13390  0.72910  0.03330  Biso   1.000  C
  C10      1.0000 0.86610  0.22910  0.96670  Biso   1.000  C
  H7       1.0000 0.10020  0.64100  0.03500  Biso   1.000  H
  H8       1.0000 0.89980  0.14100  0.96500  Biso   1.000  H
  C11      1.0000 0.27980  0.92460  0.12900  Biso   1.000  C
  C12      1.0000 0.72020  0.42460  0.87100  Biso   1.000  C
  C13      1.0000 0.32550  0.11200  0.75090  Biso   1.000  C
  C14      1.0000 0.67450  0.61200  0.24910  Biso   1.000  C
  H9       1.0000 0.28430  0.19860  0.74420  Biso   1.000  H
  H10      1.0000 0.71570  0.69860  0.25580  Biso   1.000  H
  N3       1.0000 0.36860  0.98840  0.22469  Biso   1.000  N
  N4       1.0000 0.63140  0.48840  0.77531  Biso   1.000  N
  C15      1.0000 0.22630  0.79100  0.13300  Biso   1.000  C
  C16      1.0000 0.77370  0.29100  0.86700  Biso   1.000  C
  C17      1.0000 0.24000  0.99280  0.02520  Biso   1.000  C
  C18      1.0000 0.76000  0.49280  0.97480  Biso   1.000  C
  C19      1.0000 0.46700  0.14960  0.95530  Biso   1.000  C
  C20      1.0000 0.53300  0.64960  0.04470  Biso   1.000  C
  H11      1.0000 0.49710  0.23880  0.93860  Biso   1.000  H
  H12      1.0000 0.50290  0.73880  0.06140  Biso   1.000  H
  H13      1.0000 0.55970  0.11050  0.01020  Biso   1.000  H
  H14      1.0000 0.44030  0.61050  0.98980  Biso   1.000  H
  C21      1.0000 0.26700  0.72510  0.23640  Biso   1.000  C
  C22      1.0000 0.73300  0.22510  0.76360  Biso   1.000  C
  H15      1.0000 0.23320  0.63750  0.24050  Biso   1.000  H
  H16      1.0000 0.76680  0.13750  0.75950  Biso   1.000  H
  C23      1.0000 0.09310  0.79640  0.93430  Biso   1.000  C
  C24      1.0000 0.90690  0.29640  0.06570  Biso   1.000  C
  H17      1.0000 0.03150  0.75490  0.86940  Biso   1.000  H
  H18      1.0000 0.96850  0.25490  0.13060  Biso   1.000  H
  C25      1.0000 0.35550  0.78890  0.33020  Biso   1.000  C
  C26      1.0000 0.64450  0.28890  0.66980  Biso   1.000  C
  H19      1.0000 0.38320  0.74620  0.39900  Biso   1.000  H
  H20      1.0000 0.61680  0.24620  0.60100  Biso   1.000  H
  C27      1.0000 0.73570  0.01190  0.22820  Biso   1.000  C
  C28      1.0000 0.26430  0.51190  0.77180  Biso   1.000  C
  C29      1.0000 0.91800  0.98580  0.28460  Biso   1.000  C
  C30      1.0000 0.08200  0.48580  0.71540  Biso   1.000  C
  C31      1.0000 0.34970  0.89970  0.67220  Biso   1.000  C
  C32      1.0000 0.65030  0.39970  0.32780  Biso   1.000  C
  H21      1.0000 0.32100  0.84210  0.61150  Biso   1.000  H
  H22      1.0000 0.67900  0.34210  0.38850  Biso   1.000  H
  C33      1.0000 0.40450  0.92270  0.32020  Biso   1.000  C
  C34      1.0000 0.59550  0.42270  0.67980  Biso   1.000  C
  H23      1.0000 0.46510  0.96650  0.38430  Biso   1.000  H
  H24      1.0000 0.53490  0.46650  0.61570  Biso   1.000  H
  O5       1.0000 0.26090  0.25960  0.25871  Biso   1.000  O
  O6       1.0000 0.73910  0.75960  0.74129  Biso   1.000  O
  F7       1.0000 0.24860  0.47650  0.42740  Biso   1.000  F
  F8       1.0000 0.75140  0.97650  0.57260  Biso   1.000  F
  O7       1.0000 0.41630  0.21410  0.42994  Biso   1.000  O
  O8       1.0000 0.58370  0.71410  0.57006  Biso   1.000  O
  F9       1.0000 0.04010  0.36200  0.34460  Biso   1.000  F
  F10      1.0000 0.95990  0.86200  0.65540  Biso   1.000  F
  C35      1.0000 0.30040  0.26510  0.36260  Biso   1.000  C
  C36      1.0000 0.69960  0.76510  0.63740  Biso   1.000  C
  C37      1.0000 0.18890  0.35230  0.40980  Biso   1.000  C
  C38      1.0000 0.81110  0.85230  0.59020  Biso   1.000  C
  F11      1.0000 0.18340  0.31070  0.50674  Biso   1.000  F
  F12      1.0000 0.81660  0.81070  0.49326  Biso   1.000  F
