data_image0
_cell_length_a       14.674
_cell_length_b       14.407
_cell_length_c       7.0563
_cell_angle_alpha    90
_cell_angle_beta     103.838
_cell_angle_gamma    90

_symmetry_space_group_name_H-M    "P 1"
_symmetry_int_tables_number       1

loop_
  _symmetry_equiv_pos_as_xyz
  'x, y, z'

loop_
  _atom_site_label
  _atom_site_occupancy
  _atom_site_fract_x
  _atom_site_fract_y
  _atom_site_fract_z
  _atom_site_thermal_displace_type
  _atom_site_B_iso_or_equiv
  _atom_site_type_symbol
  Cu1      1.0000 0.29810  0.30033  0.36193  Biso   1.000  Cu
  Cu2      1.0000 0.70190  0.80033  0.13807  Biso   1.000  Cu
  Cu3      1.0000 0.70190  0.69967  0.63807  Biso   1.000  Cu
  Cu4      1.0000 0.29810  0.19967  0.86193  Biso   1.000  Cu
  Cl1      1.0000 0.40408  0.21479  0.57380  Biso   1.000  Cl
  Cl2      1.0000 0.59592  0.71479  0.92620  Biso   1.000  Cl
  Cl3      1.0000 0.59592  0.78521  0.42620  Biso   1.000  Cl
  Cl4      1.0000 0.40408  0.28521  0.07380  Biso   1.000  Cl
  Cl5      1.0000 0.20071  0.18252  0.23860  Biso   1.000  Cl
  Cl6      1.0000 0.79929  0.68252  0.26140  Biso   1.000  Cl
  Cl7      1.0000 0.79929  0.81748  0.76140  Biso   1.000  Cl
  Cl8      1.0000 0.20071  0.31748  0.73860  Biso   1.000  Cl
  O1       1.0000 0.21730  0.38210  0.16480  Biso   1.000  O
  O2       1.0000 0.78270  0.88210  0.33520  Biso   1.000  O
  O3       1.0000 0.78270  0.61790  0.83520  Biso   1.000  O
  O4       1.0000 0.21730  0.11790  0.66480  Biso   1.000  O
  H1       1.0000 0.20900  0.35800  0.04900  Biso   1.000  H
  H2       1.0000 0.79100  0.85800  0.45100  Biso   1.000  H
  H3       1.0000 0.79100  0.64200  0.95100  Biso   1.000  H
  H4       1.0000 0.20900  0.14200  0.54900  Biso   1.000  H
  O5       1.0000 0.12510  0.52610  0.31400  Biso   1.000  O
  O6       1.0000 0.87490  0.02610  0.18600  Biso   1.000  O
  O7       1.0000 0.87490  0.47390  0.68600  Biso   1.000  O
  O8       1.0000 0.12510  0.97390  0.81400  Biso   1.000  O
  N1       1.0000 0.34720  0.42470  0.46480  Biso   1.000  N
  N2       1.0000 0.65280  0.92470  0.03520  Biso   1.000  N
  N3       1.0000 0.65280  0.57530  0.53520  Biso   1.000  N
  N4       1.0000 0.34720  0.07530  0.96480  Biso   1.000  N
  C1       1.0000 0.25640  0.47410  0.14650  Biso   1.000  C
  C2       1.0000 0.74360  0.97410  0.35350  Biso   1.000  C
  C3       1.0000 0.74360  0.52590  0.85350  Biso   1.000  C
  C4       1.0000 0.25640  0.02590  0.64650  Biso   1.000  C
  H5       1.0000 0.29280  0.47190  0.04680  Biso   1.000  H
  H6       1.0000 0.70720  0.97190  0.45320  Biso   1.000  H
  H7       1.0000 0.70720  0.52810  0.95320  Biso   1.000  H
  H8       1.0000 0.29280  0.02810  0.54680  Biso   1.000  H
  C5       1.0000 0.10970  0.55330  0.17100  Biso   1.000  C
  C6       1.0000 0.89030  0.05330  0.32900  Biso   1.000  C
  C7       1.0000 0.89030  0.44670  0.82900  Biso   1.000  C
  C8       1.0000 0.10970  0.94670  0.67100  Biso   1.000  C
  C9       1.0000 0.32100  0.49620  0.34060  Biso   1.000  C
  C10      1.0000 0.67900  0.99620  0.15940  Biso   1.000  C
  C11      1.0000 0.67900  0.50380  0.65940  Biso   1.000  C
  C12      1.0000 0.32100  0.00380  0.84060  Biso   1.000  C
  C13      1.0000 0.43820  0.52890  0.69580  Biso   1.000  C
  C14      1.0000 0.56180  0.02890  0.80420  Biso   1.000  C
  C15      1.0000 0.56180  0.47110  0.30420  Biso   1.000  C
  C16      1.0000 0.43820  0.97110  0.19580  Biso   1.000  C
  H9       1.0000 0.47660  0.53890  0.81950  Biso   1.000  H
  H10      1.0000 0.52340  0.03890  0.68050  Biso   1.000  H
  H11      1.0000 0.52340  0.46110  0.18050  Biso   1.000  H
  H12      1.0000 0.47660  0.96110  0.31950  Biso   1.000  H
  C17      1.0000 0.35630  0.58440  0.38740  Biso   1.000  C
  C18      1.0000 0.64370  0.08440  0.11260  Biso   1.000  C
  C19      1.0000 0.64370  0.41560  0.61260  Biso   1.000  C
  C20      1.0000 0.35630  0.91560  0.88740  Biso   1.000  C
  H13      1.0000 0.34010  0.63270  0.29810  Biso   1.000  H
  H14      1.0000 0.65990  0.13270  0.20190  Biso   1.000  H
  H15      1.0000 0.65990  0.36730  0.70190  Biso   1.000  H
  H16      1.0000 0.34010  0.86730  0.79810  Biso   1.000  H
  C21      1.0000 0.40310  0.44160  0.63880  Biso   1.000  C
  C22      1.0000 0.59690  0.94160  0.86120  Biso   1.000  C
  C23      1.0000 0.59690  0.55840  0.36120  Biso   1.000  C
  C24      1.0000 0.40310  0.05840  0.13880  Biso   1.000  C
  H17      1.0000 0.41930  0.39260  0.72620  Biso   1.000  H
  H18      1.0000 0.58070  0.89260  0.77380  Biso   1.000  H
  H19      1.0000 0.58070  0.60740  0.27380  Biso   1.000  H
  H20      1.0000 0.41930  0.10740  0.22620  Biso   1.000  H
  C25      1.0000 0.41480  0.59990  0.56530  Biso   1.000  C
  C26      1.0000 0.58520  0.09990  0.93470  Biso   1.000  C
  C27      1.0000 0.58520  0.40010  0.43470  Biso   1.000  C
  C28      1.0000 0.41480  0.90010  0.06530  Biso   1.000  C
  H21      1.0000 0.43900  0.65900  0.59800  Biso   1.000  H
  H22      1.0000 0.56100  0.15900  0.90200  Biso   1.000  H
  H23      1.0000 0.56100  0.34100  0.40200  Biso   1.000  H
  H24      1.0000 0.43900  0.84100  0.09800  Biso   1.000  H
  C29      1.0000 0.17880  0.54330  0.08660  Biso   1.000  C
  C30      1.0000 0.82120  0.04330  0.41340  Biso   1.000  C
  C31      1.0000 0.82120  0.45670  0.91340  Biso   1.000  C
  C32      1.0000 0.17880  0.95670  0.58660  Biso   1.000  C
  C33      1.0000 0.05760  0.53600  0.41100  Biso   1.000  C
  C34      1.0000 0.94240  0.03600  0.08900  Biso   1.000  C
  C35      1.0000 0.94240  0.46400  0.58900  Biso   1.000  C
  C36      1.0000 0.05760  0.96400  0.91100  Biso   1.000  C
  H25      1.0000 0.03230  0.59770  0.39150  Biso   1.000  H
  H26      1.0000 0.96770  0.09770  0.10850  Biso   1.000  H
  H27      1.0000 0.96770  0.40230  0.60850  Biso   1.000  H
  H28      1.0000 0.03230  0.90230  0.89150  Biso   1.000  H
  H29      1.0000 0.08350  0.52570  0.54770  Biso   1.000  H
  H30      1.0000 0.91650  0.02570  0.95230  Biso   1.000  H
  H31      1.0000 0.91650  0.47430  0.45230  Biso   1.000  H
  H32      1.0000 0.08350  0.97430  0.04770  Biso   1.000  H
  H33      1.0000 0.00860  0.49170  0.36320  Biso   1.000  H
  H34      1.0000 0.99140  0.99170  0.13680  Biso   1.000  H
  H35      1.0000 0.99140  0.50830  0.63680  Biso   1.000  H
  H36      1.0000 0.00860  0.00830  0.86320  Biso   1.000  H
  C37      1.0000 0.17490  0.59860  0.92500  Biso   1.000  C
  C38      1.0000 0.82510  0.09860  0.57500  Biso   1.000  C
  C39      1.0000 0.82510  0.40140  0.07500  Biso   1.000  C
  C40      1.0000 0.17490  0.90140  0.42500  Biso   1.000  C
  C41      1.0000 0.09850  0.66130  0.86100  Biso   1.000  C
  C42      1.0000 0.90150  0.16130  0.63900  Biso   1.000  C
  C43      1.0000 0.90150  0.33870  0.13900  Biso   1.000  C
  C44      1.0000 0.09850  0.83870  0.36100  Biso   1.000  C
  H37      1.0000 0.09340  0.69970  0.75350  Biso   1.000  H
  H38      1.0000 0.90660  0.19970  0.74650  Biso   1.000  H
  H39      1.0000 0.90660  0.30030  0.24650  Biso   1.000  H
  H40      1.0000 0.09340  0.80030  0.25350  Biso   1.000  H
  C45      1.0000 0.03380  0.60980  0.11800  Biso   1.000  C
  C46      1.0000 0.96620  0.10980  0.38200  Biso   1.000  C
  C47      1.0000 0.96620  0.39020  0.88200  Biso   1.000  C
  C48      1.0000 0.03380  0.89020  0.61800  Biso   1.000  C
  H41      1.0000 0.98610  0.61070  0.18450  Biso   1.000  H
  H42      1.0000 0.01390  0.11070  0.31550  Biso   1.000  H
  H43      1.0000 0.01390  0.38930  0.81550  Biso   1.000  H
  H44      1.0000 0.98610  0.88930  0.68450  Biso   1.000  H
  C49      1.0000 0.03230  0.66070  0.97300  Biso   1.000  C
  C50      1.0000 0.96770  0.16070  0.52700  Biso   1.000  C
  C51      1.0000 0.96770  0.33930  0.02700  Biso   1.000  C
  C52      1.0000 0.03230  0.83930  0.47300  Biso   1.000  C
  H45      1.0000 0.98220  0.70170  0.93640  Biso   1.000  H
  H46      1.0000 0.01780  0.20170  0.56360  Biso   1.000  H
  H47      1.0000 0.01780  0.29830  0.06360  Biso   1.000  H
  H48      1.0000 0.98220  0.79830  0.43640  Biso   1.000  H
  C53      1.0000 0.23470  0.68000  0.75000  Biso   1.000  C
  C54      1.0000 0.76530  0.18000  0.75000  Biso   1.000  C
  C55      1.0000 0.76530  0.32000  0.25000  Biso   1.000  C
  C56      1.0000 0.23470  0.82000  0.25000  Biso   1.000  C
  H49      1.0000 0.17990  0.67180  0.64550  Biso   1.000  H
  H50      1.0000 0.82010  0.17180  0.85450  Biso   1.000  H
  H51      1.0000 0.82010  0.32820  0.35450  Biso   1.000  H
  H52      1.0000 0.17990  0.82820  0.14550  Biso   1.000  H
  H53      1.0000 0.28980  0.67640  0.69990  Biso   1.000  H
  H54      1.0000 0.71020  0.17640  0.80010  Biso   1.000  H
  H55      1.0000 0.71020  0.32360  0.30010  Biso   1.000  H
  H56      1.0000 0.28980  0.82360  0.19990  Biso   1.000  H
  H57      1.0000 0.23210  0.73960  0.80970  Biso   1.000  H
  H58      1.0000 0.76790  0.23960  0.69030  Biso   1.000  H
  H59      1.0000 0.76790  0.26040  0.19030  Biso   1.000  H
  H60      1.0000 0.23210  0.76040  0.30970  Biso   1.000  H
  O9       1.0000 0.23760  0.61180  0.88640  Biso   1.000  O
  O10      1.0000 0.76240  0.11180  0.61360  Biso   1.000  O
  O11      1.0000 0.76240  0.38820  0.11360  Biso   1.000  O
  O12      1.0000 0.23760  0.88820  0.38640  Biso   1.000  O
