data_image0
_cell_length_a       8.7778
_cell_length_b       9.206
_cell_length_c       12.919
_cell_angle_alpha    80.194
_cell_angle_beta     84.726
_cell_angle_gamma    74.412

_symmetry_space_group_name_H-M    "P 1"
_symmetry_int_tables_number       1

loop_
  _symmetry_equiv_pos_as_xyz
  'x, y, z'

loop_
  _atom_site_label
  _atom_site_occupancy
  _atom_site_fract_x
  _atom_site_fract_y
  _atom_site_fract_z
  _atom_site_thermal_displace_type
  _atom_site_B_iso_or_equiv
  _atom_site_type_symbol
  Cu1      1.0000 0.50000  0.50000  0.00000  Biso   1.000  Cu
  Cu2      1.0000 0.00000  0.50000  0.00000  Biso   1.000  Cu
  Cl1      1.0000 0.79641  0.32626  0.05775  Biso   1.000  Cl
  Cl2      1.0000 0.20359  0.67374  0.94225  Biso   1.000  Cl
  O1       1.0000 0.16120  0.33910  0.94650  Biso   1.000  O
  O2       1.0000 0.83880  0.66090  0.05350  Biso   1.000  O
  O3       1.0000 0.59830  0.58300  0.87220  Biso   1.000  O
  O4       1.0000 0.40170  0.41700  0.12780  Biso   1.000  O
  O5       1.0000 0.46200  0.33670  0.92890  Biso   1.000  O
  O6       1.0000 0.53800  0.66330  0.07110  Biso   1.000  O
  H1       1.0000 0.37510  0.31400  0.93100  Biso   1.000  H
  H2       1.0000 0.62490  0.68600  0.06900  Biso   1.000  H
  O7       1.0000 0.90470  0.56050  0.85920  Biso   1.000  O
  O8       1.0000 0.09530  0.43950  0.14080  Biso   1.000  O
  H3       1.0000 0.80760  0.58800  0.84800  Biso   1.000  H
  H4       1.0000 0.19240  0.41200  0.15200  Biso   1.000  H
  O9       1.0000 0.27480  0.42340  0.53020  Biso   1.000  O
  O10      1.0000 0.72520  0.57660  0.46980  Biso   1.000  O
  H5       1.0000 0.27300  0.34300  0.50900  Biso   1.000  H
  H6       1.0000 0.72700  0.65700  0.49100  Biso   1.000  H
  O11      1.0000 0.76870  0.35850  0.64530  Biso   1.000  O
  O12      1.0000 0.23130  0.64150  0.35470  Biso   1.000  O
  H7       1.0000 0.75400  0.42780  0.59300  Biso   1.000  H
  H8       1.0000 0.24600  0.57220  0.40700  Biso   1.000  H
  N1       1.0000 0.39840  0.76500  0.63960  Biso   1.000  N
  N2       1.0000 0.60160  0.23500  0.36040  Biso   1.000  N
  N3       1.0000 0.11980  0.01060  0.85430  Biso   1.000  N
  N4       1.0000 0.88020  0.98940  0.14570  Biso   1.000  N
  C1       1.0000 0.39990  0.50400  0.66040  Biso   1.000  C
  C2       1.0000 0.60010  0.49600  0.33960  Biso   1.000  C
  C3       1.0000 0.47690  0.74830  0.72620  Biso   1.000  C
  C4       1.0000 0.52310  0.25170  0.27380  Biso   1.000  C
  C5       1.0000 0.52710  0.32760  0.82250  Biso   1.000  C
  C6       1.0000 0.47290  0.67240  0.17750  Biso   1.000  C
  H9       1.0000 0.48930  0.25160  0.79330  Biso   1.000  H
  H10      1.0000 0.51070  0.74840  0.20670  Biso   1.000  H
  H11      1.0000 0.64410  0.29350  0.82290  Biso   1.000  H
  H12      1.0000 0.35590  0.70650  0.17710  Biso   1.000  H
  C7       1.0000 0.11790  0.25510  0.88740  Biso   1.000  C
  C8       1.0000 0.88210  0.74490  0.11260  Biso   1.000  C
  C9       1.0000 0.51990  0.60270  0.78650  Biso   1.000  C
  C10      1.0000 0.48010  0.39730  0.21350  Biso   1.000  C
  C11      1.0000 0.00280  0.22220  0.73210  Biso   1.000  C
  C12      1.0000 0.99720  0.77780  0.26790  Biso   1.000  C
  C13      1.0000 0.16010  0.09560  0.91670  Biso   1.000  C
  C14      1.0000 0.83990  0.90440  0.08330  Biso   1.000  C
  C15      1.0000 0.03310  0.31930  0.79660  Biso   1.000  C
  C16      1.0000 0.96690  0.68070  0.20340  Biso   1.000  C
  C17      1.0000 0.47820  0.48120  0.75350  Biso   1.000  C
  C18      1.0000 0.52180  0.51880  0.24650  Biso   1.000  C
  C19      1.0000 0.35830  0.65020  0.60490  Biso   1.000  C
  C20      1.0000 0.64170  0.34980  0.39510  Biso   1.000  C
  H13      1.0000 0.30180  0.67000  0.54250  Biso   1.000  H
  H14      1.0000 0.69820  0.33000  0.45750  Biso   1.000  H
  C21      1.0000 0.98980  0.49020  0.77070  Biso   1.000  C
  C22      1.0000 0.01020  0.50980  0.22930  Biso   1.000  C
  H15      1.0000 0.08730  0.52540  0.75200  Biso   1.000  H
  H16      1.0000 0.91270  0.47460  0.24800  Biso   1.000  H
  H17      1.0000 0.92290  0.52250  0.70900  Biso   1.000  H
  H18      1.0000 0.07710  0.47750  0.29100  Biso   1.000  H
  C23      1.0000 0.36620  0.37170  0.62010  Biso   1.000  C
  C24      1.0000 0.63380  0.62830  0.37990  Biso   1.000  C
  H19      1.0000 0.46740  0.29970  0.60210  Biso   1.000  H
  H20      1.0000 0.53260  0.70030  0.39790  Biso   1.000  H
  H21      1.0000 0.30850  0.31660  0.67590  Biso   1.000  H
  H22      1.0000 0.69150  0.68340  0.32410  Biso   1.000  H
  C25      1.0000 0.24530  0.02230  0.01380  Biso   1.000  C
  C26      1.0000 0.75470  0.97770  0.98620  Biso   1.000  C
  H23      1.0000 0.24390  0.91470  0.02890  Biso   1.000  H
  H24      1.0000 0.75610  0.08530  0.97110  Biso   1.000  H
  H25      1.0000 0.19310  0.07410  0.07280  Biso   1.000  H
  H26      1.0000 0.80690  0.92590  0.92720  Biso   1.000  H
  H27      1.0000 0.35510  0.02980  0.00390  Biso   1.000  H
  H28      1.0000 0.64490  0.97020  0.99610  Biso   1.000  H
  C27      1.0000 0.04730  0.06700  0.76500  Biso   1.000  C
  C28      1.0000 0.95270  0.93300  0.23500  Biso   1.000  C
  H29      1.0000 0.02600  0.99980  0.72330  Biso   1.000  H
  H30      1.0000 0.97400  0.00020  0.27670  Biso   1.000  H
  C29      1.0000 0.92890  0.28190  0.62730  Biso   1.000  C
  C30      1.0000 0.07110  0.71810  0.37270  Biso   1.000  C
  H31      1.0000 0.98550  0.35290  0.58470  Biso   1.000  H
  H32      1.0000 0.01450  0.64710  0.41530  Biso   1.000  H
  H33      1.0000 0.93610  0.19630  0.58840  Biso   1.000  H
  H34      1.0000 0.06390  0.80370  0.41160  Biso   1.000  H
  C31      1.0000 0.51380  0.88190  0.75890  Biso   1.000  C
  C32      1.0000 0.48620  0.11810  0.24110  Biso   1.000  C
  H35      1.0000 0.62790  0.87230  0.74890  Biso   1.000  H
  H36      1.0000 0.37210  0.12770  0.25110  Biso   1.000  H
  H37      1.0000 0.48130  0.88570  0.83330  Biso   1.000  H
  H38      1.0000 0.51870  0.11430  0.16670  Biso   1.000  H
  H39      1.0000 0.45640  0.97580  0.71620  Biso   1.000  H
  H40      1.0000 0.54360  0.02420  0.28380  Biso   1.000  H
  H41      1.0000 0.35900  0.85700  0.60600  Biso   1.000  H
  H42      1.0000 0.64100  0.14300  0.39400  Biso   1.000  H
  H43      1.0000 0.15200  0.91250  0.87800  Biso   1.000  H
  H44      1.0000 0.84800  0.08750  0.12200  Biso   1.000  H
  O13      1.0000 0.30590  0.07390  0.55310  Biso   1.000  O
  O14      1.0000 0.69410  0.92610  0.44690  Biso   1.000  O
  O15      1.0000 0.20200  0.22040  0.41700  Biso   1.000  O
  O16      1.0000 0.79800  0.77960  0.58300  Biso   1.000  O
  N5       1.0000 0.24590  0.08850  0.46910  Biso   1.000  N
  N6       1.0000 0.75410  0.91150  0.53090  Biso   1.000  N
  O17      1.0000 0.23210  0.97420  0.43360  Biso   1.000  O
  O18      1.0000 0.76790  0.02580  0.56640  Biso   1.000  O
