data_image0
_cell_length_a       10.999
_cell_length_b       6.9933
_cell_length_c       12.621
_cell_angle_alpha    90
_cell_angle_beta     96.22
_cell_angle_gamma    90

_symmetry_space_group_name_H-M    "P 1"
_symmetry_int_tables_number       1

loop_
  _symmetry_equiv_pos_as_xyz
  'x, y, z'

loop_
  _atom_site_label
  _atom_site_occupancy
  _atom_site_fract_x
  _atom_site_fract_y
  _atom_site_fract_z
  _atom_site_thermal_displace_type
  _atom_site_B_iso_or_equiv
  _atom_site_type_symbol
  Cu1      1.0000 0.11462  0.50304  0.62304  Biso   1.000  Cu
  Cu2      1.0000 0.38538  0.00304  0.87696  Biso   1.000  Cu
  Cu3      1.0000 0.88538  0.49696  0.37696  Biso   1.000  Cu
  Cu4      1.0000 0.61462  0.99696  0.12304  Biso   1.000  Cu
  Cl1      1.0000 0.14207  0.35967  0.46720  Biso   1.000  Cl
  Cl2      1.0000 0.35793  0.85967  0.03280  Biso   1.000  Cl
  Cl3      1.0000 0.85793  0.64033  0.53280  Biso   1.000  Cl
  Cl4      1.0000 0.64207  0.14033  0.96720  Biso   1.000  Cl
  O1       1.0000 0.19284  0.88060  0.78233  Biso   1.000  O
  O2       1.0000 0.30716  0.38060  0.71767  Biso   1.000  O
  O3       1.0000 0.80716  0.11940  0.21767  Biso   1.000  O
  O4       1.0000 0.69284  0.61940  0.28233  Biso   1.000  O
  C1       1.0000 0.87670  0.20260  0.78190  Biso   1.000  C
  C2       1.0000 0.62330  0.70260  0.71810  Biso   1.000  C
  C3       1.0000 0.12330  0.79740  0.21810  Biso   1.000  C
  C4       1.0000 0.37670  0.29740  0.28190  Biso   1.000  C
  H1       1.0000 0.82760  0.20250  0.83740  Biso   1.000  H
  H2       1.0000 0.67240  0.70250  0.66260  Biso   1.000  H
  H3       1.0000 0.17240  0.79750  0.16260  Biso   1.000  H
  H4       1.0000 0.32760  0.29750  0.33740  Biso   1.000  H
  C5       1.0000 0.88280  0.06360  0.70700  Biso   1.000  C
  C6       1.0000 0.61720  0.56360  0.79300  Biso   1.000  C
  C7       1.0000 0.11720  0.93640  0.29300  Biso   1.000  C
  C8       1.0000 0.38280  0.43640  0.20700  Biso   1.000  C
  H5       1.0000 0.83790  0.95070  0.70050  Biso   1.000  H
  H6       1.0000 0.66210  0.45070  0.79950  Biso   1.000  H
  H7       1.0000 0.16210  0.04930  0.29950  Biso   1.000  H
  H8       1.0000 0.33790  0.54930  0.20050  Biso   1.000  H
  C9       1.0000 0.97070  0.12560  0.64160  Biso   1.000  C
  C10      1.0000 0.52930  0.62560  0.85840  Biso   1.000  C
  C11      1.0000 0.02930  0.87440  0.35840  Biso   1.000  C
  C12      1.0000 0.47070  0.37440  0.14160  Biso   1.000  C
  H9       1.0000 0.99420  0.05710  0.58400  Biso   1.000  H
  H10      1.0000 0.50580  0.55710  0.91600  Biso   1.000  H
  H11      1.0000 0.00580  0.94290  0.41600  Biso   1.000  H
  H12      1.0000 0.49420  0.44290  0.08400  Biso   1.000  H
  C13      1.0000 0.98620  0.51660  0.80890  Biso   1.000  C
  C14      1.0000 0.51380  0.01660  0.69110  Biso   1.000  C
  C15      1.0000 0.01380  0.48340  0.19110  Biso   1.000  C
  C16      1.0000 0.48620  0.98340  0.30890  Biso   1.000  C
  C17      1.0000 0.95910  0.73190  0.93650  Biso   1.000  C
  C18      1.0000 0.54090  0.23190  0.56350  Biso   1.000  C
  C19      1.0000 0.04090  0.26810  0.06350  Biso   1.000  C
  C20      1.0000 0.45910  0.76810  0.43650  Biso   1.000  C
  C21      1.0000 0.11250  0.77780  0.81480  Biso   1.000  C
  C22      1.0000 0.38750  0.27780  0.68520  Biso   1.000  C
  C23      1.0000 0.88750  0.22220  0.18520  Biso   1.000  C
  C24      1.0000 0.61250  0.72220  0.31480  Biso   1.000  C
  N1       1.0000 0.95680  0.34160  0.75930  Biso   1.000  N
  N2       1.0000 0.54320  0.84160  0.74070  Biso   1.000  N
  N3       1.0000 0.04320  0.65840  0.24070  Biso   1.000  N
  N4       1.0000 0.45680  0.15840  0.25930  Biso   1.000  N
  N5       1.0000 0.01520  0.29340  0.67280  Biso   1.000  N
  N6       1.0000 0.48480  0.79340  0.82720  Biso   1.000  N
  N7       1.0000 0.98480  0.70660  0.32720  Biso   1.000  N
  N8       1.0000 0.51520  0.20660  0.17280  Biso   1.000  N
  N9       1.0000 0.07440  0.61190  0.76420  Biso   1.000  N
  N10      1.0000 0.42560  0.11190  0.73580  Biso   1.000  N
  N11      1.0000 0.92560  0.38810  0.23580  Biso   1.000  N
  N12      1.0000 0.57440  0.88810  0.26420  Biso   1.000  N
  N13      1.0000 0.05520  0.82880  0.90120  Biso   1.000  N
  N14      1.0000 0.44480  0.32880  0.59880  Biso   1.000  N
  N15      1.0000 0.94480  0.17120  0.09880  Biso   1.000  N
  N16      1.0000 0.55520  0.67120  0.40120  Biso   1.000  N
  H13      1.0000 0.08130  0.92910  0.93600  Biso   1.000  H
  H14      1.0000 0.41870  0.42910  0.56400  Biso   1.000  H
  H15      1.0000 0.91870  0.07090  0.06400  Biso   1.000  H
  H16      1.0000 0.58130  0.57090  0.43600  Biso   1.000  H
  N17      1.0000 0.92610  0.56180  0.88860  Biso   1.000  N
  N18      1.0000 0.57390  0.06180  0.61140  Biso   1.000  N
  N19      1.0000 0.07390  0.43820  0.11140  Biso   1.000  N
  N20      1.0000 0.42610  0.93820  0.38860  Biso   1.000  N
  O5       1.0000 0.90680  0.80010  0.00962  Biso   1.000  O
  O6       1.0000 0.59320  0.30010  0.49038  Biso   1.000  O
  O7       1.0000 0.09320  0.19990  0.99038  Biso   1.000  O
  O8       1.0000 0.40680  0.69990  0.50962  Biso   1.000  O
  O9       1.0000 0.18830  0.74520  0.58557  Biso   1.000  O
  O10      1.0000 0.31170  0.24520  0.91443  Biso   1.000  O
  O11      1.0000 0.81170  0.25480  0.41443  Biso   1.000  O
  O12      1.0000 0.68830  0.75480  0.08557  Biso   1.000  O
  H17      1.0000 0.24660  0.72370  0.55200  Biso   1.000  H
  H18      1.0000 0.25340  0.22370  0.94800  Biso   1.000  H
  H19      1.0000 0.75340  0.27630  0.44800  Biso   1.000  H
  H20      1.0000 0.74660  0.77630  0.05200  Biso   1.000  H
  H21      1.0000 0.22100  0.79800  0.63700  Biso   1.000  H
  H22      1.0000 0.27900  0.29800  0.86300  Biso   1.000  H
  H23      1.0000 0.77900  0.20200  0.36300  Biso   1.000  H
  H24      1.0000 0.72100  0.70200  0.13700  Biso   1.000  H
