data_image0
_cell_length_a       10.8665
_cell_length_b       6.9642
_cell_length_c       12.5714
_cell_angle_alpha    90
_cell_angle_beta     96.844
_cell_angle_gamma    90

_symmetry_space_group_name_H-M    "P 1"
_symmetry_int_tables_number       1

loop_
  _symmetry_equiv_pos_as_xyz
  'x, y, z'

loop_
  _atom_site_label
  _atom_site_occupancy
  _atom_site_fract_x
  _atom_site_fract_y
  _atom_site_fract_z
  _atom_site_thermal_displace_type
  _atom_site_B_iso_or_equiv
  _atom_site_type_symbol
  Cu1      1.0000 0.38655  0.00411  0.37712  Biso   1.000  Cu
  Cu2      1.0000 0.11345  0.50411  0.12288  Biso   1.000  Cu
  Cu3      1.0000 0.61345  0.99589  0.62288  Biso   1.000  Cu
  Cu4      1.0000 0.88655  0.49589  0.87712  Biso   1.000  Cu
  Cl1      1.0000 0.35844  0.86053  0.53317  Biso   1.000  Cl
  Cl2      1.0000 0.14156  0.36053  0.96683  Biso   1.000  Cl
  Cl3      1.0000 0.64156  0.13947  0.46683  Biso   1.000  Cl
  Cl4      1.0000 0.85844  0.63947  0.03317  Biso   1.000  Cl
  O1       1.0000 0.31379  0.24800  0.41486  Biso   1.000  O
  O2       1.0000 0.18621  0.74800  0.08514  Biso   1.000  O
  O3       1.0000 0.68621  0.75200  0.58514  Biso   1.000  O
  O4       1.0000 0.81379  0.25200  0.91486  Biso   1.000  O
  H1       1.0000 0.28860  0.30230  0.35870  Biso   1.000  H
  H2       1.0000 0.21140  0.80230  0.14130  Biso   1.000  H
  H3       1.0000 0.71140  0.69770  0.64130  Biso   1.000  H
  H4       1.0000 0.78860  0.19770  0.85870  Biso   1.000  H
  H5       1.0000 0.24890  0.25000  0.44350  Biso   1.000  H
  H6       1.0000 0.25110  0.75000  0.05650  Biso   1.000  H
  H7       1.0000 0.75110  0.75000  0.55650  Biso   1.000  H
  H8       1.0000 0.74890  0.25000  0.94350  Biso   1.000  H
  N1       1.0000 0.42580  0.11180  0.23501  Biso   1.000  N
  N2       1.0000 0.07420  0.61180  0.26499  Biso   1.000  N
  N3       1.0000 0.57420  0.88820  0.76499  Biso   1.000  N
  N4       1.0000 0.92580  0.38820  0.73501  Biso   1.000  N
  C1       1.0000 0.38750  0.27900  0.18500  Biso   1.000  C
  C2       1.0000 0.11250  0.77900  0.31500  Biso   1.000  C
  C3       1.0000 0.61250  0.72100  0.81500  Biso   1.000  C
  C4       1.0000 0.88750  0.22100  0.68500  Biso   1.000  C
  O5       1.0000 0.30748  0.38310  0.21672  Biso   1.000  O
  O6       1.0000 0.19252  0.88310  0.28328  Biso   1.000  O
  O7       1.0000 0.69252  0.61690  0.78328  Biso   1.000  O
  O8       1.0000 0.80748  0.11690  0.71672  Biso   1.000  O
  N5       1.0000 0.44410  0.32940  0.09701  Biso   1.000  N
  N6       1.0000 0.05590  0.82940  0.40299  Biso   1.000  N
  N7       1.0000 0.55590  0.67060  0.90299  Biso   1.000  N
  N8       1.0000 0.94410  0.17060  0.59701  Biso   1.000  N
  H9       1.0000 0.42120  0.43850  0.06080  Biso   1.000  H
  H10      1.0000 0.07880  0.93850  0.43920  Biso   1.000  H
  H11      1.0000 0.57880  0.56150  0.93920  Biso   1.000  H
  H12      1.0000 0.92120  0.06150  0.56080  Biso   1.000  H
  C5       1.0000 0.54090  0.23000  0.06250  Biso   1.000  C
  C6       1.0000 0.95910  0.73000  0.43750  Biso   1.000  C
  C7       1.0000 0.45910  0.77000  0.93750  Biso   1.000  C
  C8       1.0000 0.04090  0.27000  0.56250  Biso   1.000  C
  O9       1.0000 0.59361  0.29830  0.98901  Biso   1.000  O
  O10      1.0000 0.90639  0.79830  0.51099  Biso   1.000  O
  O11      1.0000 0.40639  0.70170  0.01099  Biso   1.000  O
  O12      1.0000 0.09361  0.20170  0.48901  Biso   1.000  O
  N9       1.0000 0.57430  0.05980  0.11017  Biso   1.000  N
  N10      1.0000 0.92570  0.55980  0.38983  Biso   1.000  N
  N11      1.0000 0.42570  0.94020  0.88983  Biso   1.000  N
  N12      1.0000 0.07430  0.44020  0.61017  Biso   1.000  N
  C9       1.0000 0.51420  0.01480  0.18980  Biso   1.000  C
  C10      1.0000 0.98580  0.51480  0.31020  Biso   1.000  C
  C11      1.0000 0.48580  0.98520  0.81020  Biso   1.000  C
  C12      1.0000 0.01420  0.48520  0.68980  Biso   1.000  C
  N13      1.0000 0.54330  0.83900  0.24096  Biso   1.000  N
  N14      1.0000 0.95670  0.33900  0.25904  Biso   1.000  N
  N15      1.0000 0.45670  0.16100  0.75904  Biso   1.000  N
  N16      1.0000 0.04330  0.66100  0.74096  Biso   1.000  N
  C13      1.0000 0.62350  0.69880  0.21790  Biso   1.000  C
  C14      1.0000 0.87650  0.19880  0.28210  Biso   1.000  C
  C15      1.0000 0.37650  0.30120  0.78210  Biso   1.000  C
  C16      1.0000 0.12350  0.80120  0.71790  Biso   1.000  C
  H13      1.0000 0.67410  0.69940  0.16120  Biso   1.000  H
  H14      1.0000 0.82590  0.19940  0.33880  Biso   1.000  H
  H15      1.0000 0.32590  0.30060  0.83880  Biso   1.000  H
  H16      1.0000 0.17410  0.80060  0.66120  Biso   1.000  H
  C17      1.0000 0.61690  0.55810  0.29190  Biso   1.000  C
  C18      1.0000 0.88310  0.05810  0.20810  Biso   1.000  C
  C19      1.0000 0.38310  0.44190  0.70810  Biso   1.000  C
  C20      1.0000 0.11690  0.94190  0.79190  Biso   1.000  C
  H17      1.0000 0.66200  0.44090  0.29780  Biso   1.000  H
  H18      1.0000 0.83800  0.94090  0.20220  Biso   1.000  H
  H19      1.0000 0.33800  0.55910  0.70220  Biso   1.000  H
  H20      1.0000 0.16200  0.05910  0.79780  Biso   1.000  H
  C21      1.0000 0.52940  0.62190  0.35820  Biso   1.000  C
  C22      1.0000 0.97060  0.12190  0.14180  Biso   1.000  C
  C23      1.0000 0.47060  0.37810  0.64180  Biso   1.000  C
  C24      1.0000 0.02940  0.87810  0.85820  Biso   1.000  C
  H21      1.0000 0.50550  0.55210  0.41730  Biso   1.000  H
  H22      1.0000 0.99450  0.05210  0.08270  Biso   1.000  H
  H23      1.0000 0.49450  0.44790  0.58270  Biso   1.000  H
  H24      1.0000 0.00550  0.94790  0.91730  Biso   1.000  H
  N17      1.0000 0.48540  0.79110  0.32714  Biso   1.000  N
  N18      1.0000 0.01460  0.29110  0.17286  Biso   1.000  N
  N19      1.0000 0.51460  0.20890  0.67286  Biso   1.000  N
  N20      1.0000 0.98540  0.70890  0.82714  Biso   1.000  N
