data_image0
_cell_length_a       6.524
_cell_length_b       7.5852
_cell_length_c       8.3161
_cell_angle_alpha    90.393
_cell_angle_beta     103.556
_cell_angle_gamma    114.314

_symmetry_space_group_name_H-M    "P 1"
_symmetry_int_tables_number       1

loop_
  _symmetry_equiv_pos_as_xyz
  'x, y, z'

loop_
  _atom_site_label
  _atom_site_occupancy
  _atom_site_fract_x
  _atom_site_fract_y
  _atom_site_fract_z
  _atom_site_thermal_displace_type
  _atom_site_B_iso_or_equiv
  _atom_site_type_symbol
  Cu1      1.0000 0.50000  0.50000  0.50000  Biso   1.000  Cu
  N1       1.0000 0.59080  0.63680  0.30970  Biso   1.000  N
  N2       1.0000 0.40920  0.36320  0.69030  Biso   1.000  N
  N3       1.0000 0.53600  0.19190  0.38130  Biso   1.000  N
  N4       1.0000 0.46400  0.80810  0.61870  Biso   1.000  N
  O1       1.0000 0.62280  0.77930  0.07750  Biso   1.000  O
  O2       1.0000 0.37720  0.22070  0.92250  Biso   1.000  O
  O3       1.0000 0.69170  0.35580  0.47880  Biso   1.000  O
  O4       1.0000 0.30830  0.64420  0.52120  Biso   1.000  O
  O5       1.0000 0.33780  0.16750  0.34520  Biso   1.000  O
  O6       1.0000 0.66220  0.83250  0.65480  Biso   1.000  O
  O7       1.0000 0.61610  0.07640  0.35390  Biso   1.000  O
  O8       1.0000 0.38390  0.92360  0.64610  Biso   1.000  O
  C1       1.0000 0.84470  0.75320  0.33360  Biso   1.000  C
  C2       1.0000 0.15530  0.24680  0.66640  Biso   1.000  C
  H1       1.0000 0.92460  0.66950  0.33780  Biso   1.000  H
  H2       1.0000 0.07540  0.33050  0.66220  Biso   1.000  H
  H3       1.0000 0.91190  0.84260  0.43530  Biso   1.000  H
  H4       1.0000 0.08810  0.15740  0.56470  Biso   1.000  H
  C3       1.0000 0.85930  0.86150  0.18360  Biso   1.000  C
  C4       1.0000 0.14070  0.13850  0.81640  Biso   1.000  C
  H5       1.0000 0.91390  0.99990  0.21490  Biso   1.000  H
  H6       1.0000 0.08610  0.00010  0.78510  Biso   1.000  H
  H7       1.0000 0.96430  0.84230  0.12730  Biso   1.000  H
  H8       1.0000 0.03570  0.15770  0.87270  Biso   1.000  H
  C5       1.0000 0.48740  0.66230  0.16660  Biso   1.000  C
  C6       1.0000 0.51260  0.33770  0.83340  Biso   1.000  C
  C7       1.0000 0.23580  0.57730  0.08370  Biso   1.000  C
  C8       1.0000 0.76420  0.42270  0.91630  Biso   1.000  C
  C9       1.0000 0.07290  0.43200  0.14580  Biso   1.000  C
  C10      1.0000 0.92710  0.56800  0.85420  Biso   1.000  C
  H9       1.0000 0.12110  0.38580  0.24420  Biso   1.000  H
  H10      1.0000 0.87890  0.61420  0.75580  Biso   1.000  H
  C11      1.0000 0.16080  0.64520  0.93680  Biso   1.000  C
  C12      1.0000 0.83920  0.35480  0.06320  Biso   1.000  C
  H11      1.0000 0.26870  0.74320  0.89400  Biso   1.000  H
  H12      1.0000 0.73130  0.25680  0.10600  Biso   1.000  H
  O9       1.0000 0.71900  0.31080  0.44490  Biso   1.000  O
  O10      1.0000 0.28100  0.68920  0.55510  Biso   1.000  O
  O11      1.0000 0.35420  0.23910  0.36670  Biso   1.000  O
  O12      1.0000 0.64580  0.76090  0.63330  Biso   1.000  O
  O13      1.0000 0.48010  0.03470  0.29450  Biso   1.000  O
  O14      1.0000 0.51990  0.96530  0.70550  Biso   1.000  O
