data_image0
_cell_length_a       6.8477
_cell_length_b       10.6686
_cell_length_c       14.8868
_cell_angle_alpha    79.724
_cell_angle_beta     86.094
_cell_angle_gamma    80.381

_symmetry_space_group_name_H-M    "P 1"
_symmetry_int_tables_number       1

loop_
  _symmetry_equiv_pos_as_xyz
  'x, y, z'

loop_
  _atom_site_label
  _atom_site_occupancy
  _atom_site_fract_x
  _atom_site_fract_y
  _atom_site_fract_z
  _atom_site_thermal_displace_type
  _atom_site_B_iso_or_equiv
  _atom_site_type_symbol
  C1       1.0000 0.29900  0.99870  0.64140  Biso   1.000  C
  C2       1.0000 0.70100  0.00130  0.35860  Biso   1.000  C
  H1       1.0000 0.29430  0.93530  0.69290  Biso   1.000  H
  H2       1.0000 0.70570  0.06470  0.30710  Biso   1.000  H
  C3       1.0000 0.29240  0.12900  0.65290  Biso   1.000  C
  C4       1.0000 0.70760  0.87100  0.34710  Biso   1.000  C
  C5       1.0000 0.28340  0.17490  0.73380  Biso   1.000  C
  C6       1.0000 0.71660  0.82510  0.26620  Biso   1.000  C
  C7       1.0000 0.27440  0.31040  0.72160  Biso   1.000  C
  C8       1.0000 0.72560  0.68960  0.27840  Biso   1.000  C
  C9       1.0000 0.27240  0.36570  0.63060  Biso   1.000  C
  C10      1.0000 0.72760  0.63430  0.36940  Biso   1.000  C
  C11      1.0000 0.26320  0.38570  0.79200  Biso   1.000  C
  C12      1.0000 0.73680  0.61430  0.20800  Biso   1.000  C
  C13      1.0000 0.23420  0.67860  0.38330  Biso   1.000  C
  C14      1.0000 0.76580  0.32140  0.61670  Biso   1.000  C
  C15      1.0000 0.21980  0.81270  0.35230  Biso   1.000  C
  C16      1.0000 0.78020  0.18730  0.64770  Biso   1.000  C
  C17      1.0000 0.21550  0.85590  0.25850  Biso   1.000  C
  C18      1.0000 0.78450  0.14410  0.74150  Biso   1.000  C
  C19      1.0000 0.22510  0.76860  0.19960  Biso   1.000  C
  C20      1.0000 0.77490  0.23140  0.80040  Biso   1.000  C
  C21      1.0000 0.23380  0.63840  0.23100  Biso   1.000  C
  C22      1.0000 0.76620  0.36160  0.76900  Biso   1.000  C
  H3       1.0000 0.23640  0.58190  0.18990  Biso   1.000  H
  H4       1.0000 0.76360  0.41810  0.81010  Biso   1.000  H
  C23      1.0000 0.23860  0.59220  0.32280  Biso   1.000  C
  C24      1.0000 0.76140  0.40780  0.67720  Biso   1.000  C
  H5       1.0000 0.24460  0.50430  0.34460  Biso   1.000  H
  H6       1.0000 0.75540  0.49570  0.65540  Biso   1.000  H
  Cl1      1.0000 0.28330  0.08145  0.83991  Biso   1.000  Cl
  Cl2      1.0000 0.71670  0.91855  0.16009  Biso   1.000  Cl
  Cl3      1.0000 0.18860  0.01340  0.22050  Biso   1.000  Cl
  Cl4      1.0000 0.81140  0.98660  0.77950  Biso   1.000  Cl
  Cu1      1.0000 0.25043  0.80148  0.53562  Biso   1.000  Cu
  Cu2      1.0000 0.74957  0.19852  0.46438  Biso   1.000  Cu
  N1       1.0000 0.25700  0.45120  0.84470  Biso   1.000  N
  N2       1.0000 0.74300  0.54880  0.15530  Biso   1.000  N
  N3       1.0000 0.26060  0.49460  0.60000  Biso   1.000  N
  N4       1.0000 0.73940  0.50540  0.40000  Biso   1.000  N
  N5       1.0000 0.25140  0.52270  0.51100  Biso   1.000  N
  N6       1.0000 0.74860  0.47730  0.48900  Biso   1.000  N
  N7       1.0000 0.24310  0.64500  0.47940  Biso   1.000  N
  N8       1.0000 0.75690  0.35500  0.52060  Biso   1.000  N
  N9       1.0000 0.22550  0.81270  0.10000  Biso   1.000  N
  N10      1.0000 0.77450  0.18730  0.90000  Biso   1.000  N
  O1       1.0000 0.31090  0.96720  0.56450  Biso   1.000  O
  O2       1.0000 0.68910  0.03280  0.43550  Biso   1.000  O
  O3       1.0000 0.21440  0.89000  0.41270  Biso   1.000  O
  O4       1.0000 0.78560  0.11000  0.58730  Biso   1.000  O
  O5       1.0000 0.25440  0.92000  0.06790  Biso   1.000  O
  O6       1.0000 0.74560  0.08000  0.93210  Biso   1.000  O
  O7       1.0000 0.19770  0.73760  0.05240  Biso   1.000  O
  O8       1.0000 0.80230  0.26240  0.94760  Biso   1.000  O
  O9       1.0000 0.94710  0.85290  0.59130  Biso   1.000  O
  O10      1.0000 0.05290  0.14710  0.40870  Biso   1.000  O
  H7       1.0000 0.86780  0.90770  0.54450  Biso   1.000  H
  H8       1.0000 0.13220  0.09230  0.45550  Biso   1.000  H
  H9       1.0000 0.95110  0.89770  0.64150  Biso   1.000  H
  H10      1.0000 0.04890  0.10230  0.35850  Biso   1.000  H
  O11      1.0000 0.33830  0.70740  0.65570  Biso   1.000  O
  O12      1.0000 0.66170  0.29260  0.34430  Biso   1.000  O
  H11      1.0000 0.30710  0.62150  0.66430  Biso   1.000  H
  H12      1.0000 0.69290  0.37850  0.33570  Biso   1.000  H
  H13      1.0000 0.47900  0.70340  0.65830  Biso   1.000  H
  H14      1.0000 0.52100  0.29660  0.34170  Biso   1.000  H
  S1       1.0000 0.28520  0.25246  0.55910  Biso   1.000  S
  S2       1.0000 0.71480  0.74754  0.44090  Biso   1.000  S
  C25      1.0000 0.21800  0.30680  0.21790  Biso   1.000  C
  C26      1.0000 0.78200  0.69320  0.78210  Biso   1.000  C
  H15      1.0000 0.08510  0.33620  0.22960  Biso   1.000  H
  H16      1.0000 0.91490  0.66380  0.77040  Biso   1.000  H
  C27      1.0000 0.46300  0.31700  0.11370  Biso   1.000  C
  C28      1.0000 0.53700  0.68300  0.88630  Biso   1.000  C
  H17      1.0000 0.50160  0.37560  0.14890  Biso   1.000  H
  H18      1.0000 0.49840  0.62440  0.85110  Biso   1.000  H
  H19      1.0000 0.47780  0.35090  0.04980  Biso   1.000  H
  H20      1.0000 0.52220  0.64910  0.95020  Biso   1.000  H
  H21      1.0000 0.54460  0.23460  0.12760  Biso   1.000  H
  H22      1.0000 0.45540  0.76540  0.87240  Biso   1.000  H
  C29      1.0000 0.11200  0.31640  0.06670  Biso   1.000  C
  C30      1.0000 0.88800  0.68360  0.93330  Biso   1.000  C
  H23      1.0000 0.17530  0.27570  0.01750  Biso   1.000  H
  H24      1.0000 0.82470  0.72430  0.98250  Biso   1.000  H
  H25      1.0000 0.06840  0.40630  0.04450  Biso   1.000  H
  H26      1.0000 0.93160  0.59370  0.95550  Biso   1.000  H
  H27      1.0000 0.99950  0.27610  0.09060  Biso   1.000  H
  H28      1.0000 0.00050  0.72390  0.90940  Biso   1.000  H
  N11      1.0000 0.24850  0.30320  0.13720  Biso   1.000  N
  N12      1.0000 0.75150  0.69680  0.86280  Biso   1.000  N
  O13      1.0000 0.30350  0.28530  0.28570  Biso   1.000  O
  O14      1.0000 0.69650  0.71470  0.71430  Biso   1.000  O
