data_image0
_cell_length_a       8.515
_cell_length_b       9.259
_cell_length_c       9.468
_cell_angle_alpha    66.126
_cell_angle_beta     79.667
_cell_angle_gamma    90.13

_symmetry_space_group_name_H-M    "P 1"
_symmetry_int_tables_number       1

loop_
  _symmetry_equiv_pos_as_xyz
  'x, y, z'

loop_
  _atom_site_label
  _atom_site_occupancy
  _atom_site_fract_x
  _atom_site_fract_y
  _atom_site_fract_z
  _atom_site_thermal_displace_type
  _atom_site_B_iso_or_equiv
  _atom_site_type_symbol
  Cu1      1.0000 0.00000  0.00000  0.50000  Biso   1.000  Cu
  O1       1.0000 0.09930  0.83340  0.44670  Biso   1.000  O
  O2       1.0000 0.90070  0.16660  0.55330  Biso   1.000  O
  O3       1.0000 0.85600  0.84460  0.68830  Biso   1.000  O
  O4       1.0000 0.14400  0.15540  0.31170  Biso   1.000  O
  N1       1.0000 0.18620  0.96730  0.67520  Biso   1.000  N
  N2       1.0000 0.81380  0.03270  0.32480  Biso   1.000  N
  N3       1.0000 0.51560  0.96150  0.96000  Biso   1.000  N
  N4       1.0000 0.48440  0.03850  0.04000  Biso   1.000  N
  S1       1.0000 0.32112  0.67189  0.30561  Biso   1.000  S
  S2       1.0000 0.67888  0.32811  0.69439  Biso   1.000  S
  F1       1.0000 0.81340  0.46060  0.98670  Biso   1.000  F
  F2       1.0000 0.18660  0.53940  0.01330  Biso   1.000  F
  F3       1.0000 0.84360  0.67680  0.01520  Biso   1.000  F
  F4       1.0000 0.15640  0.32320  0.98480  Biso   1.000  F
  F5       1.0000 0.63860  0.63160  0.93100  Biso   1.000  F
  F6       1.0000 0.36140  0.36840  0.06900  Biso   1.000  F
  C1       1.0000 0.79560  0.61600  0.92190  Biso   1.000  C
  C2       1.0000 0.20440  0.38400  0.07810  Biso   1.000  C
  C3       1.0000 0.89100  0.70190  0.75310  Biso   1.000  C
  C4       1.0000 0.10900  0.29810  0.24690  Biso   1.000  C
  C5       1.0000 0.00050  0.62100  0.69600  Biso   1.000  C
  C6       1.0000 0.99950  0.37900  0.30400  Biso   1.000  C
  H1       1.0000 0.01230  0.51640  0.76070  Biso   1.000  H
  H2       1.0000 0.98770  0.48360  0.23930  Biso   1.000  H
  C7       1.0000 0.09670  0.68950  0.54270  Biso   1.000  C
  C8       1.0000 0.90330  0.31050  0.45730  Biso   1.000  C
  C9       1.0000 0.20400  0.59090  0.48830  Biso   1.000  C
  C10      1.0000 0.79600  0.40910  0.51170  Biso   1.000  C
  C11      1.0000 0.22740  0.41830  0.57760  Biso   1.000  C
  C12      1.0000 0.77260  0.58170  0.42240  Biso   1.000  C
  H3       1.0000 0.17590  0.35000  0.67860  Biso   1.000  H
  H4       1.0000 0.82410  0.65000  0.32140  Biso   1.000  H
  C13      1.0000 0.34950  0.38330  0.46910  Biso   1.000  C
  C14      1.0000 0.65050  0.61670  0.53090  Biso   1.000  C
  H5       1.0000 0.38740  0.28330  0.49580  Biso   1.000  H
  H6       1.0000 0.61260  0.71670  0.50420  Biso   1.000  H
  C15      1.0000 0.40420  0.50380  0.32810  Biso   1.000  C
  C16      1.0000 0.59580  0.49620  0.67190  Biso   1.000  C
  C17      1.0000 0.33320  0.91980  0.65430  Biso   1.000  C
  C18      1.0000 0.66680  0.08020  0.34570  Biso   1.000  C
  H7       1.0000 0.36330  0.88660  0.57360  Biso   1.000  H
  H8       1.0000 0.63670  0.11340  0.42640  Biso   1.000  H
  C19      1.0000 0.44420  0.91730  0.74710  Biso   1.000  C
  C20      1.0000 0.55580  0.08270  0.25290  Biso   1.000  C
  H9       1.0000 0.54580  0.88400  0.72850  Biso   1.000  H
  H10      1.0000 0.45420  0.11600  0.27150  Biso   1.000  H
  C21      1.0000 0.39870  0.96560  0.86700  Biso   1.000  C
  C22      1.0000 0.60130  0.03440  0.13300  Biso   1.000  C
  C23      1.0000 0.24540  0.01320  0.89300  Biso   1.000  C
  C24      1.0000 0.75460  0.98680  0.10700  Biso   1.000  C
  H11      1.0000 0.21190  0.04480  0.97440  Biso   1.000  H
  H12      1.0000 0.78810  0.95520  0.02560  Biso   1.000  H
  C25      1.0000 0.14420  0.01220  0.79420  Biso   1.000  C
  C26      1.0000 0.85580  0.98780  0.20580  Biso   1.000  C
  H13      1.0000 0.04170  0.04440  0.81100  Biso   1.000  H
  H14      1.0000 0.95830  0.95560  0.18900  Biso   1.000  H
  H15      1.0000 0.48900  0.50700  0.24800  Biso   1.000  H
  H16      1.0000 0.51100  0.49300  0.75200  Biso   1.000  H
