data_image0
_cell_length_a       10.661
_cell_length_b       14.296
_cell_length_c       10.041
_cell_angle_alpha    90
_cell_angle_beta     114.5
_cell_angle_gamma    90

_symmetry_space_group_name_H-M    "P 1"
_symmetry_int_tables_number       1

loop_
  _symmetry_equiv_pos_as_xyz
  'x, y, z'

loop_
  _atom_site_label
  _atom_site_occupancy
  _atom_site_fract_x
  _atom_site_fract_y
  _atom_site_fract_z
  _atom_site_thermal_displace_type
  _atom_site_B_iso_or_equiv
  _atom_site_type_symbol
  Cu1      1.0000 0.00000  0.00000  0.50000  Biso   1.000  Cu
  Cu2      1.0000 0.00000  0.50000  0.00000  Biso   1.000  Cu
  O1       1.0000 0.10000  0.13497  0.57460  Biso   1.000  O
  O2       1.0000 0.90000  0.63497  0.92540  Biso   1.000  O
  O3       1.0000 0.90000  0.86503  0.42540  Biso   1.000  O
  O4       1.0000 0.10000  0.36503  0.07460  Biso   1.000  O
  O5       1.0000 0.85230  0.07440  0.33490  Biso   1.000  O
  O6       1.0000 0.14770  0.57440  0.16510  Biso   1.000  O
  O7       1.0000 0.14770  0.92560  0.66510  Biso   1.000  O
  O8       1.0000 0.85230  0.42560  0.83490  Biso   1.000  O
  N1       1.0000 0.88860  0.01622  0.61890  Biso   1.000  N
  N2       1.0000 0.11140  0.51622  0.88110  Biso   1.000  N
  N3       1.0000 0.11140  0.98378  0.38110  Biso   1.000  N
  N4       1.0000 0.88860  0.48378  0.11890  Biso   1.000  N
  N5       1.0000 0.52540  0.00426  0.56760  Biso   1.000  N
  N6       1.0000 0.47460  0.50426  0.93240  Biso   1.000  N
  N7       1.0000 0.47460  0.99574  0.43240  Biso   1.000  N
  N8       1.0000 0.52540  0.49574  0.06760  Biso   1.000  N
  S1       1.0000 0.61120  0.11140  0.07667  Biso   1.000  S
  S2       1.0000 0.38880  0.61140  0.42333  Biso   1.000  S
  S3       1.0000 0.38880  0.88860  0.92333  Biso   1.000  S
  S4       1.0000 0.61120  0.38860  0.57667  Biso   1.000  S
  F1       1.0000 0.21290  0.32423  0.43380  Biso   1.000  F
  F2       1.0000 0.78710  0.82423  0.06620  Biso   1.000  F
  F3       1.0000 0.78710  0.67577  0.56620  Biso   1.000  F
  F4       1.0000 0.21290  0.17577  0.93380  Biso   1.000  F
  F5       1.0000 0.33200  0.21849  0.57630  Biso   1.000  F
  F6       1.0000 0.66800  0.71849  0.92370  Biso   1.000  F
  F7       1.0000 0.66800  0.78151  0.42370  Biso   1.000  F
  F8       1.0000 0.33200  0.28151  0.07630  Biso   1.000  F
  F9       1.0000 0.21620  0.31000  0.64580  Biso   1.000  F
  F10      1.0000 0.78380  0.81000  0.85420  Biso   1.000  F
  F11      1.0000 0.78380  0.69000  0.35420  Biso   1.000  F
  F12      1.0000 0.21620  0.19000  0.14580  Biso   1.000  F
  C1       1.0000 0.21220  0.26270  0.53170  Biso   1.000  C
  C2       1.0000 0.78780  0.76270  0.96830  Biso   1.000  C
  C3       1.0000 0.78780  0.73730  0.46830  Biso   1.000  C
  C4       1.0000 0.21220  0.23730  0.03170  Biso   1.000  C
  C5       1.0000 0.09250  0.19350  0.47770  Biso   1.000  C
  C6       1.0000 0.90750  0.69350  0.02230  Biso   1.000  C
  C7       1.0000 0.90750  0.80650  0.52230  Biso   1.000  C
  C8       1.0000 0.09250  0.30650  0.97770  Biso   1.000  C
  C9       1.0000 0.99400  0.20310  0.33590  Biso   1.000  C
  C10      1.0000 0.00600  0.70310  0.16410  Biso   1.000  C
  C11      1.0000 0.00600  0.79690  0.66410  Biso   1.000  C
  C12      1.0000 0.99400  0.29690  0.83590  Biso   1.000  C
  H1       1.0000 0.00400  0.24700  0.28600  Biso   1.000  H
  H2       1.0000 0.99600  0.74700  0.21400  Biso   1.000  H
  H3       1.0000 0.99600  0.75300  0.71400  Biso   1.000  H
  H4       1.0000 0.00400  0.25300  0.78600  Biso   1.000  H
  C13      1.0000 0.87420  0.14690  0.27560  Biso   1.000  C
  C14      1.0000 0.12580  0.64690  0.22440  Biso   1.000  C
  C15      1.0000 0.12580  0.85310  0.72440  Biso   1.000  C
  C16      1.0000 0.87420  0.35310  0.77560  Biso   1.000  C
  C17      1.0000 0.76230  0.17380  0.13460  Biso   1.000  C
  C18      1.0000 0.23770  0.67380  0.36540  Biso   1.000  C
  C19      1.0000 0.23770  0.82620  0.86540  Biso   1.000  C
  C20      1.0000 0.76230  0.32620  0.63460  Biso   1.000  C
  C21      1.0000 0.75220  0.24670  0.03750  Biso   1.000  C
  C22      1.0000 0.24780  0.74670  0.46250  Biso   1.000  C
  C23      1.0000 0.24780  0.75330  0.96250  Biso   1.000  C
  C24      1.0000 0.75220  0.25330  0.53750  Biso   1.000  C
  H5       1.0000 0.79600  0.27500  0.04700  Biso   1.000  H
  H6       1.0000 0.20400  0.77500  0.45300  Biso   1.000  H
  H7       1.0000 0.20400  0.72500  0.95300  Biso   1.000  H
  H8       1.0000 0.79600  0.22500  0.54700  Biso   1.000  H
  C25      1.0000 0.62060  0.24870  0.91940  Biso   1.000  C
  C26      1.0000 0.37940  0.74870  0.58060  Biso   1.000  C
  C27      1.0000 0.37940  0.75130  0.08060  Biso   1.000  C
  C28      1.0000 0.62060  0.25130  0.41940  Biso   1.000  C
  H9       1.0000 0.59900  0.29200  0.85300  Biso   1.000  H
  H10      1.0000 0.40100  0.79200  0.64700  Biso   1.000  H
  H11      1.0000 0.40100  0.70800  0.14700  Biso   1.000  H
  H12      1.0000 0.59900  0.20800  0.35300  Biso   1.000  H
  C29      1.0000 0.53620  0.18120  0.92800  Biso   1.000  C
  C30      1.0000 0.46380  0.68120  0.57200  Biso   1.000  C
  C31      1.0000 0.46380  0.81880  0.07200  Biso   1.000  C
  C32      1.0000 0.53620  0.31880  0.42800  Biso   1.000  C
  H13      1.0000 0.45000  0.16700  0.86900  Biso   1.000  H
  H14      1.0000 0.55000  0.66700  0.63100  Biso   1.000  H
  H15      1.0000 0.55000  0.83300  0.13100  Biso   1.000  H
  H16      1.0000 0.45000  0.33300  0.36900  Biso   1.000  H
  C33      1.0000 0.94800  0.04240  0.76010  Biso   1.000  C
  C34      1.0000 0.05200  0.54240  0.73990  Biso   1.000  C
  C35      1.0000 0.05200  0.95760  0.23990  Biso   1.000  C
  C36      1.0000 0.94800  0.45760  0.26010  Biso   1.000  C
  H17      1.0000 0.04400  0.05000  0.80100  Biso   1.000  H
  H18      1.0000 0.95600  0.55000  0.69900  Biso   1.000  H
  H19      1.0000 0.95600  0.95000  0.19900  Biso   1.000  H
  H20      1.0000 0.04400  0.45000  0.30100  Biso   1.000  H
  C37      1.0000 0.87350  0.05710  0.84160  Biso   1.000  C
  C38      1.0000 0.12650  0.55710  0.65840  Biso   1.000  C
  C39      1.0000 0.12650  0.94290  0.15840  Biso   1.000  C
  C40      1.0000 0.87350  0.44290  0.34160  Biso   1.000  C
  H21      1.0000 0.91400  0.07800  0.93400  Biso   1.000  H
  H22      1.0000 0.08600  0.57800  0.56600  Biso   1.000  H
  H23      1.0000 0.08600  0.92200  0.06600  Biso   1.000  H
  H24      1.0000 0.91400  0.42200  0.43400  Biso   1.000  H
  C41      1.0000 0.73270  0.04320  0.77670  Biso   1.000  C
  C42      1.0000 0.26730  0.54320  0.72330  Biso   1.000  C
  C43      1.0000 0.26730  0.95680  0.22330  Biso   1.000  C
  C44      1.0000 0.73270  0.45680  0.27670  Biso   1.000  C
  H25      1.0000 0.67700  0.04800  0.82600  Biso   1.000  H
  H26      1.0000 0.32300  0.54800  0.67400  Biso   1.000  H
  H27      1.0000 0.32300  0.95200  0.17400  Biso   1.000  H
  H28      1.0000 0.67700  0.45200  0.32600  Biso   1.000  H
  C45      1.0000 0.67150  0.01756  0.63170  Biso   1.000  C
  C46      1.0000 0.32850  0.51756  0.86830  Biso   1.000  C
  C47      1.0000 0.32850  0.98244  0.36830  Biso   1.000  C
  C48      1.0000 0.67150  0.48244  0.13170  Biso   1.000  C
  C49      1.0000 0.75220  0.00420  0.55480  Biso   1.000  C
  C50      1.0000 0.24780  0.50420  0.94520  Biso   1.000  C
  C51      1.0000 0.24780  0.99580  0.44520  Biso   1.000  C
  C52      1.0000 0.75220  0.49580  0.05480  Biso   1.000  C
  H29      1.0000 0.71200  0.98700  0.45500  Biso   1.000  H
  H30      1.0000 0.28800  0.48700  0.04500  Biso   1.000  H
  H31      1.0000 0.28800  0.01300  0.54500  Biso   1.000  H
  H32      1.0000 0.71200  0.51300  0.95500  Biso   1.000  H
