data_image0
_cell_length_a       12.2179
_cell_length_b       12.2179
_cell_length_c       11.7783
_cell_angle_alpha    90
_cell_angle_beta     90
_cell_angle_gamma    90

_symmetry_space_group_name_H-M    "P 1"
_symmetry_int_tables_number       1

loop_
  _symmetry_equiv_pos_as_xyz
  'x, y, z'

loop_
  _atom_site_label
  _atom_site_occupancy
  _atom_site_fract_x
  _atom_site_fract_y
  _atom_site_fract_z
  _atom_site_thermal_displace_type
  _atom_site_B_iso_or_equiv
  _atom_site_type_symbol
  Cu1      1.0000 0.25000  0.25000  0.07485  Biso   1.000  Cu
  Cu2      1.0000 0.75000  0.75000  0.92515  Biso   1.000  Cu
  N1       1.0000 0.14940  0.12390  0.05210  Biso   1.000  N
  N2       1.0000 0.37610  0.14940  0.05210  Biso   1.000  N
  N3       1.0000 0.12390  0.35060  0.05210  Biso   1.000  N
  N4       1.0000 0.35060  0.37610  0.05210  Biso   1.000  N
  N5       1.0000 0.85060  0.87610  0.94790  Biso   1.000  N
  N6       1.0000 0.62390  0.85060  0.94790  Biso   1.000  N
  N7       1.0000 0.87610  0.64940  0.94790  Biso   1.000  N
  N8       1.0000 0.64940  0.62390  0.94790  Biso   1.000  N
  N9       1.0000 0.17930  0.08180  0.94800  Biso   1.000  N
  N10      1.0000 0.41820  0.17930  0.94800  Biso   1.000  N
  N11      1.0000 0.08180  0.32070  0.94800  Biso   1.000  N
  N12      1.0000 0.32070  0.41820  0.94800  Biso   1.000  N
  N13      1.0000 0.82070  0.91820  0.05200  Biso   1.000  N
  N14      1.0000 0.58180  0.82070  0.05200  Biso   1.000  N
  N15      1.0000 0.91820  0.67930  0.05200  Biso   1.000  N
  N16      1.0000 0.67930  0.58180  0.05200  Biso   1.000  N
  C1       1.0000 0.05710  0.09850  0.10390  Biso   1.000  C
  C2       1.0000 0.40150  0.05710  0.10390  Biso   1.000  C
  C3       1.0000 0.09850  0.44290  0.10390  Biso   1.000  C
  C4       1.0000 0.44290  0.40150  0.10390  Biso   1.000  C
  C5       1.0000 0.94290  0.90150  0.89610  Biso   1.000  C
  C6       1.0000 0.59850  0.94290  0.89610  Biso   1.000  C
  C7       1.0000 0.90150  0.55710  0.89610  Biso   1.000  C
  C8       1.0000 0.55710  0.59850  0.89610  Biso   1.000  C
  C9       1.0000 0.98570  0.02150  0.05200  Biso   1.000  C
  C10      1.0000 0.47850  0.98570  0.05200  Biso   1.000  C
  C11      1.0000 0.02150  0.51430  0.05200  Biso   1.000  C
  C12      1.0000 0.51430  0.47850  0.05200  Biso   1.000  C
  C13      1.0000 0.01430  0.97850  0.94800  Biso   1.000  C
  C14      1.0000 0.52150  0.01430  0.94800  Biso   1.000  C
  C15      1.0000 0.97850  0.48570  0.94800  Biso   1.000  C
  C16      1.0000 0.48570  0.52150  0.94800  Biso   1.000  C
  C17      1.0000 0.11440  0.01190  0.89700  Biso   1.000  C
  C18      1.0000 0.48810  0.11440  0.89700  Biso   1.000  C
  C19      1.0000 0.01190  0.38560  0.89700  Biso   1.000  C
  C20      1.0000 0.38560  0.48810  0.89700  Biso   1.000  C
  C21      1.0000 0.88560  0.98810  0.10300  Biso   1.000  C
  C22      1.0000 0.51190  0.88560  0.10300  Biso   1.000  C
  C23      1.0000 0.98810  0.61440  0.10300  Biso   1.000  C
  C24      1.0000 0.61440  0.51190  0.10300  Biso   1.000  C
  C25      1.0000 0.14730  0.96550  0.78410  Biso   1.000  C
  C26      1.0000 0.53450  0.14730  0.78410  Biso   1.000  C
  C27      1.0000 0.96550  0.35270  0.78410  Biso   1.000  C
  C28      1.0000 0.35270  0.53450  0.78410  Biso   1.000  C
  C29      1.0000 0.85270  0.03450  0.21590  Biso   1.000  C
  C30      1.0000 0.46550  0.85270  0.21590  Biso   1.000  C
  C31      1.0000 0.03450  0.64730  0.21590  Biso   1.000  C
  C32      1.0000 0.64730  0.46550  0.21590  Biso   1.000  C
  H1       1.0000 0.19640  0.90540  0.79680  Biso   1.000  H
  H2       1.0000 0.59460  0.19640  0.79680  Biso   1.000  H
  H3       1.0000 0.90540  0.30360  0.79680  Biso   1.000  H
  H4       1.0000 0.30360  0.59460  0.79680  Biso   1.000  H
  H5       1.0000 0.80360  0.09460  0.20320  Biso   1.000  H
  H6       1.0000 0.40540  0.80360  0.20320  Biso   1.000  H
  H7       1.0000 0.09460  0.69640  0.20320  Biso   1.000  H
  H8       1.0000 0.69640  0.40540  0.20320  Biso   1.000  H
  H9       1.0000 0.18620  0.02060  0.74230  Biso   1.000  H
  H10      1.0000 0.47940  0.18620  0.74230  Biso   1.000  H
  H11      1.0000 0.02060  0.31380  0.74230  Biso   1.000  H
  H12      1.0000 0.31380  0.47940  0.74230  Biso   1.000  H
  H13      1.0000 0.81380  0.97940  0.25770  Biso   1.000  H
  H14      1.0000 0.52060  0.81380  0.25770  Biso   1.000  H
  H15      1.0000 0.97940  0.68620  0.25770  Biso   1.000  H
  H16      1.0000 0.68620  0.52060  0.25770  Biso   1.000  H
  C33      1.0000 0.04800  0.92590  0.71380  Biso   1.000  C
  C34      1.0000 0.57410  0.04800  0.71380  Biso   1.000  C
  C35      1.0000 0.92590  0.45200  0.71380  Biso   1.000  C
  C36      1.0000 0.45200  0.57410  0.71380  Biso   1.000  C
  C37      1.0000 0.95200  0.07410  0.28620  Biso   1.000  C
  C38      1.0000 0.42590  0.95200  0.28620  Biso   1.000  C
  C39      1.0000 0.07410  0.54800  0.28620  Biso   1.000  C
  C40      1.0000 0.54800  0.42590  0.28620  Biso   1.000  C
  C41      1.0000 0.02430  0.15070  0.21330  Biso   1.000  C
  C42      1.0000 0.34930  0.02430  0.21330  Biso   1.000  C
  C43      1.0000 0.15070  0.47570  0.21330  Biso   1.000  C
  C44      1.0000 0.47570  0.34930  0.21330  Biso   1.000  C
  C45      1.0000 0.97570  0.84930  0.78670  Biso   1.000  C
  C46      1.0000 0.65070  0.97570  0.78670  Biso   1.000  C
  C47      1.0000 0.84930  0.52430  0.78670  Biso   1.000  C
  C48      1.0000 0.52430  0.65070  0.78670  Biso   1.000  C
  H17      1.0000 0.98440  0.21670  0.19730  Biso   1.000  H
  H18      1.0000 0.28330  0.98440  0.19730  Biso   1.000  H
  H19      1.0000 0.21670  0.51560  0.19730  Biso   1.000  H
  H20      1.0000 0.51560  0.28330  0.19730  Biso   1.000  H
  H21      1.0000 0.01560  0.78330  0.80270  Biso   1.000  H
  H22      1.0000 0.71670  0.01560  0.80270  Biso   1.000  H
  H23      1.0000 0.78330  0.48440  0.80270  Biso   1.000  H
  H24      1.0000 0.48440  0.71670  0.80270  Biso   1.000  H
  H25      1.0000 0.08900  0.17030  0.25490  Biso   1.000  H
  H26      1.0000 0.32970  0.08900  0.25490  Biso   1.000  H
  H27      1.0000 0.17030  0.41100  0.25490  Biso   1.000  H
  H28      1.0000 0.41100  0.32970  0.25490  Biso   1.000  H
  H29      1.0000 0.91100  0.82970  0.74510  Biso   1.000  H
  H30      1.0000 0.67030  0.91100  0.74510  Biso   1.000  H
  H31      1.0000 0.82970  0.58900  0.74510  Biso   1.000  H
  H32      1.0000 0.58900  0.67030  0.74510  Biso   1.000  H
  C49      1.0000 0.09180  0.86030  0.61250  Biso   1.000  C
  C50      1.0000 0.63970  0.09180  0.61250  Biso   1.000  C
  C51      1.0000 0.86030  0.40820  0.61250  Biso   1.000  C
  C52      1.0000 0.40820  0.63970  0.61250  Biso   1.000  C
  C53      1.0000 0.90820  0.13970  0.38750  Biso   1.000  C
  C54      1.0000 0.36030  0.90820  0.38750  Biso   1.000  C
  C55      1.0000 0.13970  0.59180  0.38750  Biso   1.000  C
  C56      1.0000 0.59180  0.36030  0.38750  Biso   1.000  C
  H33      1.0000 0.13320  0.90770  0.56360  Biso   1.000  H
  H34      1.0000 0.59230  0.13320  0.56360  Biso   1.000  H
  H35      1.0000 0.90770  0.36680  0.56360  Biso   1.000  H
  H36      1.0000 0.36680  0.59230  0.56360  Biso   1.000  H
  H37      1.0000 0.86680  0.09230  0.43640  Biso   1.000  H
  H38      1.0000 0.40770  0.86680  0.43640  Biso   1.000  H
  H39      1.0000 0.09230  0.63320  0.43640  Biso   1.000  H
  H40      1.0000 0.63320  0.40770  0.43640  Biso   1.000  H
  H41      1.0000 0.13810  0.80240  0.63940  Biso   1.000  H
  H42      1.0000 0.69760  0.13810  0.63940  Biso   1.000  H
  H43      1.0000 0.80240  0.36190  0.63940  Biso   1.000  H
  H44      1.0000 0.36190  0.69760  0.63940  Biso   1.000  H
  H45      1.0000 0.86190  0.19760  0.36060  Biso   1.000  H
  H46      1.0000 0.30240  0.86190  0.36060  Biso   1.000  H
  H47      1.0000 0.19760  0.63810  0.36060  Biso   1.000  H
  H48      1.0000 0.63810  0.30240  0.36060  Biso   1.000  H
  H49      1.0000 0.03250  0.82850  0.57040  Biso   1.000  H
  H50      1.0000 0.67150  0.03250  0.57040  Biso   1.000  H
  H51      1.0000 0.82850  0.46750  0.57040  Biso   1.000  H
  H52      1.0000 0.46750  0.67150  0.57040  Biso   1.000  H
  H53      1.0000 0.96750  0.17150  0.42960  Biso   1.000  H
  H54      1.0000 0.32850  0.96750  0.42960  Biso   1.000  H
  H55      1.0000 0.17150  0.53250  0.42960  Biso   1.000  H
  H56      1.0000 0.53250  0.32850  0.42960  Biso   1.000  H
  C57      1.0000 0.98040  0.02350  0.67250  Biso   1.000  C
  C58      1.0000 0.47650  0.98040  0.67250  Biso   1.000  C
  C59      1.0000 0.02350  0.51960  0.67250  Biso   1.000  C
  C60      1.0000 0.51960  0.47650  0.67250  Biso   1.000  C
  C61      1.0000 0.01960  0.97650  0.32750  Biso   1.000  C
  C62      1.0000 0.52350  0.01960  0.32750  Biso   1.000  C
  C63      1.0000 0.97650  0.48040  0.32750  Biso   1.000  C
  C64      1.0000 0.48040  0.52350  0.32750  Biso   1.000  C
  H57      1.0000 0.01600  0.05900  0.60980  Biso   1.000  H
  H58      1.0000 0.44100  0.01600  0.60980  Biso   1.000  H
  H59      1.0000 0.05900  0.48400  0.60980  Biso   1.000  H
  H60      1.0000 0.48400  0.44100  0.60980  Biso   1.000  H
  H61      1.0000 0.98400  0.94100  0.39020  Biso   1.000  H
  H62      1.0000 0.55900  0.98400  0.39020  Biso   1.000  H
  H63      1.0000 0.94100  0.51600  0.39020  Biso   1.000  H
  H64      1.0000 0.51600  0.55900  0.39020  Biso   1.000  H
  H65      1.0000 0.90860  0.00000  0.65000  Biso   1.000  H
  H66      1.0000 0.50000  0.90860  0.65000  Biso   1.000  H
  H67      1.0000 0.00000  0.59140  0.65000  Biso   1.000  H
  H68      1.0000 0.59140  0.50000  0.65000  Biso   1.000  H
  H69      1.0000 0.09140  0.00000  0.35000  Biso   1.000  H
  H70      1.0000 0.50000  0.09140  0.35000  Biso   1.000  H
  H71      1.0000 0.00000  0.40860  0.35000  Biso   1.000  H
  H72      1.0000 0.40860  0.50000  0.35000  Biso   1.000  H
  H73      1.0000 0.97280  0.07410  0.73450  Biso   1.000  H
  H74      1.0000 0.42590  0.97280  0.73450  Biso   1.000  H
  H75      1.0000 0.07410  0.52720  0.73450  Biso   1.000  H
  H76      1.0000 0.52720  0.42590  0.73450  Biso   1.000  H
  H77      1.0000 0.02720  0.92590  0.26550  Biso   1.000  H
  H78      1.0000 0.57410  0.02720  0.26550  Biso   1.000  H
  H79      1.0000 0.92590  0.47280  0.26550  Biso   1.000  H
  H80      1.0000 0.47280  0.57410  0.26550  Biso   1.000  H
  Cl1      1.0000 0.75000  0.25000  0.00000  Biso   1.000  Cl
  Cl2      1.0000 0.25000  0.75000  0.00000  Biso   1.000  Cl
  O1       1.0000 0.79540  0.16560  0.93000  Biso   1.000  O
  O2       1.0000 0.33440  0.79540  0.93000  Biso   1.000  O
  O3       1.0000 0.16560  0.70460  0.93000  Biso   1.000  O
  O4       1.0000 0.70460  0.33440  0.93000  Biso   1.000  O
  O5       1.0000 0.20460  0.83440  0.07000  Biso   1.000  O
  O6       1.0000 0.66560  0.20460  0.07000  Biso   1.000  O
  O7       1.0000 0.83440  0.29540  0.07000  Biso   1.000  O
  O8       1.0000 0.29540  0.66560  0.07000  Biso   1.000  O
  Cl3      1.0000 0.25000  0.25000  0.47860  Biso   1.000  Cl
  Cl4      1.0000 0.75000  0.75000  0.52140  Biso   1.000  Cl
  O9       1.0000 0.21650  0.14660  0.51440  Biso   1.000  O
  O10      1.0000 0.35340  0.21650  0.51440  Biso   1.000  O
  O11      1.0000 0.14660  0.28350  0.51440  Biso   1.000  O
  O12      1.0000 0.28350  0.35340  0.51440  Biso   1.000  O
  O13      1.0000 0.78350  0.85340  0.48560  Biso   1.000  O
  O14      1.0000 0.64660  0.78350  0.48560  Biso   1.000  O
  O15      1.0000 0.85340  0.71650  0.48560  Biso   1.000  O
  O16      1.0000 0.71650  0.64660  0.48560  Biso   1.000  O
  O17      1.0000 0.25000  0.25000  0.35510  Biso   1.000  O
  O18      1.0000 0.75000  0.75000  0.64490  Biso   1.000  O
