data_image0
_cell_length_a       8.2996
_cell_length_b       15.8156
_cell_length_c       15.3837
_cell_angle_alpha    90
_cell_angle_beta     103.536
_cell_angle_gamma    90

_symmetry_space_group_name_H-M    "P 1"
_symmetry_int_tables_number       1

loop_
  _symmetry_equiv_pos_as_xyz
  'x, y, z'

loop_
  _atom_site_label
  _atom_site_occupancy
  _atom_site_fract_x
  _atom_site_fract_y
  _atom_site_fract_z
  _atom_site_thermal_displace_type
  _atom_site_B_iso_or_equiv
  _atom_site_type_symbol
  Cl1      1.0000 0.35960  0.46570  0.65050  Biso   1.000  Cl
  Cl2      1.0000 0.14040  0.96570  0.84950  Biso   1.000  Cl
  Cl3      1.0000 0.64040  0.53430  0.34950  Biso   1.000  Cl
  Cl4      1.0000 0.85960  0.03430  0.15050  Biso   1.000  Cl
  O1       1.0000 0.37080  0.54010  0.59650  Biso   1.000  O
  O2       1.0000 0.12920  0.04010  0.90350  Biso   1.000  O
  O3       1.0000 0.62920  0.45990  0.40350  Biso   1.000  O
  O4       1.0000 0.87080  0.95990  0.09650  Biso   1.000  O
  O5       1.0000 0.31960  0.49560  0.72730  Biso   1.000  O
  O6       1.0000 0.18040  0.99560  0.77270  Biso   1.000  O
  O7       1.0000 0.68040  0.50440  0.27270  Biso   1.000  O
  O8       1.0000 0.81960  0.00440  0.22730  Biso   1.000  O
  O9       1.0000 0.23710  0.41440  0.60580  Biso   1.000  O
  O10      1.0000 0.26290  0.91440  0.89420  Biso   1.000  O
  O11      1.0000 0.76290  0.58560  0.39420  Biso   1.000  O
  O12      1.0000 0.73710  0.08560  0.10580  Biso   1.000  O
  O13      1.0000 0.51230  0.42830  0.66280  Biso   1.000  O
  O14      1.0000 0.98770  0.92830  0.83720  Biso   1.000  O
  O15      1.0000 0.48770  0.57170  0.33720  Biso   1.000  O
  O16      1.0000 0.01230  0.07170  0.16280  Biso   1.000  O
  Cu1      1.0000 0.02040  0.50220  0.77820  Biso   1.000  Cu
  Cu2      1.0000 0.47960  0.00220  0.72180  Biso   1.000  Cu
  Cu3      1.0000 0.97960  0.49780  0.22180  Biso   1.000  Cu
  Cu4      1.0000 0.52040  0.99780  0.27820  Biso   1.000  Cu
  N1       1.0000 0.11940  0.59130  0.86730  Biso   1.000  N
  N2       1.0000 0.38060  0.09130  0.63270  Biso   1.000  N
  N3       1.0000 0.88060  0.40870  0.13270  Biso   1.000  N
  N4       1.0000 0.61940  0.90870  0.36730  Biso   1.000  N
  N5       1.0000 0.43360  0.90860  0.18530  Biso   1.000  N
  N6       1.0000 0.06640  0.40860  0.31470  Biso   1.000  N
  N7       1.0000 0.56640  0.09140  0.81470  Biso   1.000  N
  N8       1.0000 0.93360  0.59140  0.68530  Biso   1.000  N
  N9       1.0000 0.94640  0.40230  0.69660  Biso   1.000  N
  N10      1.0000 0.55360  0.90230  0.80340  Biso   1.000  N
  N11      1.0000 0.05360  0.59770  0.30340  Biso   1.000  N
  N12      1.0000 0.44640  0.09770  0.19660  Biso   1.000  N
  N13      1.0000 0.86690  0.24850  0.61270  Biso   1.000  N
  N14      1.0000 0.63310  0.74850  0.88730  Biso   1.000  N
  N15      1.0000 0.13310  0.75150  0.38730  Biso   1.000  N
  N16      1.0000 0.36690  0.25150  0.11270  Biso   1.000  N
  O17      1.0000 0.12150  0.41410  0.86200  Biso   1.000  O
  O18      1.0000 0.37850  0.91410  0.63800  Biso   1.000  O
  O19      1.0000 0.87850  0.58590  0.13800  Biso   1.000  O
  O20      1.0000 0.62150  0.08590  0.36200  Biso   1.000  O
  O21      1.0000 0.14010  0.27410  0.87850  Biso   1.000  O
  O22      1.0000 0.35990  0.77410  0.62150  Biso   1.000  O
  O23      1.0000 0.85990  0.72590  0.12150  Biso   1.000  O
  O24      1.0000 0.64010  0.22590  0.37850  Biso   1.000  O
  O25      1.0000 0.77670  0.48680  0.82520  Biso   1.000  O
  O26      1.0000 0.72330  0.98680  0.67480  Biso   1.000  O
  O27      1.0000 0.22330  0.51320  0.17480  Biso   1.000  O
  O28      1.0000 0.27670  0.01320  0.32520  Biso   1.000  O
  C1       1.0000 0.03070  0.65830  0.87890  Biso   1.000  C
  C2       1.0000 0.46930  0.15830  0.62110  Biso   1.000  C
  C3       1.0000 0.96930  0.34170  0.12110  Biso   1.000  C
  C4       1.0000 0.53070  0.84170  0.37890  Biso   1.000  C
  C5       1.0000 0.08880  0.72060  0.94060  Biso   1.000  C
  C6       1.0000 0.41120  0.22060  0.55940  Biso   1.000  C
  C7       1.0000 0.91120  0.27940  0.05940  Biso   1.000  C
  C8       1.0000 0.58880  0.77940  0.44060  Biso   1.000  C
  C9       1.0000 0.24480  0.71270  0.99780  Biso   1.000  C
  C10      1.0000 0.25520  0.21270  0.50220  Biso   1.000  C
  C11      1.0000 0.75520  0.28730  0.00220  Biso   1.000  C
  C12      1.0000 0.74480  0.78730  0.49780  Biso   1.000  C
  C13      1.0000 0.31170  0.77850  0.06500  Biso   1.000  C
  C14      1.0000 0.18830  0.27850  0.43500  Biso   1.000  C
  C15      1.0000 0.68830  0.22150  0.93500  Biso   1.000  C
  C16      1.0000 0.81170  0.72150  0.56500  Biso   1.000  C
  C17      1.0000 0.20530  0.83460  0.09520  Biso   1.000  C
  C18      1.0000 0.29470  0.33460  0.40480  Biso   1.000  C
  C19      1.0000 0.79470  0.16540  0.90480  Biso   1.000  C
  C20      1.0000 0.70530  0.66540  0.59520  Biso   1.000  C
  C21      1.0000 0.26960  0.89790  0.15380  Biso   1.000  C
  C22      1.0000 0.23040  0.39790  0.34620  Biso   1.000  C
  C23      1.0000 0.73040  0.10210  0.84620  Biso   1.000  C
  C24      1.0000 0.76960  0.60210  0.65380  Biso   1.000  C
  C25      1.0000 0.53700  0.85490  0.15900  Biso   1.000  C
  C26      1.0000 0.96300  0.35490  0.34100  Biso   1.000  C
  C27      1.0000 0.46300  0.14510  0.84100  Biso   1.000  C
  C28      1.0000 0.03700  0.64510  0.65900  Biso   1.000  C
  C29      1.0000 0.47830  0.79000  0.09980  Biso   1.000  C
  C30      1.0000 0.02170  0.29000  0.40020  Biso   1.000  C
  C31      1.0000 0.52170  0.21000  0.90020  Biso   1.000  C
  C32      1.0000 0.97830  0.71000  0.59980  Biso   1.000  C
  C33      1.0000 0.33520  0.64220  0.98640  Biso   1.000  C
  C34      1.0000 0.16480  0.14220  0.51360  Biso   1.000  C
  C35      1.0000 0.66480  0.35780  0.01360  Biso   1.000  C
  C36      1.0000 0.83520  0.85780  0.48640  Biso   1.000  C
  C37      1.0000 0.27220  0.58350  0.92150  Biso   1.000  C
  C38      1.0000 0.22780  0.08350  0.57850  Biso   1.000  C
  C39      1.0000 0.72780  0.41650  0.07850  Biso   1.000  C
  C40      1.0000 0.77220  0.91650  0.42150  Biso   1.000  C
  C41      1.0000 0.99440  0.33010  0.73980  Biso   1.000  C
  C42      1.0000 0.50560  0.83010  0.76020  Biso   1.000  C
  C43      1.0000 0.00560  0.66990  0.26020  Biso   1.000  C
  C44      1.0000 0.49440  0.16990  0.23980  Biso   1.000  C
  C45      1.0000 0.95430  0.25310  0.69620  Biso   1.000  C
  C46      1.0000 0.54570  0.75310  0.80380  Biso   1.000  C
  C47      1.0000 0.04570  0.74690  0.30380  Biso   1.000  C
  C48      1.0000 0.45430  0.24690  0.19620  Biso   1.000  C
  C49      1.0000 0.82200  0.32040  0.57190  Biso   1.000  C
  C50      1.0000 0.67800  0.82040  0.92810  Biso   1.000  C
  C51      1.0000 0.17800  0.67960  0.42810  Biso   1.000  C
  C52      1.0000 0.32200  0.17960  0.07190  Biso   1.000  C
  C53      1.0000 0.86140  0.39870  0.61260  Biso   1.000  C
  C54      1.0000 0.63860  0.89870  0.88740  Biso   1.000  C
  C55      1.0000 0.13860  0.60130  0.38740  Biso   1.000  C
  C56      1.0000 0.36140  0.10130  0.11260  Biso   1.000  C
  C57      1.0000 0.09430  0.33760  0.83480  Biso   1.000  C
  C58      1.0000 0.40570  0.83760  0.66520  Biso   1.000  C
  C59      1.0000 0.90570  0.66240  0.16520  Biso   1.000  C
  C60      1.0000 0.59430  0.16240  0.33480  Biso   1.000  C
  H1       1.0000 0.92370  0.66350  0.84350  Biso   1.000  H
  H2       1.0000 0.57630  0.16350  0.65650  Biso   1.000  H
  H3       1.0000 0.07630  0.33650  0.15650  Biso   1.000  H
  H4       1.0000 0.42370  0.83650  0.34350  Biso   1.000  H
  H5       1.0000 0.02400  0.76790  0.94400  Biso   1.000  H
  H6       1.0000 0.47600  0.26790  0.55600  Biso   1.000  H
  H7       1.0000 0.97600  0.23210  0.05600  Biso   1.000  H
  H8       1.0000 0.52400  0.73210  0.44400  Biso   1.000  H
  H9       1.0000 0.09110  0.82860  0.07550  Biso   1.000  H
  H10      1.0000 0.40890  0.32860  0.42450  Biso   1.000  H
  H11      1.0000 0.90890  0.17140  0.92450  Biso   1.000  H
  H12      1.0000 0.59110  0.67140  0.57550  Biso   1.000  H
  H13      1.0000 0.19720  0.93480  0.17240  Biso   1.000  H
  H14      1.0000 0.30280  0.43480  0.32760  Biso   1.000  H
  H15      1.0000 0.80280  0.06520  0.82760  Biso   1.000  H
  H16      1.0000 0.69720  0.56520  0.67240  Biso   1.000  H
  H17      1.0000 0.65070  0.86140  0.18080  Biso   1.000  H
  H18      1.0000 0.84930  0.36140  0.31920  Biso   1.000  H
  H19      1.0000 0.34930  0.13860  0.81920  Biso   1.000  H
  H20      1.0000 0.15070  0.63860  0.68080  Biso   1.000  H
  H21      1.0000 0.55340  0.75330  0.08320  Biso   1.000  H
  H22      1.0000 0.94660  0.25330  0.41680  Biso   1.000  H
  H23      1.0000 0.44660  0.24670  0.91680  Biso   1.000  H
  H24      1.0000 0.05340  0.74670  0.58320  Biso   1.000  H
  H25      1.0000 0.44030  0.63430  0.02310  Biso   1.000  H
  H26      1.0000 0.05970  0.13430  0.47690  Biso   1.000  H
  H27      1.0000 0.55970  0.36570  0.97690  Biso   1.000  H
  H28      1.0000 0.94030  0.86570  0.52310  Biso   1.000  H
  H29      1.0000 0.33660  0.53700  0.91480  Biso   1.000  H
  H30      1.0000 0.16340  0.03700  0.58520  Biso   1.000  H
  H31      1.0000 0.66340  0.46300  0.08520  Biso   1.000  H
  H32      1.0000 0.83660  0.96300  0.41480  Biso   1.000  H
  H33      1.0000 0.99030  0.20330  0.72680  Biso   1.000  H
  H34      1.0000 0.50970  0.70330  0.77320  Biso   1.000  H
  H35      1.0000 0.00970  0.79670  0.27320  Biso   1.000  H
  H36      1.0000 0.49030  0.29670  0.22680  Biso   1.000  H
  H37      1.0000 0.76090  0.31900  0.51300  Biso   1.000  H
  H38      1.0000 0.73910  0.81900  0.98700  Biso   1.000  H
  H39      1.0000 0.23910  0.68100  0.48700  Biso   1.000  H
  H40      1.0000 0.26090  0.18100  0.01300  Biso   1.000  H
  H41      1.0000 0.82800  0.44810  0.58080  Biso   1.000  H
  H42      1.0000 0.67200  0.94810  0.91920  Biso   1.000  H
  H43      1.0000 0.17200  0.55190  0.41920  Biso   1.000  H
  H44      1.0000 0.32800  0.05190  0.08080  Biso   1.000  H
  O29      1.0000 0.70760  0.58170  0.95880  Biso   1.000  O
  O30      1.0000 0.79240  0.08170  0.54120  Biso   1.000  O
  O31      1.0000 0.29240  0.41830  0.04120  Biso   1.000  O
  O32      1.0000 0.20760  0.91830  0.45880  Biso   1.000  O
  H45      1.0000 0.71700  0.45800  0.80800  Biso   1.000  H
  H46      1.0000 0.78300  0.95800  0.69200  Biso   1.000  H
  H47      1.0000 0.28300  0.54200  0.19200  Biso   1.000  H
  H48      1.0000 0.21700  0.04200  0.30800  Biso   1.000  H
  H49      1.0000 0.78000  0.51700  0.81500  Biso   1.000  H
  H50      1.0000 0.72000  0.01700  0.68500  Biso   1.000  H
  H51      1.0000 0.22000  0.48300  0.18500  Biso   1.000  H
  H52      1.0000 0.28000  0.98300  0.31500  Biso   1.000  H
