data_image0
_cell_length_a       11.6912
_cell_length_b       11.3331
_cell_length_c       10.2314
_cell_angle_alpha    90
_cell_angle_beta     97.238
_cell_angle_gamma    90

_symmetry_space_group_name_H-M    "P 1"
_symmetry_int_tables_number       1

loop_
  _symmetry_equiv_pos_as_xyz
  'x, y, z'

loop_
  _atom_site_label
  _atom_site_occupancy
  _atom_site_fract_x
  _atom_site_fract_y
  _atom_site_fract_z
  _atom_site_thermal_displace_type
  _atom_site_B_iso_or_equiv
  _atom_site_type_symbol
  Cu1      1.0000 0.00757  0.89067  0.74074  Biso   1.000  Cu
  Cu2      1.0000 0.00757  0.10933  0.24074  Biso   1.000  Cu
  O1       1.0000 0.09230  0.99280  0.92350  Biso   1.000  O
  O2       1.0000 0.09230  0.00720  0.42350  Biso   1.000  O
  O3       1.0000 0.03870  0.25850  0.32970  Biso   1.000  O
  O4       1.0000 0.03870  0.74150  0.82970  Biso   1.000  O
  O5       1.0000 0.86020  0.11010  0.30990  Biso   1.000  O
  O6       1.0000 0.86020  0.88990  0.80990  Biso   1.000  O
  N1       1.0000 0.15230  0.12810  0.16420  Biso   1.000  N
  N2       1.0000 0.15230  0.87190  0.66420  Biso   1.000  N
  N3       1.0000 0.96730  0.95680  0.15330  Biso   1.000  N
  N4       1.0000 0.96730  0.04320  0.65330  Biso   1.000  N
  N5       1.0000 0.06920  0.35130  0.26380  Biso   1.000  N
  N6       1.0000 0.06920  0.64870  0.76380  Biso   1.000  N
  N7       1.0000 0.76390  0.07580  0.23900  Biso   1.000  N
  N8       1.0000 0.76390  0.92420  0.73900  Biso   1.000  N
  C1       1.0000 0.14530  0.94070  0.04270  Biso   1.000  C
  C2       1.0000 0.14530  0.05930  0.54270  Biso   1.000  C
  H1       1.0000 0.19680  0.87900  0.01720  Biso   1.000  H
  H2       1.0000 0.19680  0.12100  0.51720  Biso   1.000  H
  C3       1.0000 0.21990  0.02650  0.12750  Biso   1.000  C
  C4       1.0000 0.21990  0.97350  0.62750  Biso   1.000  C
  H3       1.0000 0.28150  0.05410  0.07990  Biso   1.000  H
  H4       1.0000 0.28150  0.94590  0.57990  Biso   1.000  H
  H5       1.0000 0.25470  0.98670  0.20660  Biso   1.000  H
  H6       1.0000 0.25470  0.01330  0.70660  Biso   1.000  H
  C5       1.0000 0.19220  0.23090  0.13970  Biso   1.000  C
  C6       1.0000 0.19220  0.76910  0.63970  Biso   1.000  C
  C7       1.0000 0.05590  0.87840  0.11680  Biso   1.000  C
  C8       1.0000 0.05590  0.12160  0.61680  Biso   1.000  C
  H7       1.0000 0.09540  0.84240  0.19600  Biso   1.000  H
  H8       1.0000 0.09540  0.15760  0.69600  Biso   1.000  H
  H9       1.0000 0.01960  0.81580  0.06180  Biso   1.000  H
  H10      1.0000 0.01960  0.18420  0.56180  Biso   1.000  H
  C9       1.0000 0.86450  0.92100  0.12790  Biso   1.000  C
  C10      1.0000 0.86450  0.07900  0.62790  Biso   1.000  C
  H11      1.0000 0.85440  0.84790  0.08680  Biso   1.000  H
  H12      1.0000 0.85440  0.15210  0.58680  Biso   1.000  H
  C11      1.0000 0.14480  0.34440  0.17310  Biso   1.000  C
  C12      1.0000 0.14480  0.65560  0.67310  Biso   1.000  C
  C13      1.0000 0.17910  0.44570  0.11460  Biso   1.000  C
  C14      1.0000 0.17910  0.55430  0.61460  Biso   1.000  C
  H13      1.0000 0.22990  0.44060  0.05180  Biso   1.000  H
  H14      1.0000 0.22990  0.55940  0.55180  Biso   1.000  H
  C15      1.0000 0.13900  0.55390  0.14810  Biso   1.000  C
  C16      1.0000 0.13900  0.44610  0.64810  Biso   1.000  C
  H15      1.0000 0.16540  0.62260  0.11220  Biso   1.000  H
  H16      1.0000 0.16540  0.37740  0.61220  Biso   1.000  H
  C17      1.0000 0.05930  0.55850  0.23560  Biso   1.000  C
  C18      1.0000 0.05930  0.44150  0.73560  Biso   1.000  C
  H17      1.0000 0.02700  0.63050  0.25480  Biso   1.000  H
  H18      1.0000 0.02700  0.36950  0.75480  Biso   1.000  H
  C19      1.0000 0.02670  0.45660  0.29510  Biso   1.000  C
  C20      1.0000 0.02670  0.54340  0.79510  Biso   1.000  C
  H19      1.0000 0.97520  0.46080  0.35720  Biso   1.000  H
  H20      1.0000 0.97520  0.53920  0.85720  Biso   1.000  H
  C21      1.0000 0.76150  0.98030  0.15510  Biso   1.000  C
  C22      1.0000 0.76150  0.01970  0.65510  Biso   1.000  C
  C23      1.0000 0.65440  0.94210  0.09560  Biso   1.000  C
  C24      1.0000 0.65440  0.05790  0.59560  Biso   1.000  C
  H21      1.0000 0.64890  0.87450  0.04360  Biso   1.000  H
  H22      1.0000 0.64890  0.12550  0.54360  Biso   1.000  H
  C25      1.0000 0.55650  0.00460  0.11380  Biso   1.000  C
  C26      1.0000 0.55650  0.99540  0.61380  Biso   1.000  C
  H23      1.0000 0.48540  0.98170  0.07010  Biso   1.000  H
  H24      1.0000 0.48540  0.01830  0.57010  Biso   1.000  H
  C27      1.0000 0.56370  0.09860  0.19440  Biso   1.000  C
  C28      1.0000 0.56370  0.90140  0.69440  Biso   1.000  C
  H25      1.0000 0.49710  0.13890  0.20840  Biso   1.000  H
  H26      1.0000 0.49710  0.86110  0.70840  Biso   1.000  H
  C29      1.0000 0.66810  0.13560  0.25630  Biso   1.000  C
  C30      1.0000 0.66810  0.86440  0.75630  Biso   1.000  C
  H27      1.0000 0.67260  0.20200  0.31010  Biso   1.000  H
  H28      1.0000 0.67260  0.79800  0.81010  Biso   1.000  H
  Cl1      1.0000 0.86210  0.75316  0.44190  Biso   1.000  Cl
  Cl2      1.0000 0.86210  0.24684  0.94190  Biso   1.000  Cl
  O7       1.0000 0.87820  0.75150  0.57540  Biso   1.000  O
  O8       1.0000 0.87820  0.24850  0.07540  Biso   1.000  O
  O9       1.0000 0.97340  0.79350  0.40430  Biso   1.000  O
  O10      1.0000 0.97340  0.20650  0.90430  Biso   1.000  O
  O11      1.0000 0.77670  0.83670  0.40400  Biso   1.000  O
  O12      1.0000 0.77670  0.16330  0.90400  Biso   1.000  O
  O13      1.0000 0.84070  0.64280  0.39370  Biso   1.000  O
  O14      1.0000 0.84070  0.35720  0.89370  Biso   1.000  O
  Cl3      1.0000 0.40930  0.68260  0.92230  Biso   1.000  Cl
  Cl4      1.0000 0.40930  0.31740  0.42230  Biso   1.000  Cl
  O15      1.0000 0.50470  0.71100  0.98700  Biso   1.000  O
  O16      1.0000 0.50470  0.28900  0.48700  Biso   1.000  O
  O17      1.0000 0.43330  0.65960  0.79380  Biso   1.000  O
  O18      1.0000 0.43330  0.34040  0.29380  Biso   1.000  O
  O19      1.0000 0.33800  0.61500  0.95200  Biso   1.000  O
  O20      1.0000 0.33800  0.38500  0.45200  Biso   1.000  O
  O21      1.0000 0.35800  0.79300  0.90300  Biso   1.000  O
  O22      1.0000 0.35800  0.20700  0.40300  Biso   1.000  O
  C31      1.0000 0.49900  0.66640  0.33000  Biso   1.000  C
  C32      1.0000 0.49900  0.33360  0.83000  Biso   1.000  C
  H29      1.0000 0.56910  0.71110  0.34560  Biso   1.000  H
  H30      1.0000 0.56910  0.28890  0.84560  Biso   1.000  H
  H31      1.0000 0.49020  0.63670  0.24110  Biso   1.000  H
  H32      1.0000 0.49020  0.36330  0.74110  Biso   1.000  H
  H33      1.0000 0.50200  0.60150  0.39030  Biso   1.000  H
  H34      1.0000 0.50200  0.39850  0.89030  Biso   1.000  H
  C33      1.0000 0.39940  0.74350  0.34810  Biso   1.000  C
  C34      1.0000 0.39940  0.25650  0.84810  Biso   1.000  C
  N9       1.0000 0.32000  0.79160  0.36000  Biso   1.000  N
  N10      1.0000 0.32000  0.20840  0.86000  Biso   1.000  N
  C35      1.0000 0.69630  0.51710  0.65630  Biso   1.000  C
  C36      1.0000 0.69630  0.48290  0.15630  Biso   1.000  C
  C37      1.0000 0.75360  0.42710  0.57230  Biso   1.000  C
  C38      1.0000 0.75360  0.57290  0.07230  Biso   1.000  C
  N11      1.0000 0.79170  0.35770  0.51090  Biso   1.000  N
  N12      1.0000 0.79170  0.64230  0.01090  Biso   1.000  N
