data_image0
_cell_length_a       19.0696
_cell_length_b       11.0596
_cell_length_c       11.4266
_cell_angle_alpha    90
_cell_angle_beta     90
_cell_angle_gamma    90

_symmetry_space_group_name_H-M    "P 1"
_symmetry_int_tables_number       1

loop_
  _symmetry_equiv_pos_as_xyz
  'x, y, z'

loop_
  _atom_site_label
  _atom_site_occupancy
  _atom_site_fract_x
  _atom_site_fract_y
  _atom_site_fract_z
  _atom_site_thermal_displace_type
  _atom_site_B_iso_or_equiv
  _atom_site_type_symbol
  Rb1      1.0000 0.36270  0.42281  0.25000  Biso   1.000  Rb
  Rb2      1.0000 0.63730  0.57719  0.75000  Biso   1.000  Rb
  Rb3      1.0000 0.86270  0.07719  0.25000  Biso   1.000  Rb
  Rb4      1.0000 0.13730  0.92281  0.75000  Biso   1.000  Rb
  Cu1      1.0000 0.25386  0.16791  0.50039  Biso   1.000  Cu
  Cu2      1.0000 0.74614  0.83209  0.00039  Biso   1.000  Cu
  Cu3      1.0000 0.75386  0.33209  0.99961  Biso   1.000  Cu
  Cu4      1.0000 0.24614  0.66791  0.49961  Biso   1.000  Cu
  Cu5      1.0000 0.74614  0.83209  0.49961  Biso   1.000  Cu
  Cu6      1.0000 0.25386  0.16791  0.99961  Biso   1.000  Cu
  Cu7      1.0000 0.24614  0.66791  0.00039  Biso   1.000  Cu
  Cu8      1.0000 0.75386  0.33209  0.50039  Biso   1.000  Cu
  N1       1.0000 0.19060  0.30740  0.53420  Biso   1.000  N
  N2       1.0000 0.80940  0.69260  0.03420  Biso   1.000  N
  N3       1.0000 0.69060  0.19260  0.96580  Biso   1.000  N
  N4       1.0000 0.30940  0.80740  0.46580  Biso   1.000  N
  N5       1.0000 0.80940  0.69260  0.46580  Biso   1.000  N
  N6       1.0000 0.19060  0.30740  0.96580  Biso   1.000  N
  N7       1.0000 0.30940  0.80740  0.03420  Biso   1.000  N
  N8       1.0000 0.69060  0.19260  0.53420  Biso   1.000  N
  C1       1.0000 0.22220  0.41980  0.50760  Biso   1.000  C
  C2       1.0000 0.77780  0.58020  0.00760  Biso   1.000  C
  C3       1.0000 0.72220  0.08020  0.99240  Biso   1.000  C
  C4       1.0000 0.27780  0.91980  0.49240  Biso   1.000  C
  C5       1.0000 0.77780  0.58020  0.49240  Biso   1.000  C
  C6       1.0000 0.22220  0.41980  0.99240  Biso   1.000  C
  C7       1.0000 0.27780  0.91980  0.00760  Biso   1.000  C
  C8       1.0000 0.72220  0.08020  0.50760  Biso   1.000  C
  N9       1.0000 0.18710  0.52300  0.53120  Biso   1.000  N
  N10      1.0000 0.81290  0.47700  0.03120  Biso   1.000  N
  N11      1.0000 0.68710  0.97700  0.96880  Biso   1.000  N
  N12      1.0000 0.31290  0.02300  0.46880  Biso   1.000  N
  N13      1.0000 0.81290  0.47700  0.46880  Biso   1.000  N
  N14      1.0000 0.18710  0.52300  0.96880  Biso   1.000  N
  N15      1.0000 0.31290  0.02300  0.03120  Biso   1.000  N
  N16      1.0000 0.68710  0.97700  0.53120  Biso   1.000  N
  C9       1.0000 0.12320  0.51770  0.57650  Biso   1.000  C
  C10      1.0000 0.87680  0.48230  0.07650  Biso   1.000  C
  C11      1.0000 0.62320  0.98230  0.92350  Biso   1.000  C
  C12      1.0000 0.37680  0.01770  0.42350  Biso   1.000  C
  C13      1.0000 0.87680  0.48230  0.42350  Biso   1.000  C
  C14      1.0000 0.12320  0.51770  0.92350  Biso   1.000  C
  C15      1.0000 0.37680  0.01770  0.07650  Biso   1.000  C
  C16      1.0000 0.62320  0.98230  0.57650  Biso   1.000  C
  H1       1.0000 0.10040  0.58930  0.59600  Biso   1.000  H
  H2       1.0000 0.89960  0.41070  0.09600  Biso   1.000  H
  H3       1.0000 0.60040  0.91070  0.90400  Biso   1.000  H
  H4       1.0000 0.39960  0.08930  0.40400  Biso   1.000  H
  H5       1.0000 0.89960  0.41070  0.40400  Biso   1.000  H
  H6       1.0000 0.10040  0.58930  0.90400  Biso   1.000  H
  H7       1.0000 0.39960  0.08930  0.09600  Biso   1.000  H
  H8       1.0000 0.60040  0.91070  0.59600  Biso   1.000  H
  C17      1.0000 0.09000  0.41140  0.59510  Biso   1.000  C
  C18      1.0000 0.91000  0.58860  0.09510  Biso   1.000  C
  C19      1.0000 0.59000  0.08860  0.90490  Biso   1.000  C
  C20      1.0000 0.41000  0.91140  0.40490  Biso   1.000  C
  C21      1.0000 0.91000  0.58860  0.40490  Biso   1.000  C
  C22      1.0000 0.09000  0.41140  0.90490  Biso   1.000  C
  C23      1.0000 0.41000  0.91140  0.09510  Biso   1.000  C
  C24      1.0000 0.59000  0.08860  0.59510  Biso   1.000  C
  H9       1.0000 0.04360  0.40930  0.61960  Biso   1.000  H
  H10      1.0000 0.95640  0.59070  0.11960  Biso   1.000  H
  H11      1.0000 0.54360  0.09070  0.88040  Biso   1.000  H
  H12      1.0000 0.45640  0.90930  0.38040  Biso   1.000  H
  H13      1.0000 0.95640  0.59070  0.38040  Biso   1.000  H
  H14      1.0000 0.04360  0.40930  0.88040  Biso   1.000  H
  H15      1.0000 0.45640  0.90930  0.11960  Biso   1.000  H
  H16      1.0000 0.54360  0.09070  0.61960  Biso   1.000  H
  C25      1.0000 0.12660  0.30750  0.57690  Biso   1.000  C
  C26      1.0000 0.87340  0.69250  0.07690  Biso   1.000  C
  C27      1.0000 0.62660  0.19250  0.92310  Biso   1.000  C
  C28      1.0000 0.37340  0.80750  0.42310  Biso   1.000  C
  C29      1.0000 0.87340  0.69250  0.42310  Biso   1.000  C
  C30      1.0000 0.12660  0.30750  0.92310  Biso   1.000  C
  C31      1.0000 0.37340  0.80750  0.07690  Biso   1.000  C
  C32      1.0000 0.62660  0.19250  0.57690  Biso   1.000  C
  H17      1.0000 0.10560  0.23400  0.59530  Biso   1.000  H
  H18      1.0000 0.89440  0.76600  0.09530  Biso   1.000  H
  H19      1.0000 0.60560  0.26600  0.90470  Biso   1.000  H
  H20      1.0000 0.39440  0.73400  0.40470  Biso   1.000  H
  H21      1.0000 0.89440  0.76600  0.40470  Biso   1.000  H
  H22      1.0000 0.10560  0.23400  0.90470  Biso   1.000  H
  H23      1.0000 0.39440  0.73400  0.09530  Biso   1.000  H
  H24      1.0000 0.60560  0.26600  0.59530  Biso   1.000  H
  O1       1.0000 0.28160  0.42140  0.46380  Biso   1.000  O
  O2       1.0000 0.71840  0.57860  0.96380  Biso   1.000  O
  O3       1.0000 0.78160  0.07860  0.03620  Biso   1.000  O
  O4       1.0000 0.21840  0.92140  0.53620  Biso   1.000  O
  O5       1.0000 0.71840  0.57860  0.53620  Biso   1.000  O
  O6       1.0000 0.28160  0.42140  0.03620  Biso   1.000  O
  O7       1.0000 0.21840  0.92140  0.96380  Biso   1.000  O
  O8       1.0000 0.78160  0.07860  0.46380  Biso   1.000  O
  N17      1.0000 0.20240  0.13310  0.35410  Biso   1.000  N
  N18      1.0000 0.79760  0.86690  0.85410  Biso   1.000  N
  N19      1.0000 0.70240  0.36690  0.14590  Biso   1.000  N
  N20      1.0000 0.29760  0.63310  0.64590  Biso   1.000  N
  N21      1.0000 0.79760  0.86690  0.64590  Biso   1.000  N
  N22      1.0000 0.20240  0.13310  0.14590  Biso   1.000  N
  N23      1.0000 0.29760  0.63310  0.85410  Biso   1.000  N
  N24      1.0000 0.70240  0.36690  0.35410  Biso   1.000  N
  C33      1.0000 0.23480  0.15570  0.25000  Biso   1.000  C
  C34      1.0000 0.76520  0.84430  0.75000  Biso   1.000  C
  C35      1.0000 0.73480  0.34430  0.25000  Biso   1.000  C
  C36      1.0000 0.26520  0.65570  0.75000  Biso   1.000  C
  C37      1.0000 0.13910  0.08390  0.35040  Biso   1.000  C
  C38      1.0000 0.86090  0.91610  0.85040  Biso   1.000  C
  C39      1.0000 0.63910  0.41610  0.14960  Biso   1.000  C
  C40      1.0000 0.36090  0.58390  0.64960  Biso   1.000  C
  C41      1.0000 0.86090  0.91610  0.64960  Biso   1.000  C
  C42      1.0000 0.13910  0.08390  0.14960  Biso   1.000  C
  C43      1.0000 0.36090  0.58390  0.85040  Biso   1.000  C
  C44      1.0000 0.63910  0.41610  0.35040  Biso   1.000  C
  H25      1.0000 0.11790  0.06410  0.42120  Biso   1.000  H
  H26      1.0000 0.88210  0.93590  0.92120  Biso   1.000  H
  H27      1.0000 0.61790  0.43590  0.07880  Biso   1.000  H
  H28      1.0000 0.38210  0.56410  0.57880  Biso   1.000  H
  H29      1.0000 0.88210  0.93590  0.57880  Biso   1.000  H
  H30      1.0000 0.11790  0.06410  0.07880  Biso   1.000  H
  H31      1.0000 0.38210  0.56410  0.92120  Biso   1.000  H
  H32      1.0000 0.61790  0.43590  0.42120  Biso   1.000  H
  C45      1.0000 0.10280  0.06020  0.25000  Biso   1.000  C
  C46      1.0000 0.89720  0.93980  0.75000  Biso   1.000  C
  C47      1.0000 0.60280  0.43980  0.25000  Biso   1.000  C
  C48      1.0000 0.39720  0.56020  0.75000  Biso   1.000  C
  O9       1.0000 0.29580  0.20040  0.25000  Biso   1.000  O
  O10      1.0000 0.70420  0.79960  0.75000  Biso   1.000  O
  O11      1.0000 0.79580  0.29960  0.25000  Biso   1.000  O
  O12      1.0000 0.20420  0.70040  0.75000  Biso   1.000  O
  N25      1.0000 0.19210  0.70190  0.14660  Biso   1.000  N
  N26      1.0000 0.80790  0.29810  0.64660  Biso   1.000  N
  N27      1.0000 0.69210  0.79810  0.35340  Biso   1.000  N
  N28      1.0000 0.30790  0.20190  0.85340  Biso   1.000  N
  N29      1.0000 0.80790  0.29810  0.85340  Biso   1.000  N
  N30      1.0000 0.19210  0.70190  0.35340  Biso   1.000  N
  N31      1.0000 0.30790  0.20190  0.64660  Biso   1.000  N
  N32      1.0000 0.69210  0.79810  0.14660  Biso   1.000  N
  C49      1.0000 0.09000  0.76220  0.25000  Biso   1.000  C
  C50      1.0000 0.91000  0.23780  0.75000  Biso   1.000  C
  C51      1.0000 0.59000  0.73780  0.25000  Biso   1.000  C
  C52      1.0000 0.41000  0.26220  0.75000  Biso   1.000  C
  C53      1.0000 0.12710  0.74080  0.14920  Biso   1.000  C
  C54      1.0000 0.87290  0.25920  0.64920  Biso   1.000  C
  C55      1.0000 0.62710  0.75920  0.35080  Biso   1.000  C
  C56      1.0000 0.37290  0.24080  0.85080  Biso   1.000  C
  C57      1.0000 0.87290  0.25920  0.85080  Biso   1.000  C
  C58      1.0000 0.12710  0.74080  0.35080  Biso   1.000  C
  C59      1.0000 0.37290  0.24080  0.64920  Biso   1.000  C
  C60      1.0000 0.62710  0.75920  0.14920  Biso   1.000  C
  H33      1.0000 0.10480  0.75470  0.07810  Biso   1.000  H
  H34      1.0000 0.89520  0.24530  0.57810  Biso   1.000  H
  H35      1.0000 0.60480  0.74530  0.42190  Biso   1.000  H
  H36      1.0000 0.39520  0.25470  0.92190  Biso   1.000  H
  H37      1.0000 0.89520  0.24530  0.92190  Biso   1.000  H
  H38      1.0000 0.10480  0.75470  0.42190  Biso   1.000  H
  H39      1.0000 0.39520  0.25470  0.57810  Biso   1.000  H
  H40      1.0000 0.60480  0.74530  0.07810  Biso   1.000  H
  C61      1.0000 0.22630  0.67950  0.25000  Biso   1.000  C
  C62      1.0000 0.77370  0.32050  0.75000  Biso   1.000  C
  C63      1.0000 0.72630  0.82050  0.25000  Biso   1.000  C
  C64      1.0000 0.27370  0.17950  0.75000  Biso   1.000  C
  O13      1.0000 0.28840  0.63910  0.25000  Biso   1.000  O
  O14      1.0000 0.71160  0.36090  0.75000  Biso   1.000  O
  O15      1.0000 0.78840  0.86090  0.25000  Biso   1.000  O
  O16      1.0000 0.21160  0.13910  0.75000  Biso   1.000  O
  N33      1.0000 0.48640  0.43660  0.03000  Biso   1.000  N
  N34      1.0000 0.51360  0.56340  0.53000  Biso   1.000  N
  N35      1.0000 0.98640  0.06340  0.47000  Biso   1.000  N
  N36      1.0000 0.01360  0.93660  0.97000  Biso   1.000  N
  N37      1.0000 0.51360  0.56340  0.97000  Biso   1.000  N
  N38      1.0000 0.48640  0.43660  0.47000  Biso   1.000  N
  N39      1.0000 0.01360  0.93660  0.53000  Biso   1.000  N
  N40      1.0000 0.98640  0.06340  0.03000  Biso   1.000  N
  O17      1.0000 0.46680  0.53080  0.08100  Biso   1.000  O
  O18      1.0000 0.53320  0.46920  0.58100  Biso   1.000  O
  O19      1.0000 0.96680  0.96920  0.41900  Biso   1.000  O
  O20      1.0000 0.03320  0.03080  0.91900  Biso   1.000  O
  O21      1.0000 0.53320  0.46920  0.91900  Biso   1.000  O
  O22      1.0000 0.46680  0.53080  0.41900  Biso   1.000  O
  O23      1.0000 0.03320  0.03080  0.58100  Biso   1.000  O
  O24      1.0000 0.96680  0.96920  0.08100  Biso   1.000  O
  O25      1.0000 0.47430  0.33310  0.06900  Biso   1.000  O
  O26      1.0000 0.52570  0.66690  0.56900  Biso   1.000  O
  O27      1.0000 0.97430  0.16690  0.43100  Biso   1.000  O
  O28      1.0000 0.02570  0.83310  0.93100  Biso   1.000  O
  O29      1.0000 0.52570  0.66690  0.93100  Biso   1.000  O
  O30      1.0000 0.47430  0.33310  0.43100  Biso   1.000  O
  O31      1.0000 0.02570  0.83310  0.56900  Biso   1.000  O
  O32      1.0000 0.97430  0.16690  0.06900  Biso   1.000  O
  O33      1.0000 0.48330  0.54420  0.06300  Biso   1.000  O
  O34      1.0000 0.51670  0.45580  0.56300  Biso   1.000  O
  O35      1.0000 0.98330  0.95580  0.43700  Biso   1.000  O
  O36      1.0000 0.01670  0.04420  0.93700  Biso   1.000  O
  O37      1.0000 0.51670  0.45580  0.93700  Biso   1.000  O
  O38      1.0000 0.48330  0.54420  0.43700  Biso   1.000  O
  O39      1.0000 0.01670  0.04420  0.56300  Biso   1.000  O
  O40      1.0000 0.98330  0.95580  0.06300  Biso   1.000  O
  O41      1.0000 0.46610  0.29200  0.09000  Biso   1.000  O
  O42      1.0000 0.53390  0.70800  0.59000  Biso   1.000  O
  O43      1.0000 0.96610  0.20800  0.41000  Biso   1.000  O
  O44      1.0000 0.03390  0.79200  0.91000  Biso   1.000  O
  O45      1.0000 0.53390  0.70800  0.91000  Biso   1.000  O
  O46      1.0000 0.46610  0.29200  0.41000  Biso   1.000  O
  O47      1.0000 0.03390  0.79200  0.59000  Biso   1.000  O
  O48      1.0000 0.96610  0.20800  0.09000  Biso   1.000  O
  C65      1.0000 0.09480  0.41400  0.25000  Biso   1.000  C
  C66      1.0000 0.90520  0.58600  0.75000  Biso   1.000  C
  C67      1.0000 0.59480  0.08600  0.25000  Biso   1.000  C
  C68      1.0000 0.40520  0.91400  0.75000  Biso   1.000  C
  O49      1.0000 0.02760  0.35400  0.25000  Biso   1.000  O
  O50      1.0000 0.97240  0.64600  0.75000  Biso   1.000  O
  O51      1.0000 0.52760  0.14600  0.25000  Biso   1.000  O
  O52      1.0000 0.47240  0.85400  0.75000  Biso   1.000  O
