data_image0
_cell_length_a       20.7373
_cell_length_b       17.9433
_cell_length_c       10.9131
_cell_angle_alpha    90
_cell_angle_beta     91.475
_cell_angle_gamma    90

_symmetry_space_group_name_H-M    "P 1"
_symmetry_int_tables_number       1

loop_
  _symmetry_equiv_pos_as_xyz
  'x, y, z'

loop_
  _atom_site_label
  _atom_site_occupancy
  _atom_site_fract_x
  _atom_site_fract_y
  _atom_site_fract_z
  _atom_site_thermal_displace_type
  _atom_site_B_iso_or_equiv
  _atom_site_type_symbol
  Cu1      1.0000 0.75429  0.17623  0.97947  Biso   1.000  Cu
  Cu2      1.0000 0.24571  0.17623  0.02053  Biso   1.000  Cu
  Cu3      1.0000 0.25429  0.67623  0.97947  Biso   1.000  Cu
  Cu4      1.0000 0.74571  0.67623  0.02053  Biso   1.000  Cu
  Cu5      1.0000 0.24571  0.82377  0.02053  Biso   1.000  Cu
  Cu6      1.0000 0.75429  0.82377  0.97947  Biso   1.000  Cu
  Cu7      1.0000 0.74571  0.32377  0.02053  Biso   1.000  Cu
  Cu8      1.0000 0.25429  0.32377  0.97947  Biso   1.000  Cu
  O1       1.0000 0.75572  0.06129  0.94340  Biso   1.000  O
  O2       1.0000 0.24428  0.06129  0.05660  Biso   1.000  O
  O3       1.0000 0.25572  0.56129  0.94340  Biso   1.000  O
  O4       1.0000 0.74428  0.56129  0.05660  Biso   1.000  O
  O5       1.0000 0.24428  0.93871  0.05660  Biso   1.000  O
  O6       1.0000 0.75572  0.93871  0.94340  Biso   1.000  O
  O7       1.0000 0.74428  0.43871  0.05660  Biso   1.000  O
  O8       1.0000 0.25572  0.43871  0.94340  Biso   1.000  O
  C1       1.0000 0.84157  0.19150  0.59660  Biso   1.000  C
  C2       1.0000 0.15843  0.19150  0.40340  Biso   1.000  C
  C3       1.0000 0.34157  0.69150  0.59660  Biso   1.000  C
  C4       1.0000 0.65843  0.69150  0.40340  Biso   1.000  C
  C5       1.0000 0.15843  0.80850  0.40340  Biso   1.000  C
  C6       1.0000 0.84157  0.80850  0.59660  Biso   1.000  C
  C7       1.0000 0.65843  0.30850  0.40340  Biso   1.000  C
  C8       1.0000 0.34157  0.30850  0.59660  Biso   1.000  C
  H1       1.0000 0.85300  0.18040  0.67950  Biso   1.000  H
  H2       1.0000 0.14700  0.18040  0.32050  Biso   1.000  H
  H3       1.0000 0.35300  0.68040  0.67950  Biso   1.000  H
  H4       1.0000 0.64700  0.68040  0.32050  Biso   1.000  H
  H5       1.0000 0.14700  0.81960  0.32050  Biso   1.000  H
  H6       1.0000 0.85300  0.81960  0.67950  Biso   1.000  H
  H7       1.0000 0.64700  0.31960  0.32050  Biso   1.000  H
  H8       1.0000 0.35300  0.31960  0.67950  Biso   1.000  H
  O9       1.0000 0.78543  0.18176  0.15050  Biso   1.000  O
  O10      1.0000 0.21457  0.18176  0.84950  Biso   1.000  O
  O11      1.0000 0.28543  0.68176  0.15050  Biso   1.000  O
  O12      1.0000 0.71457  0.68176  0.84950  Biso   1.000  O
  O13      1.0000 0.21457  0.81824  0.84950  Biso   1.000  O
  O14      1.0000 0.78543  0.81824  0.15050  Biso   1.000  O
  O15      1.0000 0.71457  0.31824  0.84950  Biso   1.000  O
  O16      1.0000 0.28543  0.31824  0.15050  Biso   1.000  O
  N1       1.0000 0.03650  0.43978  0.83060  Biso   1.000  N
  N2       1.0000 0.96350  0.43978  0.16940  Biso   1.000  N
  N3       1.0000 0.53650  0.93978  0.83060  Biso   1.000  N
  N4       1.0000 0.46350  0.93978  0.16940  Biso   1.000  N
  N5       1.0000 0.96350  0.56022  0.16940  Biso   1.000  N
  N6       1.0000 0.03650  0.56022  0.83060  Biso   1.000  N
  N7       1.0000 0.46350  0.06022  0.16940  Biso   1.000  N
  N8       1.0000 0.53650  0.06022  0.83060  Biso   1.000  N
  C9       1.0000 0.86398  0.26390  0.92440  Biso   1.000  C
  C10      1.0000 0.13602  0.26390  0.07560  Biso   1.000  C
  C11      1.0000 0.36398  0.76390  0.92440  Biso   1.000  C
  C12      1.0000 0.63602  0.76390  0.07560  Biso   1.000  C
  C13      1.0000 0.13602  0.73610  0.07560  Biso   1.000  C
  C14      1.0000 0.86398  0.73610  0.92440  Biso   1.000  C
  C15      1.0000 0.63602  0.23610  0.07560  Biso   1.000  C
  C16      1.0000 0.36398  0.23610  0.92440  Biso   1.000  C
  O17      1.0000 0.84222  0.19767  0.92000  Biso   1.000  O
  O18      1.0000 0.15778  0.19767  0.08000  Biso   1.000  O
  O19      1.0000 0.34222  0.69767  0.92000  Biso   1.000  O
  O20      1.0000 0.65778  0.69767  0.08000  Biso   1.000  O
  O21      1.0000 0.15778  0.80233  0.08000  Biso   1.000  O
  O22      1.0000 0.84222  0.80233  0.92000  Biso   1.000  O
  O23      1.0000 0.65778  0.30233  0.08000  Biso   1.000  O
  O24      1.0000 0.34222  0.30233  0.92000  Biso   1.000  O
  C17      1.0000 0.92951  0.27760  0.87410  Biso   1.000  C
  C18      1.0000 0.07049  0.27760  0.12590  Biso   1.000  C
  C19      1.0000 0.42951  0.77760  0.87410  Biso   1.000  C
  C20      1.0000 0.57049  0.77760  0.12590  Biso   1.000  C
  C21      1.0000 0.07049  0.72240  0.12590  Biso   1.000  C
  C22      1.0000 0.92951  0.72240  0.87410  Biso   1.000  C
  C23      1.0000 0.57049  0.22240  0.12590  Biso   1.000  C
  C24      1.0000 0.42951  0.22240  0.87410  Biso   1.000  C
  O25      1.0000 0.77865  0.30435  0.18980  Biso   1.000  O
  O26      1.0000 0.22135  0.30435  0.81020  Biso   1.000  O
  O27      1.0000 0.27865  0.80435  0.18980  Biso   1.000  O
  O28      1.0000 0.72135  0.80435  0.81020  Biso   1.000  O
  O29      1.0000 0.22135  0.69565  0.81020  Biso   1.000  O
  O30      1.0000 0.77865  0.69565  0.18980  Biso   1.000  O
  O31      1.0000 0.72135  0.19565  0.81020  Biso   1.000  O
  O32      1.0000 0.27865  0.19565  0.18980  Biso   1.000  O
  C25      1.0000 0.01255  0.36460  0.82770  Biso   1.000  C
  C26      1.0000 0.98745  0.36460  0.17230  Biso   1.000  C
  C27      1.0000 0.51255  0.86460  0.82770  Biso   1.000  C
  C28      1.0000 0.48745  0.86460  0.17230  Biso   1.000  C
  C29      1.0000 0.98745  0.63540  0.17230  Biso   1.000  C
  C30      1.0000 0.01255  0.63540  0.82770  Biso   1.000  C
  C31      1.0000 0.48745  0.13540  0.17230  Biso   1.000  C
  C32      1.0000 0.51255  0.13540  0.82770  Biso   1.000  C
  O33      1.0000 0.83506  0.31949  0.96610  Biso   1.000  O
  O34      1.0000 0.16494  0.31949  0.03390  Biso   1.000  O
  O35      1.0000 0.33506  0.81949  0.96610  Biso   1.000  O
  O36      1.0000 0.66494  0.81949  0.03390  Biso   1.000  O
  O37      1.0000 0.16494  0.68051  0.03390  Biso   1.000  O
  O38      1.0000 0.83506  0.68051  0.96610  Biso   1.000  O
  O39      1.0000 0.66494  0.18051  0.03390  Biso   1.000  O
  O40      1.0000 0.33506  0.18051  0.96610  Biso   1.000  O
  C33      1.0000 0.78983  0.23740  0.22050  Biso   1.000  C
  C34      1.0000 0.21017  0.23740  0.77950  Biso   1.000  C
  C35      1.0000 0.28983  0.73740  0.22050  Biso   1.000  C
  C36      1.0000 0.71017  0.73740  0.77950  Biso   1.000  C
  C37      1.0000 0.21017  0.76260  0.77950  Biso   1.000  C
  C38      1.0000 0.78983  0.76260  0.22050  Biso   1.000  C
  C39      1.0000 0.71017  0.26260  0.77950  Biso   1.000  C
  C40      1.0000 0.28983  0.26260  0.22050  Biso   1.000  C
  C41      1.0000 0.95194  0.35030  0.87220  Biso   1.000  C
  C42      1.0000 0.04806  0.35030  0.12780  Biso   1.000  C
  C43      1.0000 0.45194  0.85030  0.87220  Biso   1.000  C
  C44      1.0000 0.54806  0.85030  0.12780  Biso   1.000  C
  C45      1.0000 0.04806  0.64970  0.12780  Biso   1.000  C
  C46      1.0000 0.95194  0.64970  0.87220  Biso   1.000  C
  C47      1.0000 0.54806  0.14970  0.12780  Biso   1.000  C
  C48      1.0000 0.45194  0.14970  0.87220  Biso   1.000  C
  H9       1.0000 0.92600  0.38990  0.90110  Biso   1.000  H
  H10      1.0000 0.07400  0.38990  0.09890  Biso   1.000  H
  H11      1.0000 0.42600  0.88990  0.90110  Biso   1.000  H
  H12      1.0000 0.57400  0.88990  0.09890  Biso   1.000  H
  H13      1.0000 0.07400  0.61010  0.09890  Biso   1.000  H
  H14      1.0000 0.92600  0.61010  0.90110  Biso   1.000  H
  H15      1.0000 0.57400  0.11010  0.09890  Biso   1.000  H
  H16      1.0000 0.42600  0.11010  0.90110  Biso   1.000  H
  N9       1.0000 0.81737  0.06004  0.55790  Biso   1.000  N
  N10      1.0000 0.18263  0.06004  0.44210  Biso   1.000  N
  N11      1.0000 0.31737  0.56004  0.55790  Biso   1.000  N
  N12      1.0000 0.68263  0.56004  0.44210  Biso   1.000  N
  N13      1.0000 0.18263  0.93996  0.44210  Biso   1.000  N
  N14      1.0000 0.81737  0.93996  0.55790  Biso   1.000  N
  N15      1.0000 0.68263  0.43996  0.44210  Biso   1.000  N
  N16      1.0000 0.31737  0.43996  0.55790  Biso   1.000  N
  C49      1.0000 0.99870  0.50000  0.81490  Biso   1.000  C
  C50      1.0000 0.00130  0.50000  0.18510  Biso   1.000  C
  C51      1.0000 0.49870  0.00000  0.81490  Biso   1.000  C
  C52      1.0000 0.50130  0.00000  0.18510  Biso   1.000  C
  H17      1.0000 0.95370  0.50000  0.79620  Biso   1.000  H
  H18      1.0000 0.04630  0.50000  0.20380  Biso   1.000  H
  H19      1.0000 0.45370  0.00000  0.79620  Biso   1.000  H
  H20      1.0000 0.54630  0.00000  0.20380  Biso   1.000  H
  C53      1.0000 0.83170  0.00000  0.49220  Biso   1.000  C
  C54      1.0000 0.16830  0.00000  0.50780  Biso   1.000  C
  C55      1.0000 0.33170  0.50000  0.49220  Biso   1.000  C
  C56      1.0000 0.66830  0.50000  0.50780  Biso   1.000  C
  H21      1.0000 0.84900  0.00000  0.41240  Biso   1.000  H
  H22      1.0000 0.15100  0.00000  0.58760  Biso   1.000  H
  H23      1.0000 0.34900  0.50000  0.41240  Biso   1.000  H
  H24      1.0000 0.65100  0.50000  0.58760  Biso   1.000  H
  C57      1.0000 0.82270  0.13530  0.51530  Biso   1.000  C
  C58      1.0000 0.17730  0.13530  0.48470  Biso   1.000  C
  C59      1.0000 0.32270  0.63530  0.51530  Biso   1.000  C
  C60      1.0000 0.67730  0.63530  0.48470  Biso   1.000  C
  C61      1.0000 0.17730  0.86470  0.48470  Biso   1.000  C
  C62      1.0000 0.82270  0.86470  0.51530  Biso   1.000  C
  C63      1.0000 0.67730  0.36470  0.48470  Biso   1.000  C
  C64      1.0000 0.32270  0.36470  0.51530  Biso   1.000  C
  C65      1.0000 0.05130  0.30810  0.78420  Biso   1.000  C
  C66      1.0000 0.94870  0.30810  0.21580  Biso   1.000  C
  C67      1.0000 0.55130  0.80810  0.78420  Biso   1.000  C
  C68      1.0000 0.44870  0.80810  0.21580  Biso   1.000  C
  C69      1.0000 0.94870  0.69190  0.21580  Biso   1.000  C
  C70      1.0000 0.05130  0.69190  0.78420  Biso   1.000  C
  C71      1.0000 0.44870  0.19190  0.21580  Biso   1.000  C
  C72      1.0000 0.55130  0.19190  0.78420  Biso   1.000  C
  H25      1.0000 0.09300  0.31890  0.75470  Biso   1.000  H
  H26      1.0000 0.90700  0.31890  0.24530  Biso   1.000  H
  H27      1.0000 0.59300  0.81890  0.75470  Biso   1.000  H
  H28      1.0000 0.40700  0.81890  0.24530  Biso   1.000  H
  H29      1.0000 0.90700  0.68110  0.24530  Biso   1.000  H
  H30      1.0000 0.09300  0.68110  0.75470  Biso   1.000  H
  H31      1.0000 0.40700  0.18110  0.24530  Biso   1.000  H
  H32      1.0000 0.59300  0.18110  0.75470  Biso   1.000  H
  C73      1.0000 0.80717  0.14960  0.39350  Biso   1.000  C
  C74      1.0000 0.19283  0.14960  0.60650  Biso   1.000  C
  C75      1.0000 0.30717  0.64960  0.39350  Biso   1.000  C
  C76      1.0000 0.69283  0.64960  0.60650  Biso   1.000  C
  C77      1.0000 0.19283  0.85040  0.60650  Biso   1.000  C
  C78      1.0000 0.80717  0.85040  0.39350  Biso   1.000  C
  C79      1.0000 0.69283  0.35040  0.60650  Biso   1.000  C
  C80      1.0000 0.30717  0.35040  0.39350  Biso   1.000  C
  H33      1.0000 0.79530  0.11020  0.33930  Biso   1.000  H
  H34      1.0000 0.20470  0.11020  0.66070  Biso   1.000  H
  H35      1.0000 0.29530  0.61020  0.33930  Biso   1.000  H
  H36      1.0000 0.70470  0.61020  0.66070  Biso   1.000  H
  H37      1.0000 0.20470  0.88980  0.66070  Biso   1.000  H
  H38      1.0000 0.79530  0.88980  0.33930  Biso   1.000  H
  H39      1.0000 0.70470  0.38980  0.66070  Biso   1.000  H
  H40      1.0000 0.29530  0.38980  0.33930  Biso   1.000  H
  C81      1.0000 0.80932  0.22280  0.35220  Biso   1.000  C
  C82      1.0000 0.19068  0.22280  0.64780  Biso   1.000  C
  C83      1.0000 0.30932  0.72280  0.35220  Biso   1.000  C
  C84      1.0000 0.69068  0.72280  0.64780  Biso   1.000  C
  C85      1.0000 0.19068  0.77720  0.64780  Biso   1.000  C
  C86      1.0000 0.80932  0.77720  0.35220  Biso   1.000  C
  C87      1.0000 0.69068  0.27720  0.64780  Biso   1.000  C
  C88      1.0000 0.30932  0.27720  0.35220  Biso   1.000  C
  C89      1.0000 0.09971  0.46260  0.85530  Biso   1.000  C
  C90      1.0000 0.90029  0.46260  0.14470  Biso   1.000  C
  C91      1.0000 0.59971  0.96260  0.85530  Biso   1.000  C
  C92      1.0000 0.40029  0.96260  0.14470  Biso   1.000  C
  C93      1.0000 0.90029  0.53740  0.14470  Biso   1.000  C
  C94      1.0000 0.09971  0.53740  0.85530  Biso   1.000  C
  C95      1.0000 0.40029  0.03740  0.14470  Biso   1.000  C
  C96      1.0000 0.59971  0.03740  0.85530  Biso   1.000  C
  H41      1.0000 0.13600  0.43110  0.86950  Biso   1.000  H
  H42      1.0000 0.86400  0.43110  0.13050  Biso   1.000  H
  H43      1.0000 0.63600  0.93110  0.86950  Biso   1.000  H
  H44      1.0000 0.36400  0.93110  0.13050  Biso   1.000  H
  H45      1.0000 0.86400  0.56890  0.13050  Biso   1.000  H
  H46      1.0000 0.13600  0.56890  0.86950  Biso   1.000  H
  H47      1.0000 0.36400  0.06890  0.13050  Biso   1.000  H
  H48      1.0000 0.63600  0.06890  0.86950  Biso   1.000  H
  C97      1.0000 0.82685  0.28020  0.43280  Biso   1.000  C
  C98      1.0000 0.17315  0.28020  0.56720  Biso   1.000  C
  C99      1.0000 0.32685  0.78020  0.43280  Biso   1.000  C
  C100     1.0000 0.67315  0.78020  0.56720  Biso   1.000  C
  C101     1.0000 0.17315  0.71980  0.56720  Biso   1.000  C
  C102     1.0000 0.82685  0.71980  0.43280  Biso   1.000  C
  C103     1.0000 0.67315  0.21980  0.56720  Biso   1.000  C
  C104     1.0000 0.32685  0.21980  0.43280  Biso   1.000  C
  H49      1.0000 0.82750  0.33020  0.40450  Biso   1.000  H
  H50      1.0000 0.17250  0.33020  0.59550  Biso   1.000  H
  H51      1.0000 0.32750  0.83020  0.40450  Biso   1.000  H
  H52      1.0000 0.67250  0.83020  0.59550  Biso   1.000  H
  H53      1.0000 0.17250  0.66980  0.59550  Biso   1.000  H
  H54      1.0000 0.82750  0.66980  0.40450  Biso   1.000  H
  H55      1.0000 0.67250  0.16980  0.59550  Biso   1.000  H
  H56      1.0000 0.32750  0.16980  0.40450  Biso   1.000  H
  C105     1.0000 0.79310  0.03790  0.67040  Biso   1.000  C
  C106     1.0000 0.20690  0.03790  0.32960  Biso   1.000  C
  C107     1.0000 0.29310  0.53790  0.67040  Biso   1.000  C
  C108     1.0000 0.70690  0.53790  0.32960  Biso   1.000  C
  C109     1.0000 0.20690  0.96210  0.32960  Biso   1.000  C
  C110     1.0000 0.79310  0.96210  0.67040  Biso   1.000  C
  C111     1.0000 0.70690  0.46210  0.32960  Biso   1.000  C
  C112     1.0000 0.29310  0.46210  0.67040  Biso   1.000  C
  H57      1.0000 0.77930  0.06960  0.73430  Biso   1.000  H
  H58      1.0000 0.22070  0.06960  0.26570  Biso   1.000  H
  H59      1.0000 0.27930  0.56960  0.73430  Biso   1.000  H
  H60      1.0000 0.72070  0.56960  0.26570  Biso   1.000  H
  H61      1.0000 0.22070  0.93040  0.26570  Biso   1.000  H
  H62      1.0000 0.77930  0.93040  0.73430  Biso   1.000  H
  H63      1.0000 0.72070  0.43040  0.26570  Biso   1.000  H
  H64      1.0000 0.27930  0.43040  0.73430  Biso   1.000  H
  C113     1.0000 0.75370  0.00000  0.99670  Biso   1.000  C
  C114     1.0000 0.24630  0.00000  0.00330  Biso   1.000  C
  C115     1.0000 0.25370  0.50000  0.99670  Biso   1.000  C
  C116     1.0000 0.74630  0.50000  0.00330  Biso   1.000  C
  H65      1.0000 0.75040  0.00000  0.08330  Biso   1.000  H
  H66      1.0000 0.24960  0.00000  0.91670  Biso   1.000  H
  H67      1.0000 0.25040  0.50000  0.08330  Biso   1.000  H
  H68      1.0000 0.74960  0.50000  0.91670  Biso   1.000  H
  C117     1.0000 0.96789  0.21990  0.83090  Biso   1.000  C
  C118     1.0000 0.03211  0.21990  0.16910  Biso   1.000  C
  C119     1.0000 0.46789  0.71990  0.83090  Biso   1.000  C
  C120     1.0000 0.53211  0.71990  0.16910  Biso   1.000  C
  C121     1.0000 0.03211  0.78010  0.16910  Biso   1.000  C
  C122     1.0000 0.96789  0.78010  0.83090  Biso   1.000  C
  C123     1.0000 0.53211  0.28010  0.16910  Biso   1.000  C
  C124     1.0000 0.46789  0.28010  0.83090  Biso   1.000  C
  H69      1.0000 0.95280  0.17000  0.83300  Biso   1.000  H
  H70      1.0000 0.04720  0.17000  0.16700  Biso   1.000  H
  H71      1.0000 0.45280  0.67000  0.83300  Biso   1.000  H
  H72      1.0000 0.54720  0.67000  0.16700  Biso   1.000  H
  H73      1.0000 0.04720  0.83000  0.16700  Biso   1.000  H
  H74      1.0000 0.95280  0.83000  0.83300  Biso   1.000  H
  H75      1.0000 0.54720  0.33000  0.16700  Biso   1.000  H
  H76      1.0000 0.45280  0.33000  0.83300  Biso   1.000  H
  C125     1.0000 0.84323  0.26450  0.55310  Biso   1.000  C
  C126     1.0000 0.15677  0.26450  0.44690  Biso   1.000  C
  C127     1.0000 0.34323  0.76450  0.55310  Biso   1.000  C
  C128     1.0000 0.65677  0.76450  0.44690  Biso   1.000  C
  C129     1.0000 0.15677  0.73550  0.44690  Biso   1.000  C
  C130     1.0000 0.84323  0.73550  0.55310  Biso   1.000  C
  C131     1.0000 0.65677  0.23550  0.44690  Biso   1.000  C
  C132     1.0000 0.34323  0.23550  0.55310  Biso   1.000  C
  H77      1.0000 0.85580  0.30380  0.60700  Biso   1.000  H
  H78      1.0000 0.14420  0.30380  0.39300  Biso   1.000  H
  H79      1.0000 0.35580  0.80380  0.60700  Biso   1.000  H
  H80      1.0000 0.64420  0.80380  0.39300  Biso   1.000  H
  H81      1.0000 0.14420  0.69620  0.39300  Biso   1.000  H
  H82      1.0000 0.85580  0.69620  0.60700  Biso   1.000  H
  H83      1.0000 0.64420  0.19620  0.39300  Biso   1.000  H
  H84      1.0000 0.35580  0.19620  0.60700  Biso   1.000  H
  C133     1.0000 0.02820  0.23580  0.78460  Biso   1.000  C
  C134     1.0000 0.97180  0.23580  0.21540  Biso   1.000  C
  C135     1.0000 0.52820  0.73580  0.78460  Biso   1.000  C
  C136     1.0000 0.47180  0.73580  0.21540  Biso   1.000  C
  C137     1.0000 0.97180  0.76420  0.21540  Biso   1.000  C
  C138     1.0000 0.02820  0.76420  0.78460  Biso   1.000  C
  C139     1.0000 0.47180  0.26420  0.21540  Biso   1.000  C
  C140     1.0000 0.52820  0.26420  0.78460  Biso   1.000  C
  H85      1.0000 0.05370  0.19660  0.75290  Biso   1.000  H
  H86      1.0000 0.94630  0.19660  0.24710  Biso   1.000  H
  H87      1.0000 0.55370  0.69660  0.75290  Biso   1.000  H
  H88      1.0000 0.44630  0.69660  0.24710  Biso   1.000  H
  H89      1.0000 0.94630  0.80340  0.24710  Biso   1.000  H
  H90      1.0000 0.05370  0.80340  0.75290  Biso   1.000  H
  H91      1.0000 0.44630  0.30340  0.24710  Biso   1.000  H
  H92      1.0000 0.55370  0.30340  0.75290  Biso   1.000  H
  N17      1.0000 0.83280  0.50000  0.68720  Biso   1.000  N
  N18      1.0000 0.16720  0.50000  0.31280  Biso   1.000  N
  N19      1.0000 0.33280  0.00000  0.68720  Biso   1.000  N
  N20      1.0000 0.66720  0.00000  0.31280  Biso   1.000  N
  O41      1.0000 0.77850  0.50000  0.65990  Biso   1.000  O
  O42      1.0000 0.22150  0.50000  0.34010  Biso   1.000  O
  O43      1.0000 0.27850  0.00000  0.65990  Biso   1.000  O
  O44      1.0000 0.72150  0.00000  0.34010  Biso   1.000  O
  O45      1.0000 0.86550  0.55750  0.69220  Biso   1.000  O
  O46      1.0000 0.13450  0.55750  0.30780  Biso   1.000  O
  O47      1.0000 0.36550  0.05750  0.69220  Biso   1.000  O
  O48      1.0000 0.63450  0.05750  0.30780  Biso   1.000  O
  O49      1.0000 0.13450  0.44250  0.30780  Biso   1.000  O
  O50      1.0000 0.86550  0.44250  0.69220  Biso   1.000  O
  O51      1.0000 0.63450  0.94250  0.30780  Biso   1.000  O
  O52      1.0000 0.36550  0.94250  0.69220  Biso   1.000  O
  Cu9      1.0000 0.91140  0.50000  0.74890  Biso   1.000  Cu
  Cu10     1.0000 0.08860  0.50000  0.25110  Biso   1.000  Cu
  Cu11     1.0000 0.41140  0.00000  0.74890  Biso   1.000  Cu
  Cu12     1.0000 0.58860  0.00000  0.25110  Biso   1.000  Cu
  Br1      1.0000 0.81770  0.50000  0.61160  Biso   1.000  Br
  Br2      1.0000 0.18230  0.50000  0.38840  Biso   1.000  Br
  Br3      1.0000 0.31770  0.00000  0.61160  Biso   1.000  Br
  Br4      1.0000 0.68230  0.00000  0.38840  Biso   1.000  Br
  O53      1.0000 0.89900  0.04750  0.24580  Biso   1.000  O
  O54      1.0000 0.10100  0.04750  0.75420  Biso   1.000  O
  O55      1.0000 0.39900  0.54750  0.24580  Biso   1.000  O
  O56      1.0000 0.60100  0.54750  0.75420  Biso   1.000  O
  O57      1.0000 0.10100  0.95250  0.75420  Biso   1.000  O
  O58      1.0000 0.89900  0.95250  0.24580  Biso   1.000  O
  O59      1.0000 0.60100  0.45250  0.75420  Biso   1.000  O
  O60      1.0000 0.39900  0.45250  0.24580  Biso   1.000  O
  C141     1.0000 0.89910  0.05540  0.13450  Biso   1.000  C
  C142     1.0000 0.10090  0.05540  0.86550  Biso   1.000  C
  C143     1.0000 0.39910  0.55540  0.13450  Biso   1.000  C
  C144     1.0000 0.60090  0.55540  0.86550  Biso   1.000  C
  C145     1.0000 0.10090  0.94460  0.86550  Biso   1.000  C
  C146     1.0000 0.89910  0.94460  0.13450  Biso   1.000  C
  C147     1.0000 0.60090  0.44460  0.86550  Biso   1.000  C
  C148     1.0000 0.39910  0.44460  0.13450  Biso   1.000  C
  H93      1.0000 0.89100  0.10360  0.10150  Biso   1.000  H
  H94      1.0000 0.10900  0.10360  0.89850  Biso   1.000  H
  H95      1.0000 0.39100  0.60360  0.10150  Biso   1.000  H
  H96      1.0000 0.60900  0.60360  0.89850  Biso   1.000  H
  H97      1.0000 0.10900  0.89640  0.89850  Biso   1.000  H
  H98      1.0000 0.89100  0.89640  0.10150  Biso   1.000  H
  H99      1.0000 0.60900  0.39640  0.89850  Biso   1.000  H
  H100     1.0000 0.39100  0.39640  0.10150  Biso   1.000  H
  N21      1.0000 0.91000  0.00000  0.05810  Biso   1.000  N
  N22      1.0000 0.09000  0.00000  0.94190  Biso   1.000  N
  N23      1.0000 0.41000  0.50000  0.05810  Biso   1.000  N
  N24      1.0000 0.59000  0.50000  0.94190  Biso   1.000  N
  C149     1.0000 0.90750  0.00000  0.92460  Biso   1.000  C
  C150     1.0000 0.09250  0.00000  0.07540  Biso   1.000  C
  C151     1.0000 0.40750  0.50000  0.92460  Biso   1.000  C
  C152     1.0000 0.59250  0.50000  0.07540  Biso   1.000  C
  H101     1.0000 0.91810  0.04990  0.89440  Biso   1.000  H
  H102     1.0000 0.08190  0.04990  0.10560  Biso   1.000  H
  H103     1.0000 0.41810  0.54990  0.89440  Biso   1.000  H
  H104     1.0000 0.58190  0.54990  0.10560  Biso   1.000  H
  H105     1.0000 0.08190  0.95010  0.10560  Biso   1.000  H
  H106     1.0000 0.91810  0.95010  0.89440  Biso   1.000  H
  H107     1.0000 0.58190  0.45010  0.10560  Biso   1.000  H
  H108     1.0000 0.41810  0.45010  0.89440  Biso   1.000  H
  H109     1.0000 0.93880  0.96400  0.89400  Biso   1.000  H
  H110     1.0000 0.06120  0.96400  0.10600  Biso   1.000  H
  H111     1.0000 0.43880  0.46400  0.89400  Biso   1.000  H
  H112     1.0000 0.56120  0.46400  0.10600  Biso   1.000  H
  H113     1.0000 0.06120  0.03600  0.10600  Biso   1.000  H
  H114     1.0000 0.93880  0.03600  0.89400  Biso   1.000  H
  H115     1.0000 0.56120  0.53600  0.10600  Biso   1.000  H
  H116     1.0000 0.43880  0.53600  0.89400  Biso   1.000  H
  H117     1.0000 0.86410  0.98620  0.89540  Biso   1.000  H
  H118     1.0000 0.13590  0.98620  0.10460  Biso   1.000  H
  H119     1.0000 0.36410  0.48620  0.89540  Biso   1.000  H
  H120     1.0000 0.63590  0.48620  0.10460  Biso   1.000  H
  H121     1.0000 0.13590  0.01380  0.10460  Biso   1.000  H
  H122     1.0000 0.86410  0.01380  0.89540  Biso   1.000  H
  H123     1.0000 0.63590  0.51380  0.10460  Biso   1.000  H
  H124     1.0000 0.36410  0.51380  0.89540  Biso   1.000  H
  C153     1.0000 0.92450  0.92440  0.09850  Biso   1.000  C
  C154     1.0000 0.07550  0.92440  0.90150  Biso   1.000  C
  C155     1.0000 0.42450  0.42440  0.09850  Biso   1.000  C
  C156     1.0000 0.57550  0.42440  0.90150  Biso   1.000  C
  C157     1.0000 0.07550  0.07560  0.90150  Biso   1.000  C
  C158     1.0000 0.92450  0.07560  0.09850  Biso   1.000  C
  C159     1.0000 0.57550  0.57560  0.90150  Biso   1.000  C
  C160     1.0000 0.42450  0.57560  0.09850  Biso   1.000  C
  H125     1.0000 0.92650  0.92280  0.18830  Biso   1.000  H
  H126     1.0000 0.07350  0.92280  0.81170  Biso   1.000  H
  H127     1.0000 0.42650  0.42280  0.18830  Biso   1.000  H
  H128     1.0000 0.57350  0.42280  0.81170  Biso   1.000  H
  H129     1.0000 0.07350  0.07720  0.81170  Biso   1.000  H
  H130     1.0000 0.92650  0.07720  0.18830  Biso   1.000  H
  H131     1.0000 0.57350  0.57720  0.81170  Biso   1.000  H
  H132     1.0000 0.42650  0.57720  0.18830  Biso   1.000  H
  H133     1.0000 0.89060  0.89060  0.06790  Biso   1.000  H
  H134     1.0000 0.10940  0.89060  0.93210  Biso   1.000  H
  H135     1.0000 0.39060  0.39060  0.06790  Biso   1.000  H
  H136     1.0000 0.60940  0.39060  0.93210  Biso   1.000  H
  H137     1.0000 0.10940  0.10940  0.93210  Biso   1.000  H
  H138     1.0000 0.89060  0.10940  0.06790  Biso   1.000  H
  H139     1.0000 0.60940  0.60940  0.93210  Biso   1.000  H
  H140     1.0000 0.39060  0.60940  0.06790  Biso   1.000  H
  H141     1.0000 0.96610  0.90890  0.06650  Biso   1.000  H
  H142     1.0000 0.03390  0.90890  0.93350  Biso   1.000  H
  H143     1.0000 0.46610  0.40890  0.06650  Biso   1.000  H
  H144     1.0000 0.53390  0.40890  0.93350  Biso   1.000  H
  H145     1.0000 0.03390  0.09110  0.93350  Biso   1.000  H
  H146     1.0000 0.96610  0.09110  0.06650  Biso   1.000  H
  H147     1.0000 0.53390  0.59110  0.93350  Biso   1.000  H
  H148     1.0000 0.46610  0.59110  0.06650  Biso   1.000  H
