data_image0
_cell_length_a       8.4878
_cell_length_b       13.1046
_cell_length_c       15.1002
_cell_angle_alpha    94.967
_cell_angle_beta     103.042
_cell_angle_gamma    96.705

_symmetry_space_group_name_H-M    "P 1"
_symmetry_int_tables_number       1

loop_
  _symmetry_equiv_pos_as_xyz
  'x, y, z'

loop_
  _atom_site_label
  _atom_site_occupancy
  _atom_site_fract_x
  _atom_site_fract_y
  _atom_site_fract_z
  _atom_site_thermal_displace_type
  _atom_site_B_iso_or_equiv
  _atom_site_type_symbol
  C1       1.0000 0.44200  0.38390  0.75819  Biso   1.000  C
  C2       1.0000 0.55800  0.61610  0.24181  Biso   1.000  C
  H1       1.0000 0.48920  0.36190  0.70810  Biso   1.000  H
  H2       1.0000 0.51080  0.63810  0.29190  Biso   1.000  H
  H3       1.0000 0.42190  0.45480  0.75330  Biso   1.000  H
  H4       1.0000 0.57810  0.54520  0.24670  Biso   1.000  H
  C3       1.0000 0.28400  0.31587  0.75156  Biso   1.000  C
  C4       1.0000 0.71600  0.68413  0.24844  Biso   1.000  C
  C5       1.0000 0.13490  0.33421  0.70174  Biso   1.000  C
  C6       1.0000 0.86510  0.66579  0.29826  Biso   1.000  C
  H5       1.0000 0.12590  0.39440  0.67360  Biso   1.000  H
  H6       1.0000 0.87410  0.60560  0.32640  Biso   1.000  H
  C7       1.0000 0.99910  0.26207  0.69414  Biso   1.000  C
  C8       1.0000 0.00090  0.73793  0.30586  Biso   1.000  C
  H7       1.0000 0.89780  0.27260  0.66000  Biso   1.000  H
  H8       1.0000 0.10220  0.72740  0.34000  Biso   1.000  H
  C9       1.0000 0.01460  0.17402  0.73763  Biso   1.000  C
  C10      1.0000 0.98540  0.82598  0.26237  Biso   1.000  C
  H9       1.0000 0.92440  0.12460  0.73340  Biso   1.000  H
  H10      1.0000 0.07560  0.87540  0.26660  Biso   1.000  H
  C11      1.0000 0.16690  0.16097  0.78741  Biso   1.000  C
  C12      1.0000 0.83310  0.83903  0.21259  Biso   1.000  C
  H11      1.0000 0.17790  0.10210  0.81720  Biso   1.000  H
  H12      1.0000 0.82210  0.89790  0.18280  Biso   1.000  H
  C13      1.0000 0.73190  0.40125  0.84080  Biso   1.000  C
  C14      1.0000 0.26810  0.59875  0.15920  Biso   1.000  C
  H13      1.0000 0.77200  0.47350  0.86270  Biso   1.000  H
  H14      1.0000 0.22800  0.52650  0.13730  Biso   1.000  H
  H15      1.0000 0.73700  0.38990  0.77720  Biso   1.000  H
  H16      1.0000 0.26300  0.61010  0.22280  Biso   1.000  H
  C15      1.0000 0.83960  0.33490  0.89568  Biso   1.000  C
  C16      1.0000 0.16040  0.66510  0.10432  Biso   1.000  C
  C17      1.0000 0.00550  0.36500  0.92612  Biso   1.000  C
  C18      1.0000 0.99450  0.63500  0.07388  Biso   1.000  C
  H17      1.0000 0.05270  0.42960  0.91660  Biso   1.000  H
  H18      1.0000 0.94730  0.57040  0.08340  Biso   1.000  H
  C19      1.0000 0.10070  0.29804  0.97096  Biso   1.000  C
  C20      1.0000 0.89930  0.70196  0.02904  Biso   1.000  C
  H19      1.0000 0.21300  0.31670  0.99200  Biso   1.000  H
  H20      1.0000 0.78700  0.68330  0.00800  Biso   1.000  H
  C21      1.0000 0.02650  0.20308  0.98401  Biso   1.000  C
  C22      1.0000 0.97350  0.79692  0.01599  Biso   1.000  C
  H21      1.0000 0.08860  0.15620  0.01300  Biso   1.000  H
  H22      1.0000 0.91140  0.84380  0.98700  Biso   1.000  H
  C23      1.0000 0.86000  0.17848  0.95371  Biso   1.000  C
  C24      1.0000 0.14000  0.82152  0.04629  Biso   1.000  C
  H23      1.0000 0.81030  0.11500  0.96420  Biso   1.000  H
  H24      1.0000 0.18970  0.88500  0.03580  Biso   1.000  H
  C25      1.0000 0.52580  0.43993  0.92435  Biso   1.000  C
  C26      1.0000 0.47420  0.56007  0.07565  Biso   1.000  C
  C27      1.0000 0.39240  0.49398  0.91551  Biso   1.000  C
  C28      1.0000 0.60760  0.50602  0.08449  Biso   1.000  C
  H25      1.0000 0.31910  0.49020  0.85900  Biso   1.000  H
  H26      1.0000 0.68090  0.50980  0.14100  Biso   1.000  H
  C29      1.0000 0.63160  0.44685  0.00975  Biso   1.000  C
  C30      1.0000 0.36840  0.55315  0.99025  Biso   1.000  C
  H27      1.0000 0.72100  0.41080  0.01700  Biso   1.000  H
  H28      1.0000 0.27900  0.58920  0.98300  Biso   1.000  H
  C31      1.0000 0.47320  0.97861  0.84843  Biso   1.000  C
  C32      1.0000 0.52680  0.02139  0.15157  Biso   1.000  C
  C33      1.0000 0.49330  0.82201  0.92096  Biso   1.000  C
  C34      1.0000 0.50670  0.17799  0.07904  Biso   1.000  C
  C35      1.0000 0.45300  0.86980  0.83969  Biso   1.000  C
  C36      1.0000 0.54700  0.13020  0.16031  Biso   1.000  C
  C37      1.0000 0.38460  0.81313  0.75258  Biso   1.000  C
  C38      1.0000 0.61540  0.18687  0.24742  Biso   1.000  C
  C39      1.0000 0.41100  0.71225  0.73108  Biso   1.000  C
  C40      1.0000 0.58900  0.28775  0.26892  Biso   1.000  C
  C41      1.0000 0.54600  0.67267  0.78370  Biso   1.000  C
  C42      1.0000 0.45400  0.32733  0.21630  Biso   1.000  C
  C43      1.0000 0.30720  0.63808  0.66084  Biso   1.000  C
  C44      1.0000 0.69280  0.36192  0.33916  Biso   1.000  C
  C45      1.0000 0.25720  0.83820  0.59661  Biso   1.000  C
  C46      1.0000 0.74280  0.16180  0.40339  Biso   1.000  C
  H29      1.0000 0.16680  0.78220  0.57770  Biso   1.000  H
  H30      1.0000 0.83320  0.21780  0.42230  Biso   1.000  H
  H31      1.0000 0.35170  0.81580  0.57870  Biso   1.000  H
  H32      1.0000 0.64830  0.18420  0.42130  Biso   1.000  H
  C47      1.0000 0.21310  0.93350  0.55340  Biso   1.000  C
  C48      1.0000 0.78690  0.06650  0.44660  Biso   1.000  C
  H33      1.0000 0.18780  0.91840  0.48800  Biso   1.000  H
  H34      1.0000 0.81220  0.08160  0.51200  Biso   1.000  H
  H35      1.0000 0.30370  0.98810  0.57270  Biso   1.000  H
  H36      1.0000 0.69630  0.01190  0.42730  Biso   1.000  H
  H37      1.0000 0.11980  0.95480  0.57190  Biso   1.000  H
  H38      1.0000 0.88020  0.04520  0.42810  Biso   1.000  H
  N1       1.0000 0.55840  0.37831  0.84700  Biso   1.000  N
  N2       1.0000 0.44160  0.62169  0.15300  Biso   1.000  N
  N3       1.0000 0.29980  0.23029  0.79433  Biso   1.000  N
  N4       1.0000 0.70020  0.76971  0.20567  Biso   1.000  N
  N5       1.0000 0.76620  0.24294  0.90938  Biso   1.000  N
  N6       1.0000 0.23380  0.75706  0.09062  Biso   1.000  N
  N7       1.0000 0.49260  0.06733  0.85711  Biso   1.000  N
  N8       1.0000 0.50740  0.93267  0.14289  Biso   1.000  N
  N9       1.0000 0.52460  0.78632  0.98881  Biso   1.000  N
  N10      1.0000 0.47540  0.21368  0.01119  Biso   1.000  N
  N11      1.0000 0.65470  0.63733  0.82187  Biso   1.000  N
  N12      1.0000 0.34530  0.36267  0.17813  Biso   1.000  N
  N13      1.0000 0.23050  0.57280  0.60866  Biso   1.000  N
  N14      1.0000 0.76950  0.42720  0.39134  Biso   1.000  N
  O1       1.0000 0.59950  0.18682  0.70764  Biso   1.000  O
  O2       1.0000 0.40050  0.81318  0.29236  Biso   1.000  O
  O3       1.0000 0.29318  0.86670  0.69478  Biso   1.000  O
  O4       1.0000 0.70682  0.13330  0.30522  Biso   1.000  O
  Cu1      1.0000 0.52585  0.22069  0.86119  Biso   1.000  Cu
  Cu2      1.0000 0.47415  0.77931  0.13881  Biso   1.000  Cu
  H39      1.0000 0.52500  0.18350  0.66540  Biso   1.000  H
  H40      1.0000 0.47500  0.81650  0.33460  Biso   1.000  H
  H41      1.0000 0.61600  0.12300  0.70600  Biso   1.000  H
  H42      1.0000 0.38400  0.87700  0.29400  Biso   1.000  H
  C49      1.0000 0.27720  0.09707  0.33715  Biso   1.000  C
  C50      1.0000 0.72280  0.90293  0.66285  Biso   1.000  C
  C51      1.0000 0.29100  0.20143  0.47666  Biso   1.000  C
  C52      1.0000 0.70900  0.79857  0.52334  Biso   1.000  C
  C53      1.0000 0.23160  0.18469  0.38003  Biso   1.000  C
  C54      1.0000 0.76840  0.81531  0.61997  Biso   1.000  C
  C55      1.0000 0.13570  0.25327  0.33336  Biso   1.000  C
  C56      1.0000 0.86430  0.74673  0.66664  Biso   1.000  C
  C57      1.0000 0.03870  0.23456  0.24501  Biso   1.000  C
  C58      1.0000 0.96130  0.76544  0.75499  Biso   1.000  C
  C59      1.0000 0.00010  0.13490  0.19333  Biso   1.000  C
  C60      1.0000 0.99990  0.86510  0.80667  Biso   1.000  C
  C61      1.0000 0.97420  0.31906  0.20141  Biso   1.000  C
  C62      1.0000 0.02580  0.68094  0.79859  Biso   1.000  C
  C63      1.0000 0.27300  0.41206  0.42792  Biso   1.000  C
  C64      1.0000 0.72700  0.58794  0.57208  Biso   1.000  C
  H43      1.0000 0.36900  0.38580  0.41550  Biso   1.000  H
  H44      1.0000 0.63100  0.61420  0.58450  Biso   1.000  H
  H45      1.0000 0.28000  0.41480  0.49310  Biso   1.000  H
  H46      1.0000 0.72000  0.58520  0.50690  Biso   1.000  H
  C65      1.0000 0.26370  0.51690  0.39820  Biso   1.000  C
  C66      1.0000 0.73630  0.48310  0.60180  Biso   1.000  C
  H47      1.0000 0.35970  0.56290  0.43060  Biso   1.000  H
  H48      1.0000 0.64030  0.43710  0.56940  Biso   1.000  H
  H49      1.0000 0.16870  0.54220  0.41120  Biso   1.000  H
  H50      1.0000 0.83130  0.45780  0.58880  Biso   1.000  H
  H51      1.0000 0.25660  0.51320  0.33360  Biso   1.000  H
  H52      1.0000 0.74340  0.48680  0.66640  Biso   1.000  H
  N15      1.0000 0.32150  0.02503  0.30706  Biso   1.000  N
  N16      1.0000 0.67850  0.97497  0.69294  Biso   1.000  N
  N17      1.0000 0.34220  0.21230  0.55410  Biso   1.000  N
  N18      1.0000 0.65780  0.78770  0.44590  Biso   1.000  N
  N19      1.0000 0.96490  0.05654  0.14993  Biso   1.000  N
  N20      1.0000 0.03510  0.94346  0.85007  Biso   1.000  N
  N21      1.0000 0.92400  0.38636  0.16703  Biso   1.000  N
  N22      1.0000 0.07600  0.61364  0.83297  Biso   1.000  N
  O5       1.0000 0.12600  0.34545  0.37692  Biso   1.000  O
  O6       1.0000 0.87400  0.65455  0.62308  Biso   1.000  O
