data_image0
_cell_length_a       9.5551
_cell_length_b       12.7433
_cell_length_c       10.7918
_cell_angle_alpha    90
_cell_angle_beta     99.525
_cell_angle_gamma    90

_symmetry_space_group_name_H-M    "P 1"
_symmetry_int_tables_number       1

loop_
  _symmetry_equiv_pos_as_xyz
  'x, y, z'

loop_
  _atom_site_label
  _atom_site_occupancy
  _atom_site_fract_x
  _atom_site_fract_y
  _atom_site_fract_z
  _atom_site_thermal_displace_type
  _atom_site_B_iso_or_equiv
  _atom_site_type_symbol
  Cu1      1.0000 0.65676  0.20074  0.75874  Biso   1.000  Cu
  Cu2      1.0000 0.34324  0.70074  0.74126  Biso   1.000  Cu
  Cu3      1.0000 0.34324  0.79926  0.24126  Biso   1.000  Cu
  Cu4      1.0000 0.65676  0.29926  0.25874  Biso   1.000  Cu
  S1       1.0000 0.39103  0.29042  0.36431  Biso   1.000  S
  S2       1.0000 0.60897  0.79042  0.13569  Biso   1.000  S
  S3       1.0000 0.60897  0.70958  0.63569  Biso   1.000  S
  S4       1.0000 0.39103  0.20958  0.86431  Biso   1.000  S
  S5       1.0000 0.74979  0.53289  0.94734  Biso   1.000  S
  S6       1.0000 0.25021  0.03289  0.55266  Biso   1.000  S
  S7       1.0000 0.25021  0.46711  0.05266  Biso   1.000  S
  S8       1.0000 0.74979  0.96711  0.44734  Biso   1.000  S
  N1       1.0000 0.77120  0.12620  0.90100  Biso   1.000  N
  N2       1.0000 0.22880  0.62620  0.59900  Biso   1.000  N
  N3       1.0000 0.22880  0.87380  0.09900  Biso   1.000  N
  N4       1.0000 0.77120  0.37380  0.40100  Biso   1.000  N
  N5       1.0000 0.78910  0.98580  0.02450  Biso   1.000  N
  N6       1.0000 0.21090  0.48580  0.47550  Biso   1.000  N
  N7       1.0000 0.21090  0.01420  0.97550  Biso   1.000  N
  N8       1.0000 0.78910  0.51420  0.52450  Biso   1.000  N
  H1       1.0000 0.77290  0.92410  0.05110  Biso   1.000  H
  H2       1.0000 0.22710  0.42410  0.44890  Biso   1.000  H
  H3       1.0000 0.22710  0.07590  0.94890  Biso   1.000  H
  H4       1.0000 0.77290  0.57590  0.55110  Biso   1.000  H
  N9       1.0000 0.59920  0.05200  0.70790  Biso   1.000  N
  N10      1.0000 0.40080  0.55200  0.79210  Biso   1.000  N
  N11      1.0000 0.40080  0.94800  0.29210  Biso   1.000  N
  N12      1.0000 0.59920  0.44800  0.20790  Biso   1.000  N
  H5       1.0000 0.50840  0.05130  0.66880  Biso   1.000  H
  H6       1.0000 0.49160  0.55130  0.83120  Biso   1.000  H
  H7       1.0000 0.49160  0.94870  0.33120  Biso   1.000  H
  H8       1.0000 0.50840  0.44870  0.16880  Biso   1.000  H
  H9       1.0000 0.65380  0.02810  0.65350  Biso   1.000  H
  H10      1.0000 0.34620  0.52810  0.84650  Biso   1.000  H
  H11      1.0000 0.34620  0.97190  0.34650  Biso   1.000  H
  H12      1.0000 0.65380  0.47190  0.15350  Biso   1.000  H
  N13      1.0000 0.56160  0.25030  0.59530  Biso   1.000  N
  N14      1.0000 0.43840  0.75030  0.90470  Biso   1.000  N
  N15      1.0000 0.43840  0.74970  0.40470  Biso   1.000  N
  N16      1.0000 0.56160  0.24970  0.09530  Biso   1.000  N
  N17      1.0000 0.70510  0.34070  0.82290  Biso   1.000  N
  N18      1.0000 0.29490  0.84070  0.67710  Biso   1.000  N
  N19      1.0000 0.29490  0.65930  0.17710  Biso   1.000  N
  N20      1.0000 0.70510  0.15930  0.32290  Biso   1.000  N
  C1       1.0000 0.87360  0.14660  0.00790  Biso   1.000  C
  C2       1.0000 0.12640  0.64660  0.49210  Biso   1.000  C
  C3       1.0000 0.12640  0.85340  0.99210  Biso   1.000  C
  C4       1.0000 0.87360  0.35340  0.50790  Biso   1.000  C
  C5       1.0000 0.95660  0.23500  0.04230  Biso   1.000  C
  C6       1.0000 0.04340  0.73500  0.45770  Biso   1.000  C
  C7       1.0000 0.04340  0.76500  0.95770  Biso   1.000  C
  C8       1.0000 0.95660  0.26500  0.54230  Biso   1.000  C
  H13      1.0000 0.95040  0.29430  0.99150  Biso   1.000  H
  H14      1.0000 0.04960  0.79430  0.50850  Biso   1.000  H
  H15      1.0000 0.04960  0.70570  0.00850  Biso   1.000  H
  H16      1.0000 0.95040  0.20570  0.49150  Biso   1.000  H
  C9       1.0000 0.04920  0.23040  0.15620  Biso   1.000  C
  C10      1.0000 0.95080  0.73040  0.34380  Biso   1.000  C
  C11      1.0000 0.95080  0.76960  0.84380  Biso   1.000  C
  C12      1.0000 0.04920  0.26960  0.65620  Biso   1.000  C
  H17      1.0000 0.10710  0.28760  0.18170  Biso   1.000  H
  H18      1.0000 0.89290  0.78760  0.31830  Biso   1.000  H
  H19      1.0000 0.89290  0.71240  0.81830  Biso   1.000  H
  H20      1.0000 0.10710  0.21240  0.68170  Biso   1.000  H
  C13      1.0000 0.05710  0.14190  0.23270  Biso   1.000  C
  C14      1.0000 0.94290  0.64190  0.26730  Biso   1.000  C
  C15      1.0000 0.94290  0.85810  0.76730  Biso   1.000  C
  C16      1.0000 0.05710  0.35810  0.73270  Biso   1.000  C
  H21      1.0000 0.11810  0.14270  0.30940  Biso   1.000  H
  H22      1.0000 0.88190  0.64270  0.19060  Biso   1.000  H
  H23      1.0000 0.88190  0.85730  0.69060  Biso   1.000  H
  H24      1.0000 0.11810  0.35730  0.80940  Biso   1.000  H
  C17      1.0000 0.97750  0.05330  0.19890  Biso   1.000  C
  C18      1.0000 0.02250  0.55330  0.30110  Biso   1.000  C
  C19      1.0000 0.02250  0.94670  0.80110  Biso   1.000  C
  C20      1.0000 0.97750  0.44670  0.69890  Biso   1.000  C
  H25      1.0000 0.98530  0.99350  0.24880  Biso   1.000  H
  H26      1.0000 0.01470  0.49350  0.25120  Biso   1.000  H
  H27      1.0000 0.01470  0.00650  0.75120  Biso   1.000  H
  H28      1.0000 0.98530  0.50650  0.74880  Biso   1.000  H
  C21      1.0000 0.88520  0.05890  0.08590  Biso   1.000  C
  C22      1.0000 0.11480  0.55890  0.41410  Biso   1.000  C
  C23      1.0000 0.11480  0.94110  0.91410  Biso   1.000  C
  C24      1.0000 0.88520  0.44110  0.58590  Biso   1.000  C
  C25      1.0000 0.72680  0.02960  0.91630  Biso   1.000  C
  C26      1.0000 0.27320  0.52960  0.58370  Biso   1.000  C
  C27      1.0000 0.27320  0.97040  0.08370  Biso   1.000  C
  C28      1.0000 0.72680  0.47040  0.41630  Biso   1.000  C
  C29      1.0000 0.61460  0.98200  0.81870  Biso   1.000  C
  C30      1.0000 0.38540  0.48200  0.68130  Biso   1.000  C
  C31      1.0000 0.38540  0.01800  0.18130  Biso   1.000  C
  C32      1.0000 0.61460  0.51800  0.31870  Biso   1.000  C
  H29      1.0000 0.64270  0.91220  0.79670  Biso   1.000  H
  H30      1.0000 0.35730  0.41220  0.70330  Biso   1.000  H
  H31      1.0000 0.35730  0.08780  0.20330  Biso   1.000  H
  H32      1.0000 0.64270  0.58780  0.29670  Biso   1.000  H
  H33      1.0000 0.52550  0.97680  0.85020  Biso   1.000  H
  H34      1.0000 0.47450  0.47680  0.64980  Biso   1.000  H
  H35      1.0000 0.47450  0.02320  0.14980  Biso   1.000  H
  H36      1.0000 0.52550  0.52320  0.35020  Biso   1.000  H
  C33      1.0000 0.48960  0.26590  0.50010  Biso   1.000  C
  C34      1.0000 0.51040  0.76590  0.99990  Biso   1.000  C
  C35      1.0000 0.51040  0.73410  0.49990  Biso   1.000  C
  C36      1.0000 0.48960  0.23410  0.00010  Biso   1.000  C
  C37      1.0000 0.72360  0.41920  0.87550  Biso   1.000  C
  C38      1.0000 0.27640  0.91920  0.62450  Biso   1.000  C
  C39      1.0000 0.27640  0.58080  0.12450  Biso   1.000  C
  C40      1.0000 0.72360  0.08080  0.37550  Biso   1.000  C
