data_image0
_cell_length_a       9.522
_cell_length_b       12.707
_cell_length_c       10.757
_cell_angle_alpha    90
_cell_angle_beta     99.418
_cell_angle_gamma    90

_symmetry_space_group_name_H-M    "P 1"
_symmetry_int_tables_number       1

loop_
  _symmetry_equiv_pos_as_xyz
  'x, y, z'

loop_
  _atom_site_label
  _atom_site_occupancy
  _atom_site_fract_x
  _atom_site_fract_y
  _atom_site_fract_z
  _atom_site_thermal_displace_type
  _atom_site_B_iso_or_equiv
  _atom_site_type_symbol
  Cu1      1.0000 0.34356  0.29937  0.24114  Biso   1.000  Cu
  Cu2      1.0000 0.65644  0.79937  0.25886  Biso   1.000  Cu
  Cu3      1.0000 0.65644  0.70063  0.75886  Biso   1.000  Cu
  Cu4      1.0000 0.34356  0.20063  0.74114  Biso   1.000  Cu
  S1       1.0000 0.60937  0.29015  0.13538  Biso   1.000  S
  S2       1.0000 0.39063  0.79015  0.36462  Biso   1.000  S
  S3       1.0000 0.39063  0.70985  0.86462  Biso   1.000  S
  S4       1.0000 0.60937  0.20985  0.63538  Biso   1.000  S
  S5       1.0000 0.25003  0.96783  0.05239  Biso   1.000  S
  S6       1.0000 0.74997  0.46783  0.44761  Biso   1.000  S
  S7       1.0000 0.74997  0.03217  0.94761  Biso   1.000  S
  S8       1.0000 0.25003  0.53217  0.55239  Biso   1.000  S
  N1       1.0000 0.22850  0.37380  0.09910  Biso   1.000  N
  N2       1.0000 0.77150  0.87380  0.40090  Biso   1.000  N
  N3       1.0000 0.77150  0.62620  0.90090  Biso   1.000  N
  N4       1.0000 0.22850  0.12620  0.59910  Biso   1.000  N
  N5       1.0000 0.29540  0.15960  0.17650  Biso   1.000  N
  N6       1.0000 0.70460  0.65960  0.32350  Biso   1.000  N
  N7       1.0000 0.70460  0.84040  0.82350  Biso   1.000  N
  N8       1.0000 0.29540  0.34040  0.67650  Biso   1.000  N
  N9       1.0000 0.43890  0.24910  0.90420  Biso   1.000  N
  N10      1.0000 0.56110  0.74910  0.59580  Biso   1.000  N
  N11      1.0000 0.56110  0.75090  0.09580  Biso   1.000  N
  N12      1.0000 0.43890  0.25090  0.40420  Biso   1.000  N
  C1       1.0000 0.11500  0.44220  0.91440  Biso   1.000  C
  C2       1.0000 0.88500  0.94220  0.58560  Biso   1.000  C
  C3       1.0000 0.88500  0.55780  0.08560  Biso   1.000  C
  C4       1.0000 0.11500  0.05780  0.41440  Biso   1.000  C
  N13      1.0000 0.21090  0.51460  0.97740  Biso   1.000  N
  N14      1.0000 0.78910  0.01460  0.52260  Biso   1.000  N
  N15      1.0000 0.78910  0.48540  0.02260  Biso   1.000  N
  N16      1.0000 0.21090  0.98540  0.47740  Biso   1.000  N
  H1       1.0000 0.22690  0.57690  0.95180  Biso   1.000  H
  H2       1.0000 0.77310  0.07690  0.54820  Biso   1.000  H
  H3       1.0000 0.77310  0.42310  0.04820  Biso   1.000  H
  H4       1.0000 0.22690  0.92310  0.45180  Biso   1.000  H
  N17      1.0000 0.40070  0.44860  0.29170  Biso   1.000  N
  N18      1.0000 0.59930  0.94860  0.20830  Biso   1.000  N
  N19      1.0000 0.59930  0.55140  0.70830  Biso   1.000  N
  N20      1.0000 0.40070  0.05140  0.79170  Biso   1.000  N
  H5       1.0000 0.34550  0.47260  0.34600  Biso   1.000  H
  H6       1.0000 0.65450  0.97260  0.15400  Biso   1.000  H
  H7       1.0000 0.65450  0.52740  0.65400  Biso   1.000  H
  H8       1.0000 0.34550  0.02740  0.84600  Biso   1.000  H
  H9       1.0000 0.49170  0.44930  0.33110  Biso   1.000  H
  H10      1.0000 0.50830  0.94930  0.16890  Biso   1.000  H
  H11      1.0000 0.50830  0.55070  0.66890  Biso   1.000  H
  H12      1.0000 0.49170  0.05070  0.83110  Biso   1.000  H
  C5       1.0000 0.51130  0.26590  0.99950  Biso   1.000  C
  C6       1.0000 0.48870  0.76590  0.50050  Biso   1.000  C
  C7       1.0000 0.48870  0.73410  0.00050  Biso   1.000  C
  C8       1.0000 0.51130  0.23410  0.49950  Biso   1.000  C
  C9       1.0000 0.27560  0.08040  0.12420  Biso   1.000  C
  C10      1.0000 0.72440  0.58040  0.37580  Biso   1.000  C
  C11      1.0000 0.72440  0.91960  0.87580  Biso   1.000  C
  C12      1.0000 0.27560  0.41960  0.62420  Biso   1.000  C
  C13      1.0000 0.95130  0.27050  0.84420  Biso   1.000  C
  C14      1.0000 0.04870  0.77050  0.65580  Biso   1.000  C
  C15      1.0000 0.04870  0.72950  0.15580  Biso   1.000  C
  C16      1.0000 0.95130  0.22950  0.34420  Biso   1.000  C
  H13      1.0000 0.89450  0.21250  0.81830  Biso   1.000  H
  H14      1.0000 0.10550  0.71250  0.68170  Biso   1.000  H
  H15      1.0000 0.10550  0.78750  0.18170  Biso   1.000  H
  H16      1.0000 0.89450  0.28750  0.31830  Biso   1.000  H
  C17      1.0000 0.38590  0.51800  0.18140  Biso   1.000  C
  C18      1.0000 0.61410  0.01800  0.31860  Biso   1.000  C
  C19      1.0000 0.61410  0.48200  0.81860  Biso   1.000  C
  C20      1.0000 0.38590  0.98200  0.68140  Biso   1.000  C
  H17      1.0000 0.47530  0.52280  0.14960  Biso   1.000  H
  H18      1.0000 0.52470  0.02280  0.35040  Biso   1.000  H
  H19      1.0000 0.52470  0.47720  0.85040  Biso   1.000  H
  H20      1.0000 0.47530  0.97720  0.64960  Biso   1.000  H
  H21      1.0000 0.35770  0.58810  0.20320  Biso   1.000  H
  H22      1.0000 0.64230  0.08810  0.29680  Biso   1.000  H
  H23      1.0000 0.64230  0.41190  0.79680  Biso   1.000  H
  H24      1.0000 0.35770  0.91190  0.70320  Biso   1.000  H
  C21      1.0000 0.02160  0.44630  0.80060  Biso   1.000  C
  C22      1.0000 0.97840  0.94630  0.69940  Biso   1.000  C
  C23      1.0000 0.97840  0.55370  0.19940  Biso   1.000  C
  C24      1.0000 0.02160  0.05370  0.30060  Biso   1.000  C
  H25      1.0000 0.01470  0.50570  0.74950  Biso   1.000  H
  H26      1.0000 0.98530  0.00570  0.75050  Biso   1.000  H
  H27      1.0000 0.98530  0.49430  0.25050  Biso   1.000  H
  H28      1.0000 0.01470  0.99430  0.24950  Biso   1.000  H
  C25      1.0000 0.04280  0.26560  0.95690  Biso   1.000  C
  C26      1.0000 0.95720  0.76560  0.54310  Biso   1.000  C
  C27      1.0000 0.95720  0.73440  0.04310  Biso   1.000  C
  C28      1.0000 0.04280  0.23440  0.45690  Biso   1.000  C
  H29      1.0000 0.04810  0.20620  0.00800  Biso   1.000  H
  H30      1.0000 0.95190  0.70620  0.49200  Biso   1.000  H
  H31      1.0000 0.95190  0.79380  0.99200  Biso   1.000  H
  H32      1.0000 0.04810  0.29380  0.50800  Biso   1.000  H
  C29      1.0000 0.27400  0.46980  0.08530  Biso   1.000  C
  C30      1.0000 0.72600  0.96980  0.41470  Biso   1.000  C
  C31      1.0000 0.72600  0.53020  0.91470  Biso   1.000  C
  C32      1.0000 0.27400  0.03020  0.58530  Biso   1.000  C
  C33      1.0000 0.12720  0.35360  0.99110  Biso   1.000  C
  C34      1.0000 0.87280  0.85360  0.50890  Biso   1.000  C
  C35      1.0000 0.87280  0.64640  0.00890  Biso   1.000  C
  C36      1.0000 0.12720  0.14640  0.49110  Biso   1.000  C
  C37      1.0000 0.94070  0.35910  0.76770  Biso   1.000  C
  C38      1.0000 0.05930  0.85910  0.73230  Biso   1.000  C
  C39      1.0000 0.05930  0.64090  0.23230  Biso   1.000  C
  C40      1.0000 0.94070  0.14090  0.26770  Biso   1.000  C
  H33      1.0000 0.87700  0.35890  0.69230  Biso   1.000  H
  H34      1.0000 0.12300  0.85890  0.80770  Biso   1.000  H
  H35      1.0000 0.12300  0.64110  0.30770  Biso   1.000  H
  H36      1.0000 0.87700  0.14110  0.19230  Biso   1.000  H
