data_image0
_cell_length_a       10.2545
_cell_length_b       10.8207
_cell_length_c       13.7264
_cell_angle_alpha    91.305
_cell_angle_beta     90.461
_cell_angle_gamma    112.655

_symmetry_space_group_name_H-M    "P 1"
_symmetry_int_tables_number       1

loop_
  _symmetry_equiv_pos_as_xyz
  'x, y, z'

loop_
  _atom_site_label
  _atom_site_occupancy
  _atom_site_fract_x
  _atom_site_fract_y
  _atom_site_fract_z
  _atom_site_thermal_displace_type
  _atom_site_B_iso_or_equiv
  _atom_site_type_symbol
  Cu1      1.0000 0.85137  0.44331  0.50733  Biso   1.000  Cu
  Cu2      1.0000 0.14863  0.55669  0.49267  Biso   1.000  Cu
  Cu3      1.0000 0.88223  0.12335  0.19502  Biso   1.000  Cu
  Cu4      1.0000 0.11777  0.87665  0.80498  Biso   1.000  Cu
  Cu5      1.0000 0.19740  0.24913  0.15456  Biso   1.000  Cu
  Cu6      1.0000 0.80260  0.75087  0.84544  Biso   1.000  Cu
  O1       1.0000 0.94210  0.47650  0.38180  Biso   1.000  O
  O2       1.0000 0.05790  0.52350  0.61820  Biso   1.000  O
  O3       1.0000 0.48140  0.05780  0.12870  Biso   1.000  O
  O4       1.0000 0.51860  0.94220  0.87130  Biso   1.000  O
  H1       1.0000 0.43000  0.98500  0.09700  Biso   1.000  H
  H2       1.0000 0.57000  0.01500  0.90300  Biso   1.000  H
  H3       1.0000 0.54700  0.08200  0.09700  Biso   1.000  H
  H4       1.0000 0.45300  0.91800  0.90300  Biso   1.000  H
  O5       1.0000 0.73310  0.47420  0.33710  Biso   1.000  O
  O6       1.0000 0.26690  0.52580  0.66290  Biso   1.000  O
  O7       1.0000 0.40040  0.26110  0.19410  Biso   1.000  O
  O8       1.0000 0.59960  0.73890  0.80590  Biso   1.000  O
  H5       1.0000 0.39000  0.25100  0.25500  Biso   1.000  H
  H6       1.0000 0.61000  0.74900  0.74500  Biso   1.000  H
  H7       1.0000 0.43700  0.21100  0.17700  Biso   1.000  H
  H8       1.0000 0.56300  0.78900  0.82300  Biso   1.000  H
  O9       1.0000 0.90620  0.95590  0.19820  Biso   1.000  O
  O10      1.0000 0.09380  0.04410  0.80180  Biso   1.000  O
  O11      1.0000 0.12320  0.03130  0.13490  Biso   1.000  O
  O12      1.0000 0.87680  0.96870  0.86510  Biso   1.000  O
  O13      1.0000 0.07220  0.85730  0.94370  Biso   1.000  O
  O14      1.0000 0.92780  0.14270  0.05630  Biso   1.000  O
  O15      1.0000 0.28250  0.86630  0.99490  Biso   1.000  O
  O16      1.0000 0.71750  0.13370  0.00510  Biso   1.000  O
  O17      1.0000 0.13040  0.39770  0.14920  Biso   1.000  O
  O18      1.0000 0.86960  0.60230  0.85080  Biso   1.000  O
  O19      1.0000 0.90490  0.31030  0.20000  Biso   1.000  O
  O20      1.0000 0.09510  0.68970  0.80000  Biso   1.000  O
  O21      1.0000 0.88530  0.63720  0.51970  Biso   1.000  O
  O22      1.0000 0.11470  0.36280  0.48030  Biso   1.000  O
  O23      1.0000 0.11730  0.72440  0.48450  Biso   1.000  O
  O24      1.0000 0.88270  0.27560  0.51550  Biso   1.000  O
  O25      1.0000 0.87980  0.79070  0.71480  Biso   1.000  O
  O26      1.0000 0.12020  0.20930  0.28520  Biso   1.000  O
  O27      1.0000 0.69120  0.78150  0.62710  Biso   1.000  O
  O28      1.0000 0.30880  0.21850  0.37290  Biso   1.000  O
  N1       1.0000 0.71050  0.39780  0.61050  Biso   1.000  N
  N2       1.0000 0.28950  0.60220  0.38950  Biso   1.000  N
  N3       1.0000 0.27020  0.28030  0.01930  Biso   1.000  N
  N4       1.0000 0.72980  0.71970  0.98070  Biso   1.000  N
  N5       1.0000 0.74300  0.07560  0.30460  Biso   1.000  N
  N6       1.0000 0.25700  0.92440  0.69540  Biso   1.000  N
  C1       1.0000 0.62150  0.46030  0.61880  Biso   1.000  C
  C2       1.0000 0.37850  0.53970  0.38120  Biso   1.000  C
  H9       1.0000 0.62200  0.52030  0.57120  Biso   1.000  H
  H10      1.0000 0.37800  0.47970  0.42880  Biso   1.000  H
  C3       1.0000 0.52820  0.43990  0.69510  Biso   1.000  C
  C4       1.0000 0.47180  0.56010  0.30490  Biso   1.000  C
  H11      1.0000 0.46800  0.48580  0.69840  Biso   1.000  H
  H12      1.0000 0.53200  0.51420  0.30160  Biso   1.000  H
  C5       1.0000 0.52590  0.35090  0.76590  Biso   1.000  C
  C6       1.0000 0.47410  0.64910  0.23410  Biso   1.000  C
  C7       1.0000 0.61800  0.28430  0.75650  Biso   1.000  C
  C8       1.0000 0.38200  0.71570  0.24350  Biso   1.000  C
  H13      1.0000 0.61900  0.22310  0.80270  Biso   1.000  H
  H14      1.0000 0.38100  0.77690  0.19730  Biso   1.000  H
  C9       1.0000 0.70650  0.30950  0.67920  Biso   1.000  C
  C10      1.0000 0.29350  0.69050  0.32080  Biso   1.000  C
  H15      1.0000 0.76650  0.26370  0.67360  Biso   1.000  H
  H16      1.0000 0.23350  0.73630  0.32640  Biso   1.000  H
  C11      1.0000 0.43240  0.32650  0.85150  Biso   1.000  C
  C12      1.0000 0.56760  0.67350  0.14850  Biso   1.000  C
  C13      1.0000 0.38920  0.42460  0.89100  Biso   1.000  C
  C14      1.0000 0.61080  0.57540  0.10900  Biso   1.000  C
  H17      1.0000 0.41340  0.50650  0.86100  Biso   1.000  H
  H18      1.0000 0.58660  0.49350  0.13900  Biso   1.000  H
  C15      1.0000 0.31090  0.39940  0.97430  Biso   1.000  C
  C16      1.0000 0.68910  0.60060  0.02570  Biso   1.000  C
  H19      1.0000 0.28490  0.46630  0.00080  Biso   1.000  H
  H20      1.0000 0.71510  0.53370  0.99920  Biso   1.000  H
  C17      1.0000 0.30790  0.18660  0.97880  Biso   1.000  C
  C18      1.0000 0.69210  0.81340  0.02120  Biso   1.000  C
  H21      1.0000 0.27840  0.10390  0.00810  Biso   1.000  H
  H22      1.0000 0.72160  0.89610  0.99190  Biso   1.000  H
  C19      1.0000 0.38760  0.20420  0.89660  Biso   1.000  C
  C20      1.0000 0.61240  0.79580  0.10340  Biso   1.000  C
  H23      1.0000 0.41110  0.13510  0.87160  Biso   1.000  H
  H24      1.0000 0.58890  0.86490  0.12840  Biso   1.000  H
  C21      1.0000 0.93190  0.58390  0.23690  Biso   1.000  C
  C22      1.0000 0.06810  0.41610  0.76310  Biso   1.000  C
  C23      1.0000 0.93160  0.71110  0.23020  Biso   1.000  C
  C24      1.0000 0.06840  0.28890  0.76980  Biso   1.000  C
  H25      1.0000 0.87900  0.73860  0.27420  Biso   1.000  H
  H26      1.0000 0.12100  0.26140  0.72580  Biso   1.000  H
  C25      1.0000 0.00740  0.79880  0.15990  Biso   1.000  C
  C26      1.0000 0.99260  0.20120  0.84010  Biso   1.000  C
  C27      1.0000 0.08000  0.75460  0.09060  Biso   1.000  C
  C28      1.0000 0.92000  0.24540  0.90940  Biso   1.000  C
  C29      1.0000 0.08170  0.62850  0.09730  Biso   1.000  C
  C30      1.0000 0.91830  0.37150  0.90270  Biso   1.000  C
  H27      1.0000 0.13200  0.60020  0.05200  Biso   1.000  H
  H28      1.0000 0.86800  0.39980  0.94800  Biso   1.000  H
  C31      1.0000 0.00960  0.54130  0.17110  Biso   1.000  C
  C32      1.0000 0.99040  0.45870  0.82890  Biso   1.000  C
  C33      1.0000 0.85760  0.50190  0.32240  Biso   1.000  C
  C34      1.0000 0.14240  0.49810  0.67760  Biso   1.000  C
  C35      1.0000 0.01270  0.94080  0.16240  Biso   1.000  C
  C36      1.0000 0.98730  0.05920  0.83760  Biso   1.000  C
  C37      1.0000 0.15370  0.83650  0.00380  Biso   1.000  C
  C38      1.0000 0.84630  0.16350  0.99620  Biso   1.000  C
  C39      1.0000 0.01590  0.40600  0.17370  Biso   1.000  C
  C40      1.0000 0.98410  0.59400  0.82630  Biso   1.000  C
  C41      1.0000 0.67050  0.15260  0.32650  Biso   1.000  C
  C42      1.0000 0.32950  0.84740  0.67350  Biso   1.000  C
  H29      1.0000 0.68490  0.22740  0.28930  Biso   1.000  H
  H30      1.0000 0.31510  0.77260  0.71070  Biso   1.000  H
  C43      1.0000 0.57530  0.12600  0.40180  Biso   1.000  C
  C44      1.0000 0.42470  0.87400  0.59820  Biso   1.000  C
  H31      1.0000 0.52900  0.18330  0.41460  Biso   1.000  H
  H32      1.0000 0.47100  0.81670  0.58540  Biso   1.000  H
  C45      1.0000 0.54830  0.01360  0.45870  Biso   1.000  C
  C46      1.0000 0.45170  0.98640  0.54130  Biso   1.000  C
  C47      1.0000 0.62090  0.93290  0.43330  Biso   1.000  C
  C48      1.0000 0.37910  0.06710  0.56670  Biso   1.000  C
  H33      1.0000 0.60600  0.85600  0.46810  Biso   1.000  H
  H34      1.0000 0.39400  0.14400  0.53190  Biso   1.000  H
  C49      1.0000 0.71450  0.96440  0.35760  Biso   1.000  C
  C50      1.0000 0.28550  0.03560  0.64240  Biso   1.000  C
  H35      1.0000 0.75990  0.90700  0.34220  Biso   1.000  H
  H36      1.0000 0.24010  0.09300  0.65780  Biso   1.000  H
  C51      1.0000 0.00020  0.73130  0.50320  Biso   1.000  C
  C52      1.0000 0.99980  0.26870  0.49680  Biso   1.000  C
  C53      1.0000 0.99870  0.86950  0.50330  Biso   1.000  C
  C54      1.0000 0.00130  0.13050  0.49670  Biso   1.000  C
  C55      1.0000 0.08410  0.96380  0.43770  Biso   1.000  C
  C56      1.0000 0.91590  0.03620  0.56230  Biso   1.000  C
  H37      1.0000 0.14210  0.93960  0.39620  Biso   1.000  H
  H38      1.0000 0.85790  0.06040  0.60380  Biso   1.000  H
  C57      1.0000 0.91610  0.91010  0.56680  Biso   1.000  C
  C58      1.0000 0.08390  0.08990  0.43320  Biso   1.000  C
  C59      1.0000 0.82010  0.81640  0.64100  Biso   1.000  C
  C60      1.0000 0.17990  0.18360  0.35900  Biso   1.000  C
