data_image0
_cell_length_a       10.8613
_cell_length_b       11.4443
_cell_length_c       14.8834
_cell_angle_alpha    85.812
_cell_angle_beta     73.257
_cell_angle_gamma    63.989

_symmetry_space_group_name_H-M    "P 1"
_symmetry_int_tables_number       1

loop_
  _symmetry_equiv_pos_as_xyz
  'x, y, z'

loop_
  _atom_site_label
  _atom_site_occupancy
  _atom_site_fract_x
  _atom_site_fract_y
  _atom_site_fract_z
  _atom_site_thermal_displace_type
  _atom_site_B_iso_or_equiv
  _atom_site_type_symbol
  Cu1      1.0000 0.00000  0.50000  0.00000  Biso   1.000  Cu
  Cu2      1.0000 0.50000  0.00000  0.50000  Biso   1.000  Cu
  O1       1.0000 0.93630  0.47750  0.13398  Biso   1.000  O
  O2       1.0000 0.06370  0.52250  0.86602  Biso   1.000  O
  F1       1.0000 0.75250  0.50620  0.30679  Biso   1.000  F
  F2       1.0000 0.24750  0.49380  0.69321  Biso   1.000  F
  F3       1.0000 0.86290  0.57950  0.36327  Biso   1.000  F
  F4       1.0000 0.13710  0.42050  0.63673  Biso   1.000  F
  O3       1.0000 0.78310  0.68040  0.01431  Biso   1.000  O
  O4       1.0000 0.21690  0.31960  0.98569  Biso   1.000  O
  O5       1.0000 0.70920  0.91601  0.45756  Biso   1.000  O
  O6       1.0000 0.29080  0.08399  0.54244  Biso   1.000  O
  O7       1.0000 0.49610  0.10740  0.59643  Biso   1.000  O
  O8       1.0000 0.50390  0.89260  0.40357  Biso   1.000  O
  F5       1.0000 0.02580  0.83140  0.51250  Biso   1.000  F
  F6       1.0000 0.97420  0.16860  0.48750  Biso   1.000  F
  F7       1.0000 0.99360  0.90480  0.38530  Biso   1.000  F
  F8       1.0000 0.00640  0.09520  0.61470  Biso   1.000  F
  F9       1.0000 0.97770  0.73080  0.42330  Biso   1.000  F
  F10      1.0000 0.02230  0.26920  0.57670  Biso   1.000  F
  F11      1.0000 0.45410  0.18960  0.77000  Biso   1.000  F
  F12      1.0000 0.54590  0.81040  0.23000  Biso   1.000  F
  F13      1.0000 0.67110  0.14700  0.74410  Biso   1.000  F
  F14      1.0000 0.32890  0.85300  0.25590  Biso   1.000  F
  F15      1.0000 0.54280  0.29630  0.67930  Biso   1.000  F
  F16      1.0000 0.45720  0.70370  0.32070  Biso   1.000  F
  O9       1.0000 0.06790  0.62460  0.02263  Biso   1.000  O
  O10      1.0000 0.93210  0.37540  0.97737  Biso   1.000  O
  F17      1.0000 0.23390  0.72980  0.06130  Biso   1.000  F
  F18      1.0000 0.76610  0.27020  0.93870  Biso   1.000  F
  F19      1.0000 0.04430  0.86780  0.04190  Biso   1.000  F
  F20      1.0000 0.95570  0.13220  0.95810  Biso   1.000  F
  F21      1.0000 0.06080  0.83800  0.17849  Biso   1.000  F
  F22      1.0000 0.93920  0.16200  0.82151  Biso   1.000  F
  O11      1.0000 0.64200  0.78470  0.92300  Biso   1.000  O
  O12      1.0000 0.35800  0.21530  0.07700  Biso   1.000  O
  O13      1.0000 0.50770  0.51150  0.12940  Biso   1.000  O
  O14      1.0000 0.49230  0.48850  0.87060  Biso   1.000  O
  C1       1.0000 0.38100  0.45510  0.26900  Biso   1.000  C
  C2       1.0000 0.61900  0.54490  0.73100  Biso   1.000  C
  H1       1.0000 0.33370  0.43090  0.23090  Biso   1.000  H
  H2       1.0000 0.66630  0.56910  0.76910  Biso   1.000  H
  H3       1.0000 0.32380  0.54900  0.28830  Biso   1.000  H
  H4       1.0000 0.67620  0.45100  0.71170  Biso   1.000  H
  C3       1.0000 0.41680  0.43400  0.43120  Biso   1.000  C
  C4       1.0000 0.58320  0.56600  0.56880  Biso   1.000  C
  H5       1.0000 0.42660  0.37670  0.48360  Biso   1.000  H
  H6       1.0000 0.57340  0.62330  0.51640  Biso   1.000  H
  H7       1.0000 0.33910  0.52050  0.45440  Biso   1.000  H
  H8       1.0000 0.66090  0.47950  0.54560  Biso   1.000  H
  H9       1.0000 0.50640  0.44140  0.40340  Biso   1.000  H
  H10      1.0000 0.49360  0.55860  0.59660  Biso   1.000  H
  C5       1.0000 0.74500  0.00280  0.58350  Biso   1.000  C
  C6       1.0000 0.25500  0.99720  0.41650  Biso   1.000  C
  C7       1.0000 0.93480  0.54430  0.19778  Biso   1.000  C
  C8       1.0000 0.06520  0.45570  0.80222  Biso   1.000  C
  C9       1.0000 0.98120  0.64050  0.18930  Biso   1.000  C
  C10      1.0000 0.01880  0.35950  0.81070  Biso   1.000  C
  H11      1.0000 0.96960  0.68590  0.24440  Biso   1.000  H
  H12      1.0000 0.03040  0.31410  0.75560  Biso   1.000  H
  C11      1.0000 0.87400  0.50880  0.29650  Biso   1.000  C
  C12      1.0000 0.12600  0.49120  0.70350  Biso   1.000  C
  F23      1.0000 0.95890  0.38630  0.31050  Biso   1.000  F
  F24      1.0000 0.04110  0.61370  0.68950  Biso   1.000  F
  C13      1.0000 0.67860  0.70190  0.98930  Biso   1.000  C
  C14      1.0000 0.32140  0.29810  0.01070  Biso   1.000  C
  C15      1.0000 0.74090  0.84180  0.87700  Biso   1.000  C
  C16      1.0000 0.25910  0.15820  0.12300  Biso   1.000  C
  H13      1.0000 0.84100  0.77560  0.86760  Biso   1.000  H
  H14      1.0000 0.15900  0.22440  0.13240  Biso   1.000  H
  H15      1.0000 0.72790  0.87100  0.81470  Biso   1.000  H
  H16      1.0000 0.27210  0.12900  0.18530  Biso   1.000  H
  C17      1.0000 0.58050  0.64480  0.02520  Biso   1.000  C
  C18      1.0000 0.41950  0.35520  0.97480  Biso   1.000  C
  H17      1.0000 0.50300  0.66550  0.99980  Biso   1.000  H
  H18      1.0000 0.49700  0.33450  0.00020  Biso   1.000  H
  C19      1.0000 0.59830  0.56350  0.09341  Biso   1.000  C
  C20      1.0000 0.40170  0.43650  0.90659  Biso   1.000  C
  H19      1.0000 0.67750  0.54190  0.11730  Biso   1.000  H
  H20      1.0000 0.32250  0.45810  0.88270  Biso   1.000  H
  C21      1.0000 0.52810  0.43270  0.20937  Biso   1.000  C
  C22      1.0000 0.47190  0.56730  0.79063  Biso   1.000  C
  H21      1.0000 0.57710  0.45960  0.24560  Biso   1.000  H
  H22      1.0000 0.42290  0.54040  0.75440  Biso   1.000  H
  C23      1.0000 0.38310  0.37700  0.35680  Biso   1.000  C
  C24      1.0000 0.61690  0.62300  0.64320  Biso   1.000  C
  C25      1.0000 0.23890  0.37440  0.39790  Biso   1.000  C
  C26      1.0000 0.76110  0.62560  0.60210  Biso   1.000  C
  H23      1.0000 0.22150  0.33030  0.35220  Biso   1.000  H
  H24      1.0000 0.77850  0.66970  0.64780  Biso   1.000  H
  H25      1.0000 0.16340  0.46380  0.41220  Biso   1.000  H
  H26      1.0000 0.83660  0.53620  0.58780  Biso   1.000  H
  H27      1.0000 0.23890  0.32740  0.45560  Biso   1.000  H
  H28      1.0000 0.76110  0.67260  0.54440  Biso   1.000  H
  N1       1.0000 0.49200  0.23970  0.32938  Biso   1.000  N
  N2       1.0000 0.50800  0.76030  0.67062  Biso   1.000  N
  O15      1.0000 0.48210  0.15780  0.39000  Biso   1.000  O
  O16      1.0000 0.51790  0.84220  0.61000  Biso   1.000  O
  C27      1.0000 0.60300  0.08900  0.62210  Biso   1.000  C
  C28      1.0000 0.39700  0.91100  0.37790  Biso   1.000  C
  C29      1.0000 0.78650  0.92550  0.50170  Biso   1.000  C
  C30      1.0000 0.21350  0.07450  0.49830  Biso   1.000  C
  C31      1.0000 0.94690  0.84460  0.45690  Biso   1.000  C
  C32      1.0000 0.05310  0.15540  0.54310  Biso   1.000  C
  C33      1.0000 0.56690  0.17910  0.70650  Biso   1.000  C
  C34      1.0000 0.43310  0.82090  0.29350  Biso   1.000  C
  C35      1.0000 0.63150  0.19770  0.25520  Biso   1.000  C
  C36      1.0000 0.36850  0.80230  0.74480  Biso   1.000  C
  C37      1.0000 0.74470  0.19380  0.29900  Biso   1.000  C
  C38      1.0000 0.25530  0.80620  0.70100  Biso   1.000  C
  H29      1.0000 0.72170  0.28250  0.31910  Biso   1.000  H
  H30      1.0000 0.27830  0.71750  0.68090  Biso   1.000  H
  H31      1.0000 0.83880  0.15620  0.25240  Biso   1.000  H
  H32      1.0000 0.16120  0.84380  0.74760  Biso   1.000  H
  H33      1.0000 0.74600  0.14030  0.35350  Biso   1.000  H
  H34      1.0000 0.25400  0.85970  0.64650  Biso   1.000  H
  C39      1.0000 0.61410  0.29060  0.17580  Biso   1.000  C
  C40      1.0000 0.38590  0.70940  0.82420  Biso   1.000  C
  H35      1.0000 0.71010  0.27700  0.13580  Biso   1.000  H
  H36      1.0000 0.28990  0.72300  0.86420  Biso   1.000  H
  H37      1.0000 0.56680  0.26850  0.13640  Biso   1.000  H
  H38      1.0000 0.43320  0.73150  0.86360  Biso   1.000  H
  C41      1.0000 0.67290  0.06090  0.21770  Biso   1.000  C
  C42      1.0000 0.32710  0.93910  0.78230  Biso   1.000  C
  H39      1.0000 0.69460  0.99960  0.26680  Biso   1.000  H
  H40      1.0000 0.30540  0.00040  0.73320  Biso   1.000  H
  H41      1.0000 0.75740  0.03490  0.16290  Biso   1.000  H
  H42      1.0000 0.24260  0.96510  0.83710  Biso   1.000  H
  H43      1.0000 0.59340  0.06040  0.19930  Biso   1.000  H
  H44      1.0000 0.40660  0.93960  0.80070  Biso   1.000  H
  C43      1.0000 0.04450  0.67220  0.10170  Biso   1.000  C
  C44      1.0000 0.95550  0.32780  0.89830  Biso   1.000  C
  C45      1.0000 0.09730  0.77680  0.09890  Biso   1.000  C
  C46      1.0000 0.90270  0.22320  0.90110  Biso   1.000  C
  C47      1.0000 0.71250  0.94950  0.93460  Biso   1.000  C
  C48      1.0000 0.28750  0.05050  0.06540  Biso   1.000  C
  H45      1.0000 0.61210  0.01260  0.94620  Biso   1.000  H
  H46      1.0000 0.38790  0.98740  0.05380  Biso   1.000  H
  H47      1.0000 0.77410  0.99100  0.90280  Biso   1.000  H
  H48      1.0000 0.22590  0.00900  0.09720  Biso   1.000  H
  H49      1.0000 0.73180  0.91910  0.99460  Biso   1.000  H
  H50      1.0000 0.26820  0.08090  0.00540  Biso   1.000  H
