data_image0
_cell_length_a       21.108
_cell_length_b       9.697
_cell_length_c       16.102
_cell_angle_alpha    90
_cell_angle_beta     90
_cell_angle_gamma    90

_symmetry_space_group_name_H-M    "P 1"
_symmetry_int_tables_number       1

loop_
  _symmetry_equiv_pos_as_xyz
  'x, y, z'

loop_
  _atom_site_label
  _atom_site_occupancy
  _atom_site_fract_x
  _atom_site_fract_y
  _atom_site_fract_z
  _atom_site_thermal_displace_type
  _atom_site_B_iso_or_equiv
  _atom_site_type_symbol
  Cu1      1.0000 0.00000  0.25061  0.05132  Biso   1.000  Cu
  Cu2      1.0000 0.50000  0.75061  0.05132  Biso   1.000  Cu
  Cu3      1.0000 0.00000  0.25061  0.44868  Biso   1.000  Cu
  Cu4      1.0000 0.00000  0.74939  0.55132  Biso   1.000  Cu
  Cu5      1.0000 0.50000  0.75061  0.44868  Biso   1.000  Cu
  Cu6      1.0000 0.50000  0.24939  0.55132  Biso   1.000  Cu
  Cu7      1.0000 0.00000  0.74939  0.94868  Biso   1.000  Cu
  Cu8      1.0000 0.50000  0.24939  0.94868  Biso   1.000  Cu
  Co1      1.0000 0.25000  0.25000  0.00000  Biso   1.000  Co
  Co2      1.0000 0.75000  0.75000  0.00000  Biso   1.000  Co
  Co3      1.0000 0.25000  0.25000  0.50000  Biso   1.000  Co
  Co4      1.0000 0.75000  0.25000  0.00000  Biso   1.000  Co
  Co5      1.0000 0.25000  0.75000  0.50000  Biso   1.000  Co
  Co6      1.0000 0.75000  0.75000  0.50000  Biso   1.000  Co
  Co7      1.0000 0.25000  0.75000  0.00000  Biso   1.000  Co
  Co8      1.0000 0.75000  0.25000  0.50000  Biso   1.000  Co
  O1       1.0000 0.06284  0.33030  0.97415  Biso   1.000  O
  O2       1.0000 0.56284  0.83030  0.97415  Biso   1.000  O
  O3       1.0000 0.06284  0.33030  0.52585  Biso   1.000  O
  O4       1.0000 0.93716  0.33030  0.97415  Biso   1.000  O
  O5       1.0000 0.06284  0.66970  0.47415  Biso   1.000  O
  O6       1.0000 0.56284  0.83030  0.52585  Biso   1.000  O
  O7       1.0000 0.43716  0.83030  0.97415  Biso   1.000  O
  O8       1.0000 0.56284  0.16970  0.47415  Biso   1.000  O
  O9       1.0000 0.93716  0.66970  0.02585  Biso   1.000  O
  O10      1.0000 0.43716  0.16970  0.02585  Biso   1.000  O
  O11      1.0000 0.93716  0.66970  0.47415  Biso   1.000  O
  O12      1.0000 0.06284  0.66970  0.02585  Biso   1.000  O
  O13      1.0000 0.93716  0.33030  0.52585  Biso   1.000  O
  O14      1.0000 0.43716  0.16970  0.47415  Biso   1.000  O
  O15      1.0000 0.56284  0.16970  0.02585  Biso   1.000  O
  O16      1.0000 0.43716  0.83030  0.52585  Biso   1.000  O
  O17      1.0000 0.16702  0.33480  0.95356  Biso   1.000  O
  O18      1.0000 0.66702  0.83480  0.95356  Biso   1.000  O
  O19      1.0000 0.16702  0.33480  0.54644  Biso   1.000  O
  O20      1.0000 0.83298  0.33480  0.95356  Biso   1.000  O
  O21      1.0000 0.16702  0.66520  0.45356  Biso   1.000  O
  O22      1.0000 0.66702  0.83480  0.54644  Biso   1.000  O
  O23      1.0000 0.33298  0.83480  0.95356  Biso   1.000  O
  O24      1.0000 0.66702  0.16520  0.45356  Biso   1.000  O
  O25      1.0000 0.83298  0.66520  0.04644  Biso   1.000  O
  O26      1.0000 0.33298  0.16520  0.04644  Biso   1.000  O
  O27      1.0000 0.83298  0.66520  0.45356  Biso   1.000  O
  O28      1.0000 0.16702  0.66520  0.04644  Biso   1.000  O
  O29      1.0000 0.83298  0.33480  0.54644  Biso   1.000  O
  O30      1.0000 0.33298  0.16520  0.45356  Biso   1.000  O
  O31      1.0000 0.66702  0.16520  0.04644  Biso   1.000  O
  O32      1.0000 0.33298  0.83480  0.54644  Biso   1.000  O
  O33      1.0000 0.18322  0.14630  0.07504  Biso   1.000  O
  O34      1.0000 0.68322  0.64630  0.07504  Biso   1.000  O
  O35      1.0000 0.18322  0.14630  0.42496  Biso   1.000  O
  O36      1.0000 0.81678  0.14630  0.07504  Biso   1.000  O
  O37      1.0000 0.18322  0.85370  0.57504  Biso   1.000  O
  O38      1.0000 0.68322  0.64630  0.42496  Biso   1.000  O
  O39      1.0000 0.31678  0.64630  0.07504  Biso   1.000  O
  O40      1.0000 0.68322  0.35370  0.57504  Biso   1.000  O
  O41      1.0000 0.81678  0.85370  0.92496  Biso   1.000  O
  O42      1.0000 0.31678  0.35370  0.92496  Biso   1.000  O
  O43      1.0000 0.81678  0.85370  0.57504  Biso   1.000  O
  O44      1.0000 0.18322  0.85370  0.92496  Biso   1.000  O
  O45      1.0000 0.81678  0.14630  0.42496  Biso   1.000  O
  O46      1.0000 0.31678  0.35370  0.57504  Biso   1.000  O
  O47      1.0000 0.68322  0.35370  0.92496  Biso   1.000  O
  O48      1.0000 0.31678  0.64630  0.42496  Biso   1.000  O
  O49      1.0000 0.24440  0.10660  0.90279  Biso   1.000  O
  O50      1.0000 0.74440  0.60660  0.90279  Biso   1.000  O
  O51      1.0000 0.24440  0.10660  0.59721  Biso   1.000  O
  O52      1.0000 0.75560  0.10660  0.90279  Biso   1.000  O
  O53      1.0000 0.24440  0.89340  0.40279  Biso   1.000  O
  O54      1.0000 0.74440  0.60660  0.59721  Biso   1.000  O
  O55      1.0000 0.25560  0.60660  0.90279  Biso   1.000  O
  O56      1.0000 0.74440  0.39340  0.40279  Biso   1.000  O
  O57      1.0000 0.75560  0.89340  0.09721  Biso   1.000  O
  O58      1.0000 0.25560  0.39340  0.09721  Biso   1.000  O
  O59      1.0000 0.75560  0.89340  0.40279  Biso   1.000  O
  O60      1.0000 0.24440  0.89340  0.09721  Biso   1.000  O
  O61      1.0000 0.75560  0.10660  0.59721  Biso   1.000  O
  O62      1.0000 0.25560  0.39340  0.40279  Biso   1.000  O
  O63      1.0000 0.74440  0.39340  0.09721  Biso   1.000  O
  O64      1.0000 0.25560  0.60660  0.59721  Biso   1.000  O
  H1       1.0000 0.22170  0.02760  0.91120  Biso   1.000  H
  H2       1.0000 0.72170  0.52760  0.91120  Biso   1.000  H
  H3       1.0000 0.22170  0.02760  0.58880  Biso   1.000  H
  H4       1.0000 0.77830  0.02760  0.91120  Biso   1.000  H
  H5       1.0000 0.22170  0.97240  0.41120  Biso   1.000  H
  H6       1.0000 0.72170  0.52760  0.58880  Biso   1.000  H
  H7       1.0000 0.27830  0.52760  0.91120  Biso   1.000  H
  H8       1.0000 0.72170  0.47240  0.41120  Biso   1.000  H
  H9       1.0000 0.77830  0.97240  0.08880  Biso   1.000  H
  H10      1.0000 0.27830  0.47240  0.08880  Biso   1.000  H
  H11      1.0000 0.77830  0.97240  0.41120  Biso   1.000  H
  H12      1.0000 0.22170  0.97240  0.08880  Biso   1.000  H
  H13      1.0000 0.77830  0.02760  0.58880  Biso   1.000  H
  H14      1.0000 0.27830  0.47240  0.41120  Biso   1.000  H
  H15      1.0000 0.72170  0.47240  0.08880  Biso   1.000  H
  H16      1.0000 0.27830  0.52760  0.58880  Biso   1.000  H
  H17      1.0000 0.28430  0.08780  0.88260  Biso   1.000  H
  H18      1.0000 0.78430  0.58780  0.88260  Biso   1.000  H
  H19      1.0000 0.28430  0.08780  0.61740  Biso   1.000  H
  H20      1.0000 0.71570  0.08780  0.88260  Biso   1.000  H
  H21      1.0000 0.28430  0.91220  0.38260  Biso   1.000  H
  H22      1.0000 0.78430  0.58780  0.61740  Biso   1.000  H
  H23      1.0000 0.21570  0.58780  0.88260  Biso   1.000  H
  H24      1.0000 0.78430  0.41220  0.38260  Biso   1.000  H
  H25      1.0000 0.71570  0.91220  0.11740  Biso   1.000  H
  H26      1.0000 0.21570  0.41220  0.11740  Biso   1.000  H
  H27      1.0000 0.71570  0.91220  0.38260  Biso   1.000  H
  H28      1.0000 0.28430  0.91220  0.11740  Biso   1.000  H
  H29      1.0000 0.71570  0.08780  0.61740  Biso   1.000  H
  H30      1.0000 0.21570  0.41220  0.38260  Biso   1.000  H
  H31      1.0000 0.78430  0.41220  0.11740  Biso   1.000  H
  H32      1.0000 0.21570  0.58780  0.61740  Biso   1.000  H
  O65      1.0000 0.00000  0.45330  0.12740  Biso   1.000  O
  O66      1.0000 0.50000  0.95330  0.12740  Biso   1.000  O
  O67      1.0000 0.00000  0.45330  0.37260  Biso   1.000  O
  O68      1.0000 0.00000  0.54670  0.62740  Biso   1.000  O
  O69      1.0000 0.50000  0.95330  0.37260  Biso   1.000  O
  O70      1.0000 0.50000  0.04670  0.62740  Biso   1.000  O
  O71      1.0000 0.00000  0.54670  0.87260  Biso   1.000  O
  O72      1.0000 0.50000  0.04670  0.87260  Biso   1.000  O
  H33      1.0000 0.96060  0.48950  0.13600  Biso   1.000  H
  H34      1.0000 0.46060  0.98950  0.13600  Biso   1.000  H
  H35      1.0000 0.96060  0.48950  0.36400  Biso   1.000  H
  H36      1.0000 0.03940  0.48950  0.13600  Biso   1.000  H
  H37      1.0000 0.96060  0.51050  0.63600  Biso   1.000  H
  H38      1.0000 0.46060  0.98950  0.36400  Biso   1.000  H
  H39      1.0000 0.53940  0.98950  0.13600  Biso   1.000  H
  H40      1.0000 0.46060  0.01050  0.63600  Biso   1.000  H
  H41      1.0000 0.03940  0.51050  0.86400  Biso   1.000  H
  H42      1.0000 0.53940  0.01050  0.86400  Biso   1.000  H
  H43      1.0000 0.03940  0.51050  0.63600  Biso   1.000  H
  H44      1.0000 0.96060  0.51050  0.86400  Biso   1.000  H
  H45      1.0000 0.03940  0.48950  0.36400  Biso   1.000  H
  H46      1.0000 0.53940  0.01050  0.63600  Biso   1.000  H
  H47      1.0000 0.46060  0.01050  0.86400  Biso   1.000  H
  H48      1.0000 0.53940  0.98950  0.36400  Biso   1.000  H
  N1       1.0000 0.07511  0.15900  0.10030  Biso   1.000  N
  N2       1.0000 0.57511  0.65900  0.10030  Biso   1.000  N
  N3       1.0000 0.07511  0.15900  0.39970  Biso   1.000  N
  N4       1.0000 0.92489  0.15900  0.10030  Biso   1.000  N
  N5       1.0000 0.07511  0.84100  0.60030  Biso   1.000  N
  N6       1.0000 0.57511  0.65900  0.39970  Biso   1.000  N
  N7       1.0000 0.42489  0.65900  0.10030  Biso   1.000  N
  N8       1.0000 0.57511  0.34100  0.60030  Biso   1.000  N
  N9       1.0000 0.92489  0.84100  0.89970  Biso   1.000  N
  N10      1.0000 0.42489  0.34100  0.89970  Biso   1.000  N
  N11      1.0000 0.92489  0.84100  0.60030  Biso   1.000  N
  N12      1.0000 0.07511  0.84100  0.89970  Biso   1.000  N
  N13      1.0000 0.92489  0.15900  0.39970  Biso   1.000  N
  N14      1.0000 0.42489  0.34100  0.60030  Biso   1.000  N
  N15      1.0000 0.57511  0.34100  0.89970  Biso   1.000  N
  N16      1.0000 0.42489  0.65900  0.39970  Biso   1.000  N
  C1       1.0000 0.11866  0.29390  0.99070  Biso   1.000  C
  C2       1.0000 0.61866  0.79390  0.99070  Biso   1.000  C
  C3       1.0000 0.11866  0.29390  0.50930  Biso   1.000  C
  C4       1.0000 0.88134  0.29390  0.99070  Biso   1.000  C
  C5       1.0000 0.11866  0.70610  0.49070  Biso   1.000  C
  C6       1.0000 0.61866  0.79390  0.50930  Biso   1.000  C
  C7       1.0000 0.38134  0.79390  0.99070  Biso   1.000  C
  C8       1.0000 0.61866  0.20610  0.49070  Biso   1.000  C
  C9       1.0000 0.88134  0.70610  0.00930  Biso   1.000  C
  C10      1.0000 0.38134  0.20610  0.00930  Biso   1.000  C
  C11      1.0000 0.88134  0.70610  0.49070  Biso   1.000  C
  C12      1.0000 0.11866  0.70610  0.00930  Biso   1.000  C
  C13      1.0000 0.88134  0.29390  0.50930  Biso   1.000  C
  C14      1.0000 0.38134  0.20610  0.49070  Biso   1.000  C
  C15      1.0000 0.61866  0.20610  0.00930  Biso   1.000  C
  C16      1.0000 0.38134  0.79390  0.50930  Biso   1.000  C
  C17      1.0000 0.12752  0.18870  0.06072  Biso   1.000  C
  C18      1.0000 0.62752  0.68870  0.06072  Biso   1.000  C
  C19      1.0000 0.12752  0.18870  0.43928  Biso   1.000  C
  C20      1.0000 0.87248  0.18870  0.06072  Biso   1.000  C
  C21      1.0000 0.12752  0.81130  0.56072  Biso   1.000  C
  C22      1.0000 0.62752  0.68870  0.43928  Biso   1.000  C
  C23      1.0000 0.37248  0.68870  0.06072  Biso   1.000  C
  C24      1.0000 0.62752  0.31130  0.56072  Biso   1.000  C
  C25      1.0000 0.87248  0.81130  0.93928  Biso   1.000  C
  C26      1.0000 0.37248  0.31130  0.93928  Biso   1.000  C
  C27      1.0000 0.87248  0.81130  0.56072  Biso   1.000  C
  C28      1.0000 0.12752  0.81130  0.93928  Biso   1.000  C
  C29      1.0000 0.87248  0.18870  0.43928  Biso   1.000  C
  C30      1.0000 0.37248  0.31130  0.56072  Biso   1.000  C
  C31      1.0000 0.62752  0.31130  0.93928  Biso   1.000  C
  C32      1.0000 0.37248  0.68870  0.43928  Biso   1.000  C
  C33      1.0000 0.07760  0.15020  0.25000  Biso   1.000  C
  C34      1.0000 0.57760  0.65020  0.25000  Biso   1.000  C
  C35      1.0000 0.92240  0.15020  0.25000  Biso   1.000  C
  C36      1.0000 0.07760  0.84980  0.75000  Biso   1.000  C
  C37      1.0000 0.42240  0.65020  0.25000  Biso   1.000  C
  C38      1.0000 0.57760  0.34980  0.75000  Biso   1.000  C
  C39      1.0000 0.92240  0.84980  0.75000  Biso   1.000  C
  C40      1.0000 0.42240  0.34980  0.75000  Biso   1.000  C
  H49      1.0000 0.07460  0.24800  0.25000  Biso   1.000  H
  H50      1.0000 0.57460  0.74800  0.25000  Biso   1.000  H
  H51      1.0000 0.92540  0.24800  0.25000  Biso   1.000  H
  H52      1.0000 0.07460  0.75200  0.75000  Biso   1.000  H
  H53      1.0000 0.42540  0.74800  0.25000  Biso   1.000  H
  H54      1.0000 0.57460  0.25200  0.75000  Biso   1.000  H
  H55      1.0000 0.92540  0.75200  0.75000  Biso   1.000  H
  H56      1.0000 0.42540  0.25200  0.75000  Biso   1.000  H
  C41      1.0000 0.07976  0.08120  0.17553  Biso   1.000  C
  C42      1.0000 0.57976  0.58120  0.17553  Biso   1.000  C
  C43      1.0000 0.07976  0.08120  0.32447  Biso   1.000  C
  C44      1.0000 0.92024  0.08120  0.17553  Biso   1.000  C
  C45      1.0000 0.07976  0.91880  0.67553  Biso   1.000  C
  C46      1.0000 0.57976  0.58120  0.32447  Biso   1.000  C
  C47      1.0000 0.42024  0.58120  0.17553  Biso   1.000  C
  C48      1.0000 0.57976  0.41880  0.67553  Biso   1.000  C
  C49      1.0000 0.92024  0.91880  0.82447  Biso   1.000  C
  C50      1.0000 0.42024  0.41880  0.82447  Biso   1.000  C
  C51      1.0000 0.92024  0.91880  0.67553  Biso   1.000  C
  C52      1.0000 0.07976  0.91880  0.82447  Biso   1.000  C
  C53      1.0000 0.92024  0.08120  0.32447  Biso   1.000  C
  C54      1.0000 0.42024  0.41880  0.67553  Biso   1.000  C
  C55      1.0000 0.57976  0.41880  0.82447  Biso   1.000  C
  C56      1.0000 0.42024  0.58120  0.32447  Biso   1.000  C
  C57      1.0000 0.08430  0.93910  0.17530  Biso   1.000  C
  C58      1.0000 0.58430  0.43910  0.17530  Biso   1.000  C
  C59      1.0000 0.08430  0.93910  0.32470  Biso   1.000  C
  C60      1.0000 0.91570  0.93910  0.17530  Biso   1.000  C
  C61      1.0000 0.08430  0.06090  0.67530  Biso   1.000  C
  C62      1.0000 0.58430  0.43910  0.32470  Biso   1.000  C
  C63      1.0000 0.41570  0.43910  0.17530  Biso   1.000  C
  C64      1.0000 0.58430  0.56090  0.67530  Biso   1.000  C
  C65      1.0000 0.91570  0.06090  0.82470  Biso   1.000  C
  C66      1.0000 0.41570  0.56090  0.82470  Biso   1.000  C
  C67      1.0000 0.91570  0.06090  0.67530  Biso   1.000  C
  C68      1.0000 0.08430  0.06090  0.82470  Biso   1.000  C
  C69      1.0000 0.91570  0.93910  0.32470  Biso   1.000  C
  C70      1.0000 0.41570  0.56090  0.67530  Biso   1.000  C
  C71      1.0000 0.58430  0.56090  0.82470  Biso   1.000  C
  C72      1.0000 0.41570  0.43910  0.32470  Biso   1.000  C
  H57      1.0000 0.08530  0.89000  0.12420  Biso   1.000  H
  H58      1.0000 0.58530  0.39000  0.12420  Biso   1.000  H
  H59      1.0000 0.08530  0.89000  0.37580  Biso   1.000  H
  H60      1.0000 0.91470  0.89000  0.12420  Biso   1.000  H
  H61      1.0000 0.08530  0.11000  0.62420  Biso   1.000  H
  H62      1.0000 0.58530  0.39000  0.37580  Biso   1.000  H
  H63      1.0000 0.41470  0.39000  0.12420  Biso   1.000  H
  H64      1.0000 0.58530  0.61000  0.62420  Biso   1.000  H
  H65      1.0000 0.91470  0.11000  0.87580  Biso   1.000  H
  H66      1.0000 0.41470  0.61000  0.87580  Biso   1.000  H
  H67      1.0000 0.91470  0.11000  0.62420  Biso   1.000  H
  H68      1.0000 0.08530  0.11000  0.87580  Biso   1.000  H
  H69      1.0000 0.91470  0.89000  0.37580  Biso   1.000  H
  H70      1.0000 0.41470  0.61000  0.62420  Biso   1.000  H
  H71      1.0000 0.58530  0.61000  0.87580  Biso   1.000  H
  H72      1.0000 0.41470  0.39000  0.37580  Biso   1.000  H
  C73      1.0000 0.08730  0.86870  0.25000  Biso   1.000  C
  C74      1.0000 0.58730  0.36870  0.25000  Biso   1.000  C
  C75      1.0000 0.91270  0.86870  0.25000  Biso   1.000  C
  C76      1.0000 0.08730  0.13130  0.75000  Biso   1.000  C
  C77      1.0000 0.41270  0.36870  0.25000  Biso   1.000  C
  C78      1.0000 0.58730  0.63130  0.75000  Biso   1.000  C
  C79      1.0000 0.91270  0.13130  0.75000  Biso   1.000  C
  C80      1.0000 0.41270  0.63130  0.75000  Biso   1.000  C
  H73      1.0000 0.09150  0.77120  0.25000  Biso   1.000  H
  H74      1.0000 0.59150  0.27120  0.25000  Biso   1.000  H
  H75      1.0000 0.90850  0.77120  0.25000  Biso   1.000  H
  H76      1.0000 0.09150  0.22880  0.75000  Biso   1.000  H
  H77      1.0000 0.40850  0.27120  0.25000  Biso   1.000  H
  H78      1.0000 0.59150  0.72880  0.75000  Biso   1.000  H
  H79      1.0000 0.90850  0.22880  0.75000  Biso   1.000  H
  H80      1.0000 0.40850  0.72880  0.75000  Biso   1.000  H
  O73      1.0000 0.13338  0.47110  0.16688  Biso   1.000  O
  O74      1.0000 0.63338  0.97110  0.16688  Biso   1.000  O
  O75      1.0000 0.13338  0.47110  0.33312  Biso   1.000  O
  O76      1.0000 0.86662  0.47110  0.16688  Biso   1.000  O
  O77      1.0000 0.13338  0.52890  0.66688  Biso   1.000  O
  O78      1.0000 0.63338  0.97110  0.33312  Biso   1.000  O
  O79      1.0000 0.36662  0.97110  0.16688  Biso   1.000  O
  O80      1.0000 0.63338  0.02890  0.66688  Biso   1.000  O
  O81      1.0000 0.86662  0.52890  0.83312  Biso   1.000  O
  O82      1.0000 0.36662  0.02890  0.83312  Biso   1.000  O
  O83      1.0000 0.86662  0.52890  0.66688  Biso   1.000  O
  O84      1.0000 0.13338  0.52890  0.83312  Biso   1.000  O
  O85      1.0000 0.86662  0.47110  0.33312  Biso   1.000  O
  O86      1.0000 0.36662  0.02890  0.66688  Biso   1.000  O
  O87      1.0000 0.63338  0.02890  0.83312  Biso   1.000  O
  O88      1.0000 0.36662  0.97110  0.33312  Biso   1.000  O
  H81      1.0000 0.14410  0.54790  0.13660  Biso   1.000  H
  H82      1.0000 0.64410  0.04790  0.13660  Biso   1.000  H
  H83      1.0000 0.14410  0.54790  0.36340  Biso   1.000  H
  H84      1.0000 0.85590  0.54790  0.13660  Biso   1.000  H
  H85      1.0000 0.14410  0.45210  0.63660  Biso   1.000  H
  H86      1.0000 0.64410  0.04790  0.36340  Biso   1.000  H
  H87      1.0000 0.35590  0.04790  0.13660  Biso   1.000  H
  H88      1.0000 0.64410  0.95210  0.63660  Biso   1.000  H
  H89      1.0000 0.85590  0.45210  0.86340  Biso   1.000  H
  H90      1.0000 0.35590  0.95210  0.86340  Biso   1.000  H
  H91      1.0000 0.85590  0.45210  0.63660  Biso   1.000  H
  H92      1.0000 0.14410  0.45210  0.86340  Biso   1.000  H
  H93      1.0000 0.85590  0.54790  0.36340  Biso   1.000  H
  H94      1.0000 0.35590  0.95210  0.63660  Biso   1.000  H
  H95      1.0000 0.64410  0.95210  0.86340  Biso   1.000  H
  H96      1.0000 0.35590  0.04790  0.36340  Biso   1.000  H
  H97      1.0000 0.11980  0.51770  0.21290  Biso   1.000  H
  H98      1.0000 0.61980  0.01770  0.21290  Biso   1.000  H
  H99      1.0000 0.11980  0.51770  0.28710  Biso   1.000  H
  H100     1.0000 0.88020  0.51770  0.21290  Biso   1.000  H
  H101     1.0000 0.11980  0.48230  0.71290  Biso   1.000  H
  H102     1.0000 0.61980  0.01770  0.28710  Biso   1.000  H
  H103     1.0000 0.38020  0.01770  0.21290  Biso   1.000  H
  H104     1.0000 0.61980  0.98230  0.71290  Biso   1.000  H
  H105     1.0000 0.88020  0.48230  0.78710  Biso   1.000  H
  H106     1.0000 0.38020  0.98230  0.78710  Biso   1.000  H
  H107     1.0000 0.88020  0.48230  0.71290  Biso   1.000  H
  H108     1.0000 0.11980  0.48230  0.78710  Biso   1.000  H
  H109     1.0000 0.88020  0.51770  0.28710  Biso   1.000  H
  H110     1.0000 0.38020  0.98230  0.71290  Biso   1.000  H
  H111     1.0000 0.61980  0.98230  0.78710  Biso   1.000  H
  H112     1.0000 0.38020  0.01770  0.28710  Biso   1.000  H
  O89      1.0000 0.24390  0.73520  0.25000  Biso   1.000  O
  O90      1.0000 0.74390  0.23520  0.25000  Biso   1.000  O
  O91      1.0000 0.75610  0.73520  0.25000  Biso   1.000  O
  O92      1.0000 0.24390  0.26480  0.75000  Biso   1.000  O
  O93      1.0000 0.25610  0.23520  0.25000  Biso   1.000  O
  O94      1.0000 0.74390  0.76480  0.75000  Biso   1.000  O
  O95      1.0000 0.75610  0.26480  0.75000  Biso   1.000  O
  O96      1.0000 0.25610  0.76480  0.75000  Biso   1.000  O
  H113     1.0000 0.27440  0.64770  0.25000  Biso   1.000  H
  H114     1.0000 0.77440  0.14770  0.25000  Biso   1.000  H
  H115     1.0000 0.72560  0.64770  0.25000  Biso   1.000  H
  H116     1.0000 0.27440  0.35230  0.75000  Biso   1.000  H
  H117     1.0000 0.22560  0.14770  0.25000  Biso   1.000  H
  H118     1.0000 0.77440  0.85230  0.75000  Biso   1.000  H
  H119     1.0000 0.72560  0.35230  0.75000  Biso   1.000  H
  H120     1.0000 0.22560  0.85230  0.75000  Biso   1.000  H
  H121     1.0000 0.27340  0.83600  0.25000  Biso   1.000  H
  H122     1.0000 0.77340  0.33600  0.25000  Biso   1.000  H
  H123     1.0000 0.72660  0.83600  0.25000  Biso   1.000  H
  H124     1.0000 0.27340  0.16400  0.75000  Biso   1.000  H
  H125     1.0000 0.22660  0.33600  0.25000  Biso   1.000  H
  H126     1.0000 0.77340  0.66400  0.75000  Biso   1.000  H
  H127     1.0000 0.72660  0.16400  0.75000  Biso   1.000  H
  H128     1.0000 0.22660  0.66400  0.75000  Biso   1.000  H
