data_image0
_cell_length_a       10.631
_cell_length_b       11.8915
_cell_length_c       32.1197
_cell_angle_alpha    90
_cell_angle_beta     98.907
_cell_angle_gamma    90

_symmetry_space_group_name_H-M    "P 1"
_symmetry_int_tables_number       1

loop_
  _symmetry_equiv_pos_as_xyz
  'x, y, z'

loop_
  _atom_site_label
  _atom_site_occupancy
  _atom_site_fract_x
  _atom_site_fract_y
  _atom_site_fract_z
  _atom_site_thermal_displace_type
  _atom_site_B_iso_or_equiv
  _atom_site_type_symbol
  Cu1      1.0000 0.64794  0.18621  0.13248  Biso   1.000  Cu
  Cu2      1.0000 0.35206  0.68621  0.36752  Biso   1.000  Cu
  Cu3      1.0000 0.35206  0.81379  0.86752  Biso   1.000  Cu
  Cu4      1.0000 0.64794  0.31379  0.63248  Biso   1.000  Cu
  P1       1.0000 0.68769  0.49170  0.13378  Biso   1.000  P
  P2       1.0000 0.31231  0.99170  0.36622  Biso   1.000  P
  P3       1.0000 0.31231  0.50830  0.86622  Biso   1.000  P
  P4       1.0000 0.68769  0.00830  0.63378  Biso   1.000  P
  F1       1.0000 0.48830  0.79560  0.10630  Biso   1.000  F
  F2       1.0000 0.51170  0.29560  0.39370  Biso   1.000  F
  F3       1.0000 0.51170  0.20440  0.89370  Biso   1.000  F
  F4       1.0000 0.48830  0.70440  0.60630  Biso   1.000  F
  F5       1.0000 0.25900  0.31960  0.14870  Biso   1.000  F
  F6       1.0000 0.74100  0.81960  0.35130  Biso   1.000  F
  F7       1.0000 0.74100  0.68040  0.85130  Biso   1.000  F
  F8       1.0000 0.25900  0.18040  0.64870  Biso   1.000  F
  F9       1.0000 0.18000  0.17790  0.17000  Biso   1.000  F
  F10      1.0000 0.82000  0.67790  0.33000  Biso   1.000  F
  F11      1.0000 0.82000  0.82210  0.83000  Biso   1.000  F
  F12      1.0000 0.18000  0.32210  0.67000  Biso   1.000  F
  F13      1.0000 0.31610  0.26620  0.20750  Biso   1.000  F
  F14      1.0000 0.68390  0.76620  0.29250  Biso   1.000  F
  F15      1.0000 0.68390  0.73380  0.79250  Biso   1.000  F
  F16      1.0000 0.31610  0.23380  0.70750  Biso   1.000  F
  O1       1.0000 0.71780  0.37100  0.13751  Biso   1.000  O
  O2       1.0000 0.28220  0.87100  0.36249  Biso   1.000  O
  O3       1.0000 0.28220  0.62900  0.86249  Biso   1.000  O
  O4       1.0000 0.71780  0.12900  0.63751  Biso   1.000  O
  C1       1.0000 0.95850  0.43070  0.09179  Biso   1.000  C
  C2       1.0000 0.04150  0.93070  0.40821  Biso   1.000  C
  C3       1.0000 0.04150  0.56930  0.90821  Biso   1.000  C
  C4       1.0000 0.95850  0.06930  0.59179  Biso   1.000  C
  H1       1.0000 0.02490  0.46040  0.11250  Biso   1.000  H
  H2       1.0000 0.97510  0.96040  0.38750  Biso   1.000  H
  H3       1.0000 0.97510  0.53960  0.88750  Biso   1.000  H
  H4       1.0000 0.02490  0.03960  0.61250  Biso   1.000  H
  H5       1.0000 0.99480  0.40170  0.06840  Biso   1.000  H
  H6       1.0000 0.00520  0.90170  0.43160  Biso   1.000  H
  H7       1.0000 0.00520  0.59830  0.93160  Biso   1.000  H
  H8       1.0000 0.99480  0.09830  0.56840  Biso   1.000  H
  H9       1.0000 0.91520  0.37130  0.10410  Biso   1.000  H
  H10      1.0000 0.08480  0.87130  0.39590  Biso   1.000  H
  H11      1.0000 0.08480  0.62870  0.89590  Biso   1.000  H
  H12      1.0000 0.91520  0.12870  0.60410  Biso   1.000  H
  C5       1.0000 0.85380  0.82620  0.11490  Biso   1.000  C
  C6       1.0000 0.14620  0.32620  0.38510  Biso   1.000  C
  C7       1.0000 0.14620  0.17380  0.88510  Biso   1.000  C
  C8       1.0000 0.85380  0.67380  0.61490  Biso   1.000  C
  H13      1.0000 0.91810  0.81450  0.09750  Biso   1.000  H
  H14      1.0000 0.08190  0.31450  0.40250  Biso   1.000  H
  H15      1.0000 0.08190  0.18550  0.90250  Biso   1.000  H
  H16      1.0000 0.91810  0.68550  0.59750  Biso   1.000  H
  H17      1.0000 0.85080  0.90450  0.12210  Biso   1.000  H
  H18      1.0000 0.14920  0.40450  0.37790  Biso   1.000  H
  H19      1.0000 0.14920  0.09550  0.87790  Biso   1.000  H
  H20      1.0000 0.85080  0.59550  0.62210  Biso   1.000  H
  H21      1.0000 0.77250  0.80340  0.10000  Biso   1.000  H
  H22      1.0000 0.22750  0.30340  0.40000  Biso   1.000  H
  H23      1.0000 0.22750  0.19660  0.90000  Biso   1.000  H
  H24      1.0000 0.77250  0.69660  0.60000  Biso   1.000  H
  C9       1.0000 0.01390  0.39680  0.20387  Biso   1.000  C
  C10      1.0000 0.98610  0.89680  0.29613  Biso   1.000  C
  C11      1.0000 0.98610  0.60320  0.79613  Biso   1.000  C
  C12      1.0000 0.01390  0.10320  0.70387  Biso   1.000  C
  H25      1.0000 0.09420  0.36030  0.21250  Biso   1.000  H
  H26      1.0000 0.90580  0.86030  0.28750  Biso   1.000  H
  H27      1.0000 0.90580  0.63970  0.78750  Biso   1.000  H
  H28      1.0000 0.09420  0.13970  0.71250  Biso   1.000  H
  H29      1.0000 0.97120  0.36220  0.17860  Biso   1.000  H
  H30      1.0000 0.02880  0.86220  0.32140  Biso   1.000  H
  H31      1.0000 0.02880  0.63780  0.82140  Biso   1.000  H
  H32      1.0000 0.97120  0.13780  0.67860  Biso   1.000  H
  H33      1.0000 0.96220  0.38980  0.22570  Biso   1.000  H
  H34      1.0000 0.03780  0.88980  0.27430  Biso   1.000  H
  H35      1.0000 0.03780  0.61020  0.77430  Biso   1.000  H
  H36      1.0000 0.96220  0.11020  0.72570  Biso   1.000  H
  O5       1.0000 0.78990  0.14830  0.10200  Biso   1.000  O
  O6       1.0000 0.21010  0.64830  0.39800  Biso   1.000  O
  O7       1.0000 0.21010  0.85170  0.89800  Biso   1.000  O
  O8       1.0000 0.78990  0.35170  0.60200  Biso   1.000  O
  F17      1.0000 0.89760  0.00420  0.03140  Biso   1.000  F
  F18      1.0000 0.10240  0.50420  0.46860  Biso   1.000  F
  F19      1.0000 0.10240  0.99580  0.96860  Biso   1.000  F
  F20      1.0000 0.89760  0.49580  0.53140  Biso   1.000  F
  F21      1.0000 0.93630  0.17040  0.02090  Biso   1.000  F
  F22      1.0000 0.06370  0.67040  0.47910  Biso   1.000  F
  F23      1.0000 0.06370  0.82960  0.97910  Biso   1.000  F
  F24      1.0000 0.93630  0.32960  0.52090  Biso   1.000  F
  F25      1.0000 0.99760  0.09530  0.07680  Biso   1.000  F
  F26      1.0000 0.00240  0.59530  0.42320  Biso   1.000  F
  F27      1.0000 0.00240  0.90470  0.92320  Biso   1.000  F
  F28      1.0000 0.99760  0.40470  0.57680  Biso   1.000  F
  O9       1.0000 0.49550  0.21920  0.15902  Biso   1.000  O
  O10      1.0000 0.50450  0.71920  0.34098  Biso   1.000  O
  O11      1.0000 0.50450  0.78080  0.84098  Biso   1.000  O
  O12      1.0000 0.49550  0.28080  0.65902  Biso   1.000  O
  C13      1.0000 0.36450  0.05650  0.14130  Biso   1.000  C
  C14      1.0000 0.63550  0.55650  0.35870  Biso   1.000  C
  C15      1.0000 0.63550  0.94350  0.85870  Biso   1.000  C
  C16      1.0000 0.36450  0.44350  0.64130  Biso   1.000  C
  H37      1.0000 0.28100  0.03140  0.13950  Biso   1.000  H
  H38      1.0000 0.71900  0.53140  0.36050  Biso   1.000  H
  H39      1.0000 0.71900  0.96860  0.86050  Biso   1.000  H
  H40      1.0000 0.28100  0.46860  0.63950  Biso   1.000  H
  O13      1.0000 0.56700  0.99810  0.12822  Biso   1.000  O
  O14      1.0000 0.43300  0.49810  0.37178  Biso   1.000  O
  O15      1.0000 0.43300  0.00190  0.87178  Biso   1.000  O
  O16      1.0000 0.56700  0.50190  0.62822  Biso   1.000  O
  O17      1.0000 0.65130  0.54150  0.17538  Biso   1.000  O
  O18      1.0000 0.34870  0.04150  0.32462  Biso   1.000  O
  O19      1.0000 0.34870  0.45850  0.82462  Biso   1.000  O
  O20      1.0000 0.65130  0.95850  0.67538  Biso   1.000  O
  O21      1.0000 0.56730  0.52410  0.10111  Biso   1.000  O
  O22      1.0000 0.43270  0.02410  0.39889  Biso   1.000  O
  O23      1.0000 0.43270  0.47590  0.89889  Biso   1.000  O
  O24      1.0000 0.56730  0.97590  0.60111  Biso   1.000  O
  C17      1.0000 0.01360  0.79640  0.17800  Biso   1.000  C
  C18      1.0000 0.98640  0.29640  0.32200  Biso   1.000  C
  C19      1.0000 0.98640  0.20360  0.82200  Biso   1.000  C
  C20      1.0000 0.01360  0.70360  0.67800  Biso   1.000  C
  H41      1.0000 0.07760  0.78400  0.16050  Biso   1.000  H
  H42      1.0000 0.92240  0.28400  0.33950  Biso   1.000  H
  H43      1.0000 0.92240  0.21600  0.83950  Biso   1.000  H
  H44      1.0000 0.07760  0.71600  0.66050  Biso   1.000  H
  H45      1.0000 0.03520  0.75520  0.20390  Biso   1.000  H
  H46      1.0000 0.96480  0.25520  0.29610  Biso   1.000  H
  H47      1.0000 0.96480  0.24480  0.79610  Biso   1.000  H
  H48      1.0000 0.03520  0.74480  0.70390  Biso   1.000  H
  H49      1.0000 0.00910  0.87520  0.18420  Biso   1.000  H
  H50      1.0000 0.99090  0.37520  0.31580  Biso   1.000  H
  H51      1.0000 0.99090  0.12480  0.81580  Biso   1.000  H
  H52      1.0000 0.00910  0.62480  0.68420  Biso   1.000  H
  O25      1.0000 0.91290  0.56990  0.18294  Biso   1.000  O
  O26      1.0000 0.08710  0.06990  0.31706  Biso   1.000  O
  O27      1.0000 0.08710  0.43010  0.81706  Biso   1.000  O
  O28      1.0000 0.91290  0.93010  0.68294  Biso   1.000  O
  F29      1.0000 0.44210  0.12410  0.97940  Biso   1.000  F
  F30      1.0000 0.55790  0.62410  0.52060  Biso   1.000  F
  F31      1.0000 0.55790  0.87590  0.02060  Biso   1.000  F
  F32      1.0000 0.44210  0.37590  0.47940  Biso   1.000  F
  C21      1.0000 0.86500  0.52300  0.07665  Biso   1.000  C
  C22      1.0000 0.13500  0.02300  0.42335  Biso   1.000  C
  C23      1.0000 0.13500  0.47700  0.92335  Biso   1.000  C
  C24      1.0000 0.86500  0.97700  0.57665  Biso   1.000  C
  C25      1.0000 0.76090  0.47230  0.04362  Biso   1.000  C
  C26      1.0000 0.23910  0.97230  0.45638  Biso   1.000  C
  C27      1.0000 0.23910  0.52770  0.95638  Biso   1.000  C
  C28      1.0000 0.76090  0.02770  0.54362  Biso   1.000  C
  H53      1.0000 0.70000  0.52950  0.03350  Biso   1.000  H
  H54      1.0000 0.30000  0.02950  0.46650  Biso   1.000  H
  H55      1.0000 0.30000  0.47050  0.96650  Biso   1.000  H
  H56      1.0000 0.70000  0.97050  0.53350  Biso   1.000  H
  H57      1.0000 0.71890  0.41260  0.05620  Biso   1.000  H
  H58      1.0000 0.28110  0.91260  0.44380  Biso   1.000  H
  H59      1.0000 0.28110  0.58740  0.94380  Biso   1.000  H
  H60      1.0000 0.71890  0.08740  0.55620  Biso   1.000  H
  H61      1.0000 0.79850  0.44310  0.02060  Biso   1.000  H
  H62      1.0000 0.20150  0.94310  0.47940  Biso   1.000  H
  H63      1.0000 0.20150  0.55690  0.97940  Biso   1.000  H
  H64      1.0000 0.79850  0.05690  0.52060  Biso   1.000  H
  C29      1.0000 0.78390  0.77560  0.18240  Biso   1.000  C
  C30      1.0000 0.21610  0.27560  0.31760  Biso   1.000  C
  C31      1.0000 0.21610  0.22440  0.81760  Biso   1.000  C
  C32      1.0000 0.78390  0.72440  0.68240  Biso   1.000  C
  H65      1.0000 0.77780  0.85450  0.18820  Biso   1.000  H
  H66      1.0000 0.22220  0.35450  0.31180  Biso   1.000  H
  H67      1.0000 0.22220  0.14550  0.81180  Biso   1.000  H
  H68      1.0000 0.77780  0.64550  0.68820  Biso   1.000  H
  H69      1.0000 0.80560  0.73540  0.20850  Biso   1.000  H
  H70      1.0000 0.19440  0.23540  0.29150  Biso   1.000  H
  H71      1.0000 0.19440  0.26460  0.79150  Biso   1.000  H
  H72      1.0000 0.80560  0.76460  0.70850  Biso   1.000  H
  H73      1.0000 0.70360  0.74910  0.16800  Biso   1.000  H
  H74      1.0000 0.29640  0.24910  0.33200  Biso   1.000  H
  H75      1.0000 0.29640  0.25090  0.83200  Biso   1.000  H
  H76      1.0000 0.70360  0.75090  0.66800  Biso   1.000  H
  C33      1.0000 0.39130  0.16430  0.15462  Biso   1.000  C
  C34      1.0000 0.60870  0.66430  0.34538  Biso   1.000  C
  C35      1.0000 0.60870  0.83570  0.84538  Biso   1.000  C
  C36      1.0000 0.39130  0.33570  0.65462  Biso   1.000  C
  C37      1.0000 0.45530  0.98180  0.13025  Biso   1.000  C
  C38      1.0000 0.54470  0.48180  0.36975  Biso   1.000  C
  C39      1.0000 0.54470  0.01820  0.86975  Biso   1.000  C
  C40      1.0000 0.45530  0.51820  0.63025  Biso   1.000  C
  C41      1.0000 0.40690  0.86150  0.11970  Biso   1.000  C
  C42      1.0000 0.59310  0.36150  0.38030  Biso   1.000  C
  C43      1.0000 0.59310  0.13850  0.88030  Biso   1.000  C
  C44      1.0000 0.40690  0.63850  0.61970  Biso   1.000  C
  F33      1.0000 0.37060  0.81310  0.15000  Biso   1.000  F
  F34      1.0000 0.62940  0.31310  0.35000  Biso   1.000  F
  F35      1.0000 0.62940  0.18690  0.85000  Biso   1.000  F
  F36      1.0000 0.37060  0.68690  0.65000  Biso   1.000  F
  F37      1.0000 0.31040  0.85910  0.08990  Biso   1.000  F
  F38      1.0000 0.68960  0.35910  0.41010  Biso   1.000  F
  F39      1.0000 0.68960  0.14090  0.91010  Biso   1.000  F
  F40      1.0000 0.31040  0.64090  0.58990  Biso   1.000  F
  C45      1.0000 0.28380  0.23050  0.16830  Biso   1.000  C
  C46      1.0000 0.71620  0.73050  0.33170  Biso   1.000  C
  C47      1.0000 0.71620  0.76950  0.83170  Biso   1.000  C
  C48      1.0000 0.28380  0.26950  0.66830  Biso   1.000  C
  C49      1.0000 0.68000  0.48760  0.21600  Biso   1.000  C
  C50      1.0000 0.32000  0.98760  0.28400  Biso   1.000  C
  C51      1.0000 0.32000  0.51240  0.78400  Biso   1.000  C
  C52      1.0000 0.68000  0.01240  0.71600  Biso   1.000  C
  H77      1.0000 0.71830  0.41480  0.21250  Biso   1.000  H
  H78      1.0000 0.28170  0.91480  0.28750  Biso   1.000  H
  H79      1.0000 0.28170  0.58520  0.78750  Biso   1.000  H
  H80      1.0000 0.71830  0.08520  0.71250  Biso   1.000  H
  H81      1.0000 0.74170  0.53280  0.23410  Biso   1.000  H
  H82      1.0000 0.25830  0.03280  0.26590  Biso   1.000  H
  H83      1.0000 0.25830  0.46720  0.76590  Biso   1.000  H
  H84      1.0000 0.74170  0.96720  0.73410  Biso   1.000  H
  C53      1.0000 0.57080  0.47260  0.23570  Biso   1.000  C
  C54      1.0000 0.42920  0.97260  0.26430  Biso   1.000  C
  C55      1.0000 0.42920  0.52740  0.76430  Biso   1.000  C
  C56      1.0000 0.57080  0.02740  0.73570  Biso   1.000  C
  H85      1.0000 0.59490  0.43660  0.26250  Biso   1.000  H
  H86      1.0000 0.40510  0.93660  0.23750  Biso   1.000  H
  H87      1.0000 0.40510  0.56340  0.73750  Biso   1.000  H
  H88      1.0000 0.59490  0.06340  0.76250  Biso   1.000  H
  H89      1.0000 0.51010  0.42660  0.21810  Biso   1.000  H
  H90      1.0000 0.48990  0.92660  0.28190  Biso   1.000  H
  H91      1.0000 0.48990  0.57340  0.78190  Biso   1.000  H
  H92      1.0000 0.51010  0.07340  0.71810  Biso   1.000  H
  H93      1.0000 0.53350  0.54450  0.23970  Biso   1.000  H
  H94      1.0000 0.46650  0.04450  0.26030  Biso   1.000  H
  H95      1.0000 0.46650  0.45550  0.76030  Biso   1.000  H
  H96      1.0000 0.53350  0.95550  0.73970  Biso   1.000  H
  C57      1.0000 0.44500  0.47830  0.10360  Biso   1.000  C
  C58      1.0000 0.55500  0.97830  0.39640  Biso   1.000  C
  C59      1.0000 0.55500  0.52170  0.89640  Biso   1.000  C
  C60      1.0000 0.44500  0.02170  0.60360  Biso   1.000  C
  H97      1.0000 0.44630  0.39870  0.09720  Biso   1.000  H
  H98      1.0000 0.55370  0.89870  0.40280  Biso   1.000  H
  H99      1.0000 0.55370  0.60130  0.90280  Biso   1.000  H
  H100     1.0000 0.44630  0.10130  0.59720  Biso   1.000  H
  H101     1.0000 0.42880  0.48560  0.13240  Biso   1.000  H
  H102     1.0000 0.57120  0.98560  0.36760  Biso   1.000  H
  H103     1.0000 0.57120  0.51440  0.86760  Biso   1.000  H
  H104     1.0000 0.42880  0.01440  0.63240  Biso   1.000  H
  C61      1.0000 0.34730  0.52670  0.07760  Biso   1.000  C
  C62      1.0000 0.65270  0.02670  0.42240  Biso   1.000  C
  C63      1.0000 0.65270  0.47330  0.92240  Biso   1.000  C
  C64      1.0000 0.34730  0.97330  0.57760  Biso   1.000  C
  H105     1.0000 0.26880  0.49100  0.08130  Biso   1.000  H
  H106     1.0000 0.73120  0.99100  0.41870  Biso   1.000  H
  H107     1.0000 0.73120  0.50900  0.91870  Biso   1.000  H
  H108     1.0000 0.26880  0.00900  0.58130  Biso   1.000  H
  H109     1.0000 0.36080  0.51830  0.04890  Biso   1.000  H
  H110     1.0000 0.63920  0.01830  0.45110  Biso   1.000  H
  H111     1.0000 0.63920  0.48170  0.95110  Biso   1.000  H
  H112     1.0000 0.36080  0.98170  0.54890  Biso   1.000  H
  H113     1.0000 0.34310  0.60520  0.08420  Biso   1.000  H
  H114     1.0000 0.65690  0.10520  0.41580  Biso   1.000  H
  H115     1.0000 0.65690  0.39480  0.91580  Biso   1.000  H
  H116     1.0000 0.34310  0.89480  0.58420  Biso   1.000  H
  C65      1.0000 0.80510  0.58090  0.11285  Biso   1.000  C
  C66      1.0000 0.19490  0.08090  0.38715  Biso   1.000  C
  C67      1.0000 0.19490  0.41910  0.88715  Biso   1.000  C
  C68      1.0000 0.80510  0.91910  0.61285  Biso   1.000  C
  H117     1.0000 0.75520  0.64360  0.09910  Biso   1.000  H
  H118     1.0000 0.24480  0.14360  0.40090  Biso   1.000  H
  H119     1.0000 0.24480  0.35640  0.90090  Biso   1.000  H
  H120     1.0000 0.75520  0.85640  0.59910  Biso   1.000  H
  C69      1.0000 0.93500  0.61290  0.05450  Biso   1.000  C
  C70      1.0000 0.06500  0.11290  0.44550  Biso   1.000  C
  C71      1.0000 0.06500  0.38710  0.94550  Biso   1.000  C
  C72      1.0000 0.93500  0.88710  0.55450  Biso   1.000  C
  H121     1.0000 0.87700  0.67250  0.04460  Biso   1.000  H
  H122     1.0000 0.12300  0.17250  0.45540  Biso   1.000  H
  H123     1.0000 0.12300  0.32750  0.95540  Biso   1.000  H
  H124     1.0000 0.87700  0.82750  0.54460  Biso   1.000  H
  H125     1.0000 0.96720  0.57970  0.03110  Biso   1.000  H
  H126     1.0000 0.03280  0.07970  0.46890  Biso   1.000  H
  H127     1.0000 0.03280  0.42030  0.96890  Biso   1.000  H
  H128     1.0000 0.96720  0.92030  0.53110  Biso   1.000  H
  H129     1.0000 0.00450  0.64280  0.07410  Biso   1.000  H
  H130     1.0000 0.99550  0.14280  0.42590  Biso   1.000  H
  H131     1.0000 0.99550  0.35720  0.92590  Biso   1.000  H
  H132     1.0000 0.00450  0.85720  0.57410  Biso   1.000  H
  N1       1.0000 0.90400  0.63480  0.14401  Biso   1.000  N
  N2       1.0000 0.09600  0.13480  0.35599  Biso   1.000  N
  N3       1.0000 0.09600  0.36520  0.85599  Biso   1.000  N
  N4       1.0000 0.90400  0.86520  0.64401  Biso   1.000  N
  C73      1.0000 0.88540  0.75660  0.15526  Biso   1.000  C
  C74      1.0000 0.11460  0.25660  0.34474  Biso   1.000  C
  C75      1.0000 0.11460  0.24340  0.84474  Biso   1.000  C
  C76      1.0000 0.88540  0.74340  0.65526  Biso   1.000  C
  C77      1.0000 0.03600  0.52060  0.19565  Biso   1.000  C
  C78      1.0000 0.96400  0.02060  0.30435  Biso   1.000  C
  C79      1.0000 0.96400  0.47940  0.80435  Biso   1.000  C
  C80      1.0000 0.03600  0.97940  0.69565  Biso   1.000  C
  H133     1.0000 0.08710  0.52810  0.17290  Biso   1.000  H
  H134     1.0000 0.91290  0.02810  0.32710  Biso   1.000  H
  H135     1.0000 0.91290  0.47190  0.82710  Biso   1.000  H
  H136     1.0000 0.08710  0.97190  0.67290  Biso   1.000  H
  C81      1.0000 0.78050  0.13550  0.06320  Biso   1.000  C
  C82      1.0000 0.21950  0.63550  0.43680  Biso   1.000  C
  C83      1.0000 0.21950  0.86450  0.93680  Biso   1.000  C
  C84      1.0000 0.78050  0.36450  0.56320  Biso   1.000  C
  C85      1.0000 0.90340  0.10350  0.04790  Biso   1.000  C
  C86      1.0000 0.09660  0.60350  0.45210  Biso   1.000  C
  C87      1.0000 0.09660  0.89650  0.95210  Biso   1.000  C
  C88      1.0000 0.90340  0.39650  0.54790  Biso   1.000  C
  C89      1.0000 0.67420  0.14910  0.03340  Biso   1.000  C
  C90      1.0000 0.32580  0.64910  0.46660  Biso   1.000  C
  C91      1.0000 0.32580  0.85090  0.96660  Biso   1.000  C
  C92      1.0000 0.67420  0.35090  0.53340  Biso   1.000  C
  H137     1.0000 0.68060  0.13470  0.00530  Biso   1.000  H
  H138     1.0000 0.31940  0.63470  0.49470  Biso   1.000  H
  H139     1.0000 0.31940  0.86530  0.99470  Biso   1.000  H
  H140     1.0000 0.68060  0.36530  0.50530  Biso   1.000  H
  C93      1.0000 0.55910  0.18300  0.04320  Biso   1.000  C
  C94      1.0000 0.44090  0.68300  0.45680  Biso   1.000  C
  C95      1.0000 0.44090  0.81700  0.95680  Biso   1.000  C
  C96      1.0000 0.55910  0.31700  0.54320  Biso   1.000  C
  C97      1.0000 0.44620  0.19590  0.00870  Biso   1.000  C
  C98      1.0000 0.55380  0.69590  0.49130  Biso   1.000  C
  C99      1.0000 0.55380  0.80410  0.99130  Biso   1.000  C
  C100     1.0000 0.44620  0.30410  0.50870  Biso   1.000  C
  F41      1.0000 0.34420  0.19330  0.02090  Biso   1.000  F
  F42      1.0000 0.65580  0.69330  0.47910  Biso   1.000  F
  F43      1.0000 0.65580  0.80670  0.97910  Biso   1.000  F
  F44      1.0000 0.34420  0.30670  0.52090  Biso   1.000  F
  F45      1.0000 0.44770  0.28730  0.98930  Biso   1.000  F
  F46      1.0000 0.55230  0.78730  0.51070  Biso   1.000  F
  F47      1.0000 0.55230  0.71270  0.01070  Biso   1.000  F
  F48      1.0000 0.44770  0.21270  0.48930  Biso   1.000  F
  O29      1.0000 0.53570  0.20950  0.07896  Biso   1.000  O
  O30      1.0000 0.46430  0.70950  0.42104  Biso   1.000  O
  O31      1.0000 0.46430  0.79050  0.92104  Biso   1.000  O
  O32      1.0000 0.53570  0.29050  0.57896  Biso   1.000  O
  N5       1.0000 0.24650  0.64610  0.31220  Biso   1.000  N
  N6       1.0000 0.75350  0.14610  0.18780  Biso   1.000  N
  N7       1.0000 0.75350  0.35390  0.68780  Biso   1.000  N
  N8       1.0000 0.24650  0.85390  0.81220  Biso   1.000  N
  C101     1.0000 0.10650  0.57180  0.23560  Biso   1.000  C
  C102     1.0000 0.89350  0.07180  0.26440  Biso   1.000  C
  C103     1.0000 0.89350  0.42820  0.76440  Biso   1.000  C
  C104     1.0000 0.10650  0.92820  0.73560  Biso   1.000  C
  C105     1.0000 0.12040  0.63210  0.30746  Biso   1.000  C
  C106     1.0000 0.87960  0.13210  0.19254  Biso   1.000  C
  C107     1.0000 0.87960  0.36790  0.69254  Biso   1.000  C
  C108     1.0000 0.12040  0.86790  0.80746  Biso   1.000  C
  H141     1.0000 0.07900  0.64680  0.33030  Biso   1.000  H
  H142     1.0000 0.92100  0.14680  0.16970  Biso   1.000  H
  H143     1.0000 0.92100  0.35320  0.66970  Biso   1.000  H
  H144     1.0000 0.07900  0.85320  0.83030  Biso   1.000  H
  C109     1.0000 0.04870  0.59680  0.27034  Biso   1.000  C
  C110     1.0000 0.95130  0.09680  0.22966  Biso   1.000  C
  C111     1.0000 0.95130  0.40320  0.72966  Biso   1.000  C
  C112     1.0000 0.04870  0.90320  0.77034  Biso   1.000  C
  H145     1.0000 0.96090  0.58980  0.26860  Biso   1.000  H
  H146     1.0000 0.03910  0.08980  0.23140  Biso   1.000  H
  H147     1.0000 0.03910  0.41020  0.73140  Biso   1.000  H
  H148     1.0000 0.96090  0.91020  0.76860  Biso   1.000  H
  C113     1.0000 0.23520  0.58640  0.24068  Biso   1.000  C
  C114     1.0000 0.76480  0.08640  0.25932  Biso   1.000  C
  C115     1.0000 0.76480  0.41360  0.75932  Biso   1.000  C
  C116     1.0000 0.23520  0.91360  0.74068  Biso   1.000  C
  H149     1.0000 0.27890  0.57140  0.21840  Biso   1.000  H
  H150     1.0000 0.72110  0.07140  0.28160  Biso   1.000  H
  H151     1.0000 0.72110  0.42860  0.78160  Biso   1.000  H
  H152     1.0000 0.27890  0.92860  0.71840  Biso   1.000  H
  C117     1.0000 0.30080  0.62280  0.27840  Biso   1.000  C
  C118     1.0000 0.69920  0.12280  0.22160  Biso   1.000  C
  C119     1.0000 0.69920  0.37720  0.72160  Biso   1.000  C
  C120     1.0000 0.30080  0.87720  0.77840  Biso   1.000  C
  H153     1.0000 0.38850  0.63180  0.28060  Biso   1.000  H
  H154     1.0000 0.61150  0.13180  0.21940  Biso   1.000  H
  H155     1.0000 0.61150  0.36820  0.71940  Biso   1.000  H
  H156     1.0000 0.38850  0.86820  0.78060  Biso   1.000  H
