data_image0
_cell_length_a       7.719
_cell_length_b       11.6921
_cell_length_c       12.1682
_cell_angle_alpha    79.475
_cell_angle_beta     80.666
_cell_angle_gamma    72.687

_symmetry_space_group_name_H-M    "P 1"
_symmetry_int_tables_number       1

loop_
  _symmetry_equiv_pos_as_xyz
  'x, y, z'

loop_
  _atom_site_label
  _atom_site_occupancy
  _atom_site_fract_x
  _atom_site_fract_y
  _atom_site_fract_z
  _atom_site_thermal_displace_type
  _atom_site_B_iso_or_equiv
  _atom_site_type_symbol
  Cu1      1.0000 0.21420  0.43729  0.52519  Biso   1.000  Cu
  Cu2      1.0000 0.78580  0.56271  0.47481  Biso   1.000  Cu
  O1       1.0000 0.27273  0.42127  0.36868  Biso   1.000  O
  O2       1.0000 0.72727  0.57873  0.63132  Biso   1.000  O
  O3       1.0000 0.37725  0.28160  0.56490  Biso   1.000  O
  O4       1.0000 0.62275  0.71840  0.43510  Biso   1.000  O
  O5       1.0000 0.82762  0.54058  0.31917  Biso   1.000  O
  O6       1.0000 0.17238  0.45942  0.68083  Biso   1.000  O
  O7       1.0000 0.92728  0.39768  0.51426  Biso   1.000  O
  O8       1.0000 0.07272  0.60232  0.48574  Biso   1.000  O
  C1       1.0000 0.42729  0.36339  0.19661  Biso   1.000  C
  C2       1.0000 0.57271  0.63661  0.80339  Biso   1.000  C
  H1       1.0000 0.34300  0.32610  0.17400  Biso   1.000  H
  H2       1.0000 0.65700  0.67390  0.82600  Biso   1.000  H
  H3       1.0000 0.55260  0.32430  0.16680  Biso   1.000  H
  H4       1.0000 0.44740  0.67570  0.83320  Biso   1.000  H
  H5       1.0000 0.39590  0.44980  0.16680  Biso   1.000  H
  H6       1.0000 0.60410  0.55020  0.83320  Biso   1.000  H
  C3       1.0000 0.41239  0.34793  0.32354  Biso   1.000  C
  C4       1.0000 0.58761  0.65207  0.67646  Biso   1.000  C
  C5       1.0000 0.54215  0.25464  0.38258  Biso   1.000  C
  C6       1.0000 0.45785  0.74536  0.61742  Biso   1.000  C
  C7       1.0000 0.50738  0.22204  0.49995  Biso   1.000  C
  C8       1.0000 0.49262  0.77796  0.50005  Biso   1.000  C
  C9       1.0000 0.61963  0.10516  0.55857  Biso   1.000  C
  C10      1.0000 0.38037  0.89484  0.44143  Biso   1.000  C
  H7       1.0000 0.65250  0.11970  0.62820  Biso   1.000  H
  H8       1.0000 0.34750  0.88030  0.37180  Biso   1.000  H
  H9       1.0000 0.73100  0.07370  0.50920  Biso   1.000  H
  H10      1.0000 0.26900  0.92630  0.49080  Biso   1.000  H
  H11      1.0000 0.54840  0.04600  0.57640  Biso   1.000  H
  H12      1.0000 0.45160  0.95400  0.42360  Biso   1.000  H
  C11      1.0000 0.85970  0.45038  0.15766  Biso   1.000  C
  C12      1.0000 0.14030  0.54962  0.84234  Biso   1.000  C
  H13      1.0000 0.74500  0.50540  0.13350  Biso   1.000  H
  H14      1.0000 0.25500  0.49460  0.86650  Biso   1.000  H
  H15      1.0000 0.87630  0.37030  0.13700  Biso   1.000  H
  H16      1.0000 0.12370  0.62970  0.86300  Biso   1.000  H
  H17      1.0000 0.96180  0.48210  0.12060  Biso   1.000  H
  H18      1.0000 0.03820  0.51790  0.87940  Biso   1.000  H
  C13      1.0000 0.85341  0.44016  0.28384  Biso   1.000  C
  C14      1.0000 0.14659  0.55984  0.71616  Biso   1.000  C
  C15      1.0000 0.88358  0.32499  0.35205  Biso   1.000  C
  C16      1.0000 0.11642  0.67501  0.64795  Biso   1.000  C
  C17      1.0000 0.93684  0.31030  0.46013  Biso   1.000  C
  C18      1.0000 0.06316  0.68970  0.53987  Biso   1.000  C
  C19      1.0000 0.02318  0.18682  0.52059  Biso   1.000  C
  C20      1.0000 0.97682  0.81318  0.47941  Biso   1.000  C
  H19      1.0000 0.15070  0.17980  0.52780  Biso   1.000  H
  H20      1.0000 0.84930  0.82020  0.47220  Biso   1.000  H
  H21      1.0000 0.01870  0.12470  0.47770  Biso   1.000  H
  H22      1.0000 0.98130  0.87530  0.52230  Biso   1.000  H
  H23      1.0000 0.95640  0.17560  0.59560  Biso   1.000  H
  H24      1.0000 0.04360  0.82440  0.40440  Biso   1.000  H
  C21      1.0000 0.71191  0.18343  0.31931  Biso   1.000  C
  C22      1.0000 0.28809  0.81657  0.68069  Biso   1.000  C
  C23      1.0000 0.87657  0.21684  0.30492  Biso   1.000  C
  C24      1.0000 0.12343  0.78316  0.69508  Biso   1.000  C
  C25      1.0000 0.03258  0.14638  0.24745  Biso   1.000  C
  C26      1.0000 0.96742  0.85362  0.75255  Biso   1.000  C
  H25      1.0000 0.14350  0.16860  0.23740  Biso   1.000  H
  H26      1.0000 0.85650  0.83140  0.76260  Biso   1.000  H
  C27      1.0000 0.02898  0.04450  0.20471  Biso   1.000  C
  C28      1.0000 0.97102  0.95550  0.79529  Biso   1.000  C
  H27      1.0000 0.13650  0.99770  0.16640  Biso   1.000  H
  H28      1.0000 0.86350  0.00230  0.83360  Biso   1.000  H
  C29      1.0000 0.86647  0.01178  0.21858  Biso   1.000  C
  C30      1.0000 0.13353  0.98822  0.78142  Biso   1.000  C
  H29      1.0000 0.86240  0.94250  0.18980  Biso   1.000  H
  H30      1.0000 0.13760  0.05750  0.81020  Biso   1.000  H
  C31      1.0000 0.70990  0.08139  0.27491  Biso   1.000  C
  C32      1.0000 0.29010  0.91861  0.72509  Biso   1.000  C
  H31      1.0000 0.59920  0.05920  0.28340  Biso   1.000  H
  H32      1.0000 0.40080  0.94080  0.71660  Biso   1.000  H
  O9       1.0000 0.44380  0.09613  0.08090  Biso   1.000  O
  O10      1.0000 0.55620  0.90387  0.91910  Biso   1.000  O
  O11      1.0000 0.26847  0.16509  0.94795  Biso   1.000  O
  O12      1.0000 0.73153  0.83491  0.05205  Biso   1.000  O
  N1       1.0000 0.41061  0.15284  0.98760  Biso   1.000  N
  N2       1.0000 0.58939  0.84716  0.01240  Biso   1.000  N
  C33      1.0000 0.54823  0.20830  0.91996  Biso   1.000  C
  C34      1.0000 0.45177  0.79170  0.08004  Biso   1.000  C
  C35      1.0000 0.70457  0.20036  0.96697  Biso   1.000  C
  C36      1.0000 0.29543  0.79964  0.03303  Biso   1.000  C
  H33      1.0000 0.72320  0.15900  0.04080  Biso   1.000  H
  H34      1.0000 0.27680  0.84100  0.95920  Biso   1.000  H
  C37      1.0000 0.83344  0.25468  0.90292  Biso   1.000  C
  C38      1.0000 0.16656  0.74532  0.09708  Biso   1.000  C
  H35      1.0000 0.94090  0.25140  0.93340  Biso   1.000  H
  H36      1.0000 0.05910  0.74860  0.06660  Biso   1.000  H
  C39      1.0000 0.80501  0.31381  0.79434  Biso   1.000  C
  C40      1.0000 0.19499  0.68619  0.20566  Biso   1.000  C
  H37      1.0000 0.89330  0.35060  0.75090  Biso   1.000  H
  H38      1.0000 0.10670  0.64940  0.24910  Biso   1.000  H
  C41      1.0000 0.64752  0.31916  0.74925  Biso   1.000  C
  C42      1.0000 0.35248  0.68084  0.25075  Biso   1.000  C
  H39      1.0000 0.62960  0.35910  0.67500  Biso   1.000  H
  H40      1.0000 0.37040  0.64090  0.32500  Biso   1.000  H
  C43      1.0000 0.51633  0.26662  0.81184  Biso   1.000  C
  C44      1.0000 0.48367  0.73338  0.18816  Biso   1.000  C
  H41      1.0000 0.40830  0.27040  0.78170  Biso   1.000  H
  H42      1.0000 0.59170  0.72960  0.21830  Biso   1.000  H
