data_image0
_cell_length_a       7.5492
_cell_length_b       11.4219
_cell_length_c       11.9423
_cell_angle_alpha    116.99
_cell_angle_beta     93.97
_cell_angle_gamma    105.046

_symmetry_space_group_name_H-M    "P 1"
_symmetry_int_tables_number       1

loop_
  _symmetry_equiv_pos_as_xyz
  'x, y, z'

loop_
  _atom_site_label
  _atom_site_occupancy
  _atom_site_fract_x
  _atom_site_fract_y
  _atom_site_fract_z
  _atom_site_thermal_displace_type
  _atom_site_B_iso_or_equiv
  _atom_site_type_symbol
  Cu1      1.0000 0.22962  0.57047  0.03573  Biso   1.000  Cu
  Cu2      1.0000 0.77038  0.42953  0.96427  Biso   1.000  Cu
  O1       1.0000 0.40925  0.74608  0.15855  Biso   1.000  O
  O2       1.0000 0.59075  0.25392  0.84145  Biso   1.000  O
  O3       1.0000 0.22741  0.50410  0.15674  Biso   1.000  O
  O4       1.0000 0.77259  0.49590  0.84326  Biso   1.000  O
  O5       1.0000 0.93742  0.61093  0.09091  Biso   1.000  O
  O6       1.0000 0.06258  0.38907  0.90909  Biso   1.000  O
  O7       1.0000 0.74775  0.37402  0.09351  Biso   1.000  O
  O8       1.0000 0.25225  0.62598  0.90649  Biso   1.000  O
  C1       1.0000 0.64200  0.92173  0.33778  Biso   1.000  C
  C2       1.0000 0.35800  0.07827  0.66222  Biso   1.000  C
  H1       1.0000 0.56950  0.98410  0.37670  Biso   1.000  H
  H2       1.0000 0.43050  0.01590  0.62330  Biso   1.000  H
  H3       1.0000 0.73420  0.93070  0.40560  Biso   1.000  H
  H4       1.0000 0.26580  0.06930  0.59440  Biso   1.000  H
  H5       1.0000 0.70750  0.94650  0.27960  Biso   1.000  H
  H6       1.0000 0.29250  0.05350  0.72040  Biso   1.000  H
  C3       1.0000 0.51080  0.77348  0.26283  Biso   1.000  C
  C4       1.0000 0.48920  0.22652  0.73717  Biso   1.000  C
  C5       1.0000 0.50010  0.68213  0.31302  Biso   1.000  C
  C6       1.0000 0.49990  0.31787  0.68698  Biso   1.000  C
  C7       1.0000 0.34820  0.55666  0.26091  Biso   1.000  C
  C8       1.0000 0.65180  0.44334  0.73909  Biso   1.000  C
  C9       1.0000 0.30960  0.47490  0.33134  Biso   1.000  C
  C10      1.0000 0.69040  0.52510  0.66866  Biso   1.000  C
  H7       1.0000 0.29020  0.37670  0.27180  Biso   1.000  H
  H8       1.0000 0.70980  0.62330  0.72820  Biso   1.000  H
  H9       1.0000 0.41690  0.51100  0.40240  Biso   1.000  H
  H10      1.0000 0.58310  0.48900  0.59760  Biso   1.000  H
  H11      1.0000 0.19660  0.48360  0.36560  Biso   1.000  H
  H12      1.0000 0.80340  0.51640  0.63440  Biso   1.000  H
  C11      1.0000 0.04360  0.82331  0.28282  Biso   1.000  C
  C12      1.0000 0.95640  0.17669  0.71718  Biso   1.000  C
  H13      1.0000 0.00410  0.86970  0.23880  Biso   1.000  H
  H14      1.0000 0.99590  0.13030  0.76120  Biso   1.000  H
  H15      1.0000 0.02280  0.86470  0.37070  Biso   1.000  H
  H16      1.0000 0.97720  0.13530  0.62930  Biso   1.000  H
  H17      1.0000 0.17740  0.83480  0.28590  Biso   1.000  H
  H18      1.0000 0.82260  0.16520  0.71410  Biso   1.000  H
  C13      1.0000 0.93130  0.67153  0.21109  Biso   1.000  C
  C14      1.0000 0.06870  0.32847  0.78891  Biso   1.000  C
  C15      1.0000 0.83690  0.60414  0.27356  Biso   1.000  C
  C16      1.0000 0.16310  0.39586  0.72644  Biso   1.000  C
  C17      1.0000 0.76960  0.45645  0.21255  Biso   1.000  C
  C18      1.0000 0.23040  0.54355  0.78745  Biso   1.000  C
  C19      1.0000 0.72700  0.38449  0.29172  Biso   1.000  C
  C20      1.0000 0.27300  0.61551  0.70828  Biso   1.000  C
  H19      1.0000 0.81800  0.33650  0.29010  Biso   1.000  H
  H20      1.0000 0.18200  0.66350  0.70990  Biso   1.000  H
  H21      1.0000 0.73540  0.45360  0.38080  Biso   1.000  H
  H22      1.0000 0.26460  0.54640  0.61920  Biso   1.000  H
  H23      1.0000 0.59980  0.31670  0.25570  Biso   1.000  H
  H24      1.0000 0.40020  0.68330  0.74430  Biso   1.000  H
  C21      1.0000 0.64820  0.72229  0.42666  Biso   1.000  C
  C22      1.0000 0.35180  0.27771  0.57334  Biso   1.000  C
  C23      1.0000 0.81370  0.68776  0.40771  Biso   1.000  C
  C24      1.0000 0.18630  0.31224  0.59229  Biso   1.000  C
  C25      1.0000 0.95360  0.73258  0.51553  Biso   1.000  C
  C26      1.0000 0.04640  0.26742  0.48447  Biso   1.000  C
  H25      1.0000 0.06590  0.71010  0.50340  Biso   1.000  H
  H26      1.0000 0.93410  0.28990  0.49660  Biso   1.000  H
  C27      1.0000 0.93080  0.80932  0.63989  Biso   1.000  C
  C28      1.0000 0.06920  0.19068  0.36011  Biso   1.000  C
  H27      1.0000 0.02800  0.84040  0.71180  Biso   1.000  H
  H28      1.0000 0.97200  0.15960  0.28820  Biso   1.000  H
  C29      1.0000 0.76580  0.84023  0.65858  Biso   1.000  C
  C30      1.0000 0.23420  0.15977  0.34142  Biso   1.000  C
  H29      1.0000 0.74840  0.89090  0.74330  Biso   1.000  H
  H30      1.0000 0.25160  0.10910  0.25670  Biso   1.000  H
  C31      1.0000 0.62610  0.79676  0.55279  Biso   1.000  C
  C32      1.0000 0.37390  0.20324  0.44721  Biso   1.000  C
  H31      1.0000 0.51310  0.81800  0.56620  Biso   1.000  H
  H32      1.0000 0.48690  0.18200  0.43380  Biso   1.000  H
  C33      1.0000 0.01960  0.91160  0.99180  Biso   1.000  C
  C34      1.0000 0.98040  0.08840  0.00820  Biso   1.000  C
  H33      1.0000 0.10820  0.86390  0.98310  Biso   1.000  H
  H34      1.0000 0.89180  0.13610  0.01690  Biso   1.000  H
  C35      1.0000 0.83710  0.85160  0.99690  Biso   1.000  C
  C36      1.0000 0.16290  0.14840  0.00310  Biso   1.000  C
  H35      1.0000 0.80090  0.76280  0.99170  Biso   1.000  H
  H36      1.0000 0.19910  0.23720  0.00830  Biso   1.000  H
  C37      1.0000 0.70740  0.92130  0.00960  Biso   1.000  C
  C38      1.0000 0.29260  0.07870  0.99040  Biso   1.000  C
  H37      1.0000 0.58270  0.88030  0.01310  Biso   1.000  H
  H38      1.0000 0.41730  0.11970  0.98690  Biso   1.000  H
  C39      1.0000 0.76030  0.05120  0.01710  Biso   1.000  C
  C40      1.0000 0.23970  0.94880  0.98290  Biso   1.000  C
  H39      1.0000 0.67170  0.09880  0.02580  Biso   1.000  H
  H40      1.0000 0.32830  0.90120  0.97420  Biso   1.000  H
  C41      1.0000 0.94290  0.11120  0.01200  Biso   1.000  C
  C42      1.0000 0.05710  0.88880  0.98800  Biso   1.000  C
  H41      1.0000 0.97900  0.19990  0.01720  Biso   1.000  H
  H42      1.0000 0.02100  0.80010  0.98280  Biso   1.000  H
  C43      1.0000 0.07250  0.04140  0.99930  Biso   1.000  C
  C44      1.0000 0.92750  0.95860  0.00070  Biso   1.000  C
  C45      1.0000 0.26620  0.10650  0.99440  Biso   1.000  C
  C46      1.0000 0.73380  0.89350  0.00560  Biso   1.000  C
  H43      1.0000 0.33960  0.04460  0.98550  Biso   1.000  H
  H44      1.0000 0.66040  0.95540  0.01450  Biso   1.000  H
  H45      1.0000 0.26340  0.12270  0.92060  Biso   1.000  H
  H46      1.0000 0.73660  0.87730  0.07940  Biso   1.000  H
  H47      1.0000 0.32440  0.19530  0.07400  Biso   1.000  H
  H48      1.0000 0.67560  0.80470  0.92600  Biso   1.000  H
  H49      1.0000 0.72140  0.80290  0.99880  Biso   1.000  H
  H50      1.0000 0.27860  0.19710  0.00120  Biso   1.000  H
  H51      1.0000 0.64520  0.88100  0.93390  Biso   1.000  H
  H52      1.0000 0.35480  0.11900  0.06610  Biso   1.000  H
  H53      1.0000 0.70620  0.95360  0.08720  Biso   1.000  H
  H54      1.0000 0.29380  0.04640  0.91280  Biso   1.000  H
