data_image0
_cell_length_a       8.67
_cell_length_b       11.963
_cell_length_c       12.116
_cell_angle_alpha    101.86
_cell_angle_beta     110.69
_cell_angle_gamma    101.23

_symmetry_space_group_name_H-M    "P 1"
_symmetry_int_tables_number       1

loop_
  _symmetry_equiv_pos_as_xyz
  'x, y, z'

loop_
  _atom_site_label
  _atom_site_occupancy
  _atom_site_fract_x
  _atom_site_fract_y
  _atom_site_fract_z
  _atom_site_thermal_displace_type
  _atom_site_B_iso_or_equiv
  _atom_site_type_symbol
  Cu1      1.0000 0.75121  0.35432  0.52477  Biso   1.000  Cu
  Cu2      1.0000 0.24879  0.64568  0.47523  Biso   1.000  Cu
  O1       1.0000 0.76150  0.22760  0.40200  Biso   1.000  O
  O2       1.0000 0.23850  0.77240  0.59800  Biso   1.000  O
  O3       1.0000 0.63310  0.41820  0.39930  Biso   1.000  O
  O4       1.0000 0.36690  0.58180  0.60070  Biso   1.000  O
  O5       1.0000 0.22480  0.49960  0.35830  Biso   1.000  O
  O6       1.0000 0.77520  0.50040  0.64170  Biso   1.000  O
  O7       1.0000 0.08400  0.68290  0.34060  Biso   1.000  O
  O8       1.0000 0.91600  0.31710  0.65940  Biso   1.000  O
  N1       1.0000 0.50220  0.25120  0.52910  Biso   1.000  N
  N2       1.0000 0.49780  0.74880  0.47090  Biso   1.000  N
  C1       1.0000 0.76430  0.11900  0.21830  Biso   1.000  C
  C2       1.0000 0.23570  0.88100  0.78170  Biso   1.000  C
  H1       1.0000 0.88020  0.11310  0.26150  Biso   1.000  H
  H2       1.0000 0.11980  0.88690  0.73850  Biso   1.000  H
  H3       1.0000 0.75030  0.12780  0.13700  Biso   1.000  H
  H4       1.0000 0.24970  0.87220  0.86300  Biso   1.000  H
  H5       1.0000 0.67840  0.04660  0.20800  Biso   1.000  H
  H6       1.0000 0.32160  0.95340  0.79200  Biso   1.000  H
  C3       1.0000 0.74000  0.22470  0.29200  Biso   1.000  C
  C4       1.0000 0.26000  0.77530  0.70800  Biso   1.000  C
  C5       1.0000 0.68550  0.31370  0.23260  Biso   1.000  C
  C6       1.0000 0.31450  0.68630  0.76740  Biso   1.000  C
  C7       1.0000 0.62760  0.39900  0.28850  Biso   1.000  C
  C8       1.0000 0.37240  0.60100  0.71150  Biso   1.000  C
  C9       1.0000 0.53680  0.47690  0.21940  Biso   1.000  C
  C10      1.0000 0.46320  0.52310  0.78060  Biso   1.000  C
  H7       1.0000 0.44890  0.49340  0.24820  Biso   1.000  H
  H8       1.0000 0.55110  0.50660  0.75180  Biso   1.000  H
  H9       1.0000 0.48200  0.43510  0.13050  Biso   1.000  H
  H10      1.0000 0.51800  0.56490  0.86950  Biso   1.000  H
  H11      1.0000 0.62140  0.55230  0.23510  Biso   1.000  H
  H12      1.0000 0.37860  0.44770  0.76490  Biso   1.000  H
  C11      1.0000 0.10640  0.32230  0.19830  Biso   1.000  C
  C12      1.0000 0.89360  0.67770  0.80170  Biso   1.000  C
  H13      1.0000 0.22720  0.32670  0.21610  Biso   1.000  H
  H14      1.0000 0.77280  0.67330  0.78390  Biso   1.000  H
  H15      1.0000 0.04050  0.30120  0.10880  Biso   1.000  H
  H16      1.0000 0.95950  0.69880  0.89120  Biso   1.000  H
  H17      1.0000 0.05850  0.26130  0.22990  Biso   1.000  H
  H18      1.0000 0.94150  0.73870  0.77010  Biso   1.000  H
  C13      1.0000 0.09590  0.43990  0.25910  Biso   1.000  C
  C14      1.0000 0.90410  0.56010  0.74090  Biso   1.000  C
  C15      1.0000 0.95230  0.48390  0.20140  Biso   1.000  C
  C16      1.0000 0.04770  0.51610  0.79860  Biso   1.000  C
  C17      1.0000 0.96610  0.60360  0.23950  Biso   1.000  C
  C18      1.0000 0.03390  0.39640  0.76050  Biso   1.000  C
  C19      1.0000 0.85240  0.65970  0.15820  Biso   1.000  C
  C20      1.0000 0.14760  0.34030  0.84180  Biso   1.000  C
  H19      1.0000 0.82920  0.72360  0.20930  Biso   1.000  H
  H20      1.0000 0.17080  0.27640  0.79070  Biso   1.000  H
  H21      1.0000 0.74340  0.59920  0.10120  Biso   1.000  H
  H22      1.0000 0.25660  0.40080  0.89880  Biso   1.000  H
  H23      1.0000 0.91000  0.69320  0.11070  Biso   1.000  H
  H24      1.0000 0.09000  0.30680  0.88930  Biso   1.000  H
  C21      1.0000 0.68220  0.31020  0.10730  Biso   1.000  C
  C22      1.0000 0.31780  0.68980  0.89270  Biso   1.000  C
  C23      1.0000 0.79880  0.39650  0.09130  Biso   1.000  C
  C24      1.0000 0.20120  0.60350  0.90870  Biso   1.000  C
  C25      1.0000 0.78160  0.39360  0.97570  Biso   1.000  C
  C26      1.0000 0.21840  0.60640  0.02430  Biso   1.000  C
  H25      1.0000 0.86100  0.45270  0.96500  Biso   1.000  H
  H26      1.0000 0.13900  0.54730  0.03500  Biso   1.000  H
  C27      1.0000 0.65250  0.30780  0.87220  Biso   1.000  C
  C28      1.0000 0.34750  0.69220  0.12780  Biso   1.000  C
  H27      1.0000 0.64470  0.30810  0.79200  Biso   1.000  H
  H28      1.0000 0.35530  0.69190  0.20800  Biso   1.000  H
  C29      1.0000 0.53730  0.22350  0.88550  Biso   1.000  C
  C30      1.0000 0.46270  0.77650  0.11450  Biso   1.000  C
  H29      1.0000 0.45060  0.16250  0.81500  Biso   1.000  H
  H30      1.0000 0.54940  0.83750  0.18500  Biso   1.000  H
  C31      1.0000 0.54690  0.22670  0.00240  Biso   1.000  C
  C32      1.0000 0.45310  0.77330  0.99760  Biso   1.000  C
  H31      1.0000 0.46080  0.17160  0.01170  Biso   1.000  H
  H32      1.0000 0.53920  0.82840  0.98830  Biso   1.000  H
  C33      1.0000 0.49150  0.14470  0.55630  Biso   1.000  C
  C34      1.0000 0.50850  0.85530  0.44370  Biso   1.000  C
  H33      1.0000 0.58680  0.11300  0.57220  Biso   1.000  H
  H34      1.0000 0.41320  0.88700  0.42780  Biso   1.000  H
  C35      1.0000 0.34590  0.08530  0.56020  Biso   1.000  C
  C36      1.0000 0.65410  0.91470  0.43980  Biso   1.000  C
  H35      1.0000 0.34180  0.01190  0.57930  Biso   1.000  H
  H36      1.0000 0.65820  0.98810  0.42070  Biso   1.000  H
  C37      1.0000 0.19890  0.12600  0.53760  Biso   1.000  C
  C38      1.0000 0.80110  0.87400  0.46240  Biso   1.000  C
  C39      1.0000 0.21880  0.23550  0.51000  Biso   1.000  C
  C40      1.0000 0.78120  0.76450  0.49000  Biso   1.000  C
  H37      1.0000 0.12440  0.26810  0.49230  Biso   1.000  H
  H38      1.0000 0.87560  0.73190  0.50770  Biso   1.000  H
  C41      1.0000 0.36810  0.29710  0.50750  Biso   1.000  C
  C42      1.0000 0.63190  0.70290  0.49250  Biso   1.000  C
  H39      1.0000 0.37680  0.37170  0.49070  Biso   1.000  H
  H40      1.0000 0.62320  0.62830  0.50930  Biso   1.000  H
  C43      1.0000 0.04140  0.06430  0.54650  Biso   1.000  C
  C44      1.0000 0.95860  0.93570  0.45350  Biso   1.000  C
  H41      1.0000 0.95740  0.11070  0.52890  Biso   1.000  H
  H42      1.0000 0.04260  0.88930  0.47110  Biso   1.000  H
  H43      1.0000 0.06980  0.05950  0.63170  Biso   1.000  H
  H44      1.0000 0.93020  0.94050  0.36830  Biso   1.000  H
