data_image0
_cell_length_a       20.978
_cell_length_b       11.525
_cell_length_c       16.98
_cell_angle_alpha    90
_cell_angle_beta     90
_cell_angle_gamma    90

_symmetry_space_group_name_H-M    "P 1"
_symmetry_int_tables_number       1

loop_
  _symmetry_equiv_pos_as_xyz
  'x, y, z'

loop_
  _atom_site_label
  _atom_site_occupancy
  _atom_site_fract_x
  _atom_site_fract_y
  _atom_site_fract_z
  _atom_site_thermal_displace_type
  _atom_site_B_iso_or_equiv
  _atom_site_type_symbol
  Cu1      1.0000 0.50000  0.25000  0.86313  Biso   1.000  Cu
  Cu2      1.0000 0.50000  0.75000  0.13687  Biso   1.000  Cu
  Cu3      1.0000 0.00000  0.25000  0.13687  Biso   1.000  Cu
  Cu4      1.0000 0.00000  0.75000  0.86313  Biso   1.000  Cu
  Cu5      1.0000 0.50000  0.25000  0.54992  Biso   1.000  Cu
  Cu6      1.0000 0.50000  0.75000  0.45008  Biso   1.000  Cu
  Cu7      1.0000 0.00000  0.25000  0.45008  Biso   1.000  Cu
  Cu8      1.0000 0.00000  0.75000  0.54992  Biso   1.000  Cu
  O1       1.0000 0.43620  0.13150  0.85260  Biso   1.000  O
  O2       1.0000 0.56380  0.36850  0.85260  Biso   1.000  O
  O3       1.0000 0.43620  0.86850  0.14740  Biso   1.000  O
  O4       1.0000 0.06380  0.13150  0.14740  Biso   1.000  O
  O5       1.0000 0.93620  0.63150  0.85260  Biso   1.000  O
  O6       1.0000 0.06380  0.86850  0.85260  Biso   1.000  O
  O7       1.0000 0.93620  0.36850  0.14740  Biso   1.000  O
  O8       1.0000 0.56380  0.63150  0.14740  Biso   1.000  O
  O9       1.0000 0.56380  0.86850  0.14740  Biso   1.000  O
  O10      1.0000 0.43620  0.63150  0.14740  Biso   1.000  O
  O11      1.0000 0.56380  0.13150  0.85260  Biso   1.000  O
  O12      1.0000 0.93620  0.86850  0.85260  Biso   1.000  O
  O13      1.0000 0.06380  0.36850  0.14740  Biso   1.000  O
  O14      1.0000 0.93620  0.13150  0.14740  Biso   1.000  O
  O15      1.0000 0.06380  0.63150  0.85260  Biso   1.000  O
  O16      1.0000 0.43620  0.36850  0.85260  Biso   1.000  O
  O17      1.0000 0.43680  0.13050  0.56270  Biso   1.000  O
  O18      1.0000 0.56320  0.36950  0.56270  Biso   1.000  O
  O19      1.0000 0.43680  0.86950  0.43730  Biso   1.000  O
  O20      1.0000 0.06320  0.13050  0.43730  Biso   1.000  O
  O21      1.0000 0.93680  0.63050  0.56270  Biso   1.000  O
  O22      1.0000 0.06320  0.86950  0.56270  Biso   1.000  O
  O23      1.0000 0.93680  0.36950  0.43730  Biso   1.000  O
  O24      1.0000 0.56320  0.63050  0.43730  Biso   1.000  O
  O25      1.0000 0.56320  0.86950  0.43730  Biso   1.000  O
  O26      1.0000 0.43680  0.63050  0.43730  Biso   1.000  O
  O27      1.0000 0.56320  0.13050  0.56270  Biso   1.000  O
  O28      1.0000 0.93680  0.86950  0.56270  Biso   1.000  O
  O29      1.0000 0.06320  0.36950  0.43730  Biso   1.000  O
  O30      1.0000 0.93680  0.13050  0.43730  Biso   1.000  O
  O31      1.0000 0.06320  0.63050  0.56270  Biso   1.000  O
  O32      1.0000 0.43680  0.36950  0.56270  Biso   1.000  O
  N1       1.0000 0.50000  0.25000  0.41710  Biso   1.000  N
  N2       1.0000 0.50000  0.75000  0.58290  Biso   1.000  N
  N3       1.0000 0.00000  0.25000  0.58290  Biso   1.000  N
  N4       1.0000 0.00000  0.75000  0.41710  Biso   1.000  N
  N5       1.0000 0.50000  0.25000  0.99850  Biso   1.000  N
  N6       1.0000 0.50000  0.75000  0.00150  Biso   1.000  N
  N7       1.0000 0.00000  0.25000  0.00150  Biso   1.000  N
  N8       1.0000 0.00000  0.75000  0.99850  Biso   1.000  N
  C1       1.0000 0.34660  0.03410  0.81090  Biso   1.000  C
  C2       1.0000 0.65340  0.46590  0.81090  Biso   1.000  C
  C3       1.0000 0.34660  0.96590  0.18910  Biso   1.000  C
  C4       1.0000 0.15340  0.03410  0.18910  Biso   1.000  C
  C5       1.0000 0.84660  0.53410  0.81090  Biso   1.000  C
  C6       1.0000 0.15340  0.96590  0.81090  Biso   1.000  C
  C7       1.0000 0.84660  0.46590  0.18910  Biso   1.000  C
  C8       1.0000 0.65340  0.53410  0.18910  Biso   1.000  C
  C9       1.0000 0.65340  0.96590  0.18910  Biso   1.000  C
  C10      1.0000 0.34660  0.53410  0.18910  Biso   1.000  C
  C11      1.0000 0.65340  0.03410  0.81090  Biso   1.000  C
  C12      1.0000 0.84660  0.96590  0.81090  Biso   1.000  C
  C13      1.0000 0.15340  0.46590  0.18910  Biso   1.000  C
  C14      1.0000 0.84660  0.03410  0.18910  Biso   1.000  C
  C15      1.0000 0.15340  0.53410  0.81090  Biso   1.000  C
  C16      1.0000 0.34660  0.46590  0.81090  Biso   1.000  C
  H1       1.0000 0.37510  0.97270  0.79200  Biso   1.000  H
  H2       1.0000 0.62490  0.52730  0.79200  Biso   1.000  H
  H3       1.0000 0.37510  0.02730  0.20800  Biso   1.000  H
  H4       1.0000 0.12490  0.97270  0.20800  Biso   1.000  H
  H5       1.0000 0.87510  0.47270  0.79200  Biso   1.000  H
  H6       1.0000 0.12490  0.02730  0.79200  Biso   1.000  H
  H7       1.0000 0.87510  0.52730  0.20800  Biso   1.000  H
  H8       1.0000 0.62490  0.47270  0.20800  Biso   1.000  H
  H9       1.0000 0.62490  0.02730  0.20800  Biso   1.000  H
  H10      1.0000 0.37510  0.47270  0.20800  Biso   1.000  H
  H11      1.0000 0.62490  0.97270  0.79200  Biso   1.000  H
  H12      1.0000 0.87510  0.02730  0.79200  Biso   1.000  H
  H13      1.0000 0.12490  0.52730  0.20800  Biso   1.000  H
  H14      1.0000 0.87510  0.97270  0.20800  Biso   1.000  H
  H15      1.0000 0.12490  0.47270  0.79200  Biso   1.000  H
  H16      1.0000 0.37510  0.52730  0.79200  Biso   1.000  H
  H17      1.0000 0.31180  0.04500  0.77320  Biso   1.000  H
  H18      1.0000 0.68820  0.45500  0.77320  Biso   1.000  H
  H19      1.0000 0.31180  0.95500  0.22680  Biso   1.000  H
  H20      1.0000 0.18820  0.04500  0.22680  Biso   1.000  H
  H21      1.0000 0.81180  0.54500  0.77320  Biso   1.000  H
  H22      1.0000 0.18820  0.95500  0.77320  Biso   1.000  H
  H23      1.0000 0.81180  0.45500  0.22680  Biso   1.000  H
  H24      1.0000 0.68820  0.54500  0.22680  Biso   1.000  H
  H25      1.0000 0.68820  0.95500  0.22680  Biso   1.000  H
  H26      1.0000 0.31180  0.54500  0.22680  Biso   1.000  H
  H27      1.0000 0.68820  0.04500  0.77320  Biso   1.000  H
  H28      1.0000 0.81180  0.95500  0.77320  Biso   1.000  H
  H29      1.0000 0.18820  0.45500  0.22680  Biso   1.000  H
  H30      1.0000 0.81180  0.04500  0.22680  Biso   1.000  H
  H31      1.0000 0.18820  0.54500  0.77320  Biso   1.000  H
  H32      1.0000 0.31180  0.45500  0.77320  Biso   1.000  H
  H33      1.0000 0.32910  0.01200  0.86220  Biso   1.000  H
  H34      1.0000 0.67090  0.48800  0.86220  Biso   1.000  H
  H35      1.0000 0.32910  0.98800  0.13780  Biso   1.000  H
  H36      1.0000 0.17090  0.01200  0.13780  Biso   1.000  H
  H37      1.0000 0.82910  0.51200  0.86220  Biso   1.000  H
  H38      1.0000 0.17090  0.98800  0.86220  Biso   1.000  H
  H39      1.0000 0.82910  0.48800  0.13780  Biso   1.000  H
  H40      1.0000 0.67090  0.51200  0.13780  Biso   1.000  H
  H41      1.0000 0.67090  0.98800  0.13780  Biso   1.000  H
  H42      1.0000 0.32910  0.51200  0.13780  Biso   1.000  H
  H43      1.0000 0.67090  0.01200  0.86220  Biso   1.000  H
  H44      1.0000 0.82910  0.98800  0.86220  Biso   1.000  H
  H45      1.0000 0.17090  0.48800  0.13780  Biso   1.000  H
  H46      1.0000 0.82910  0.01200  0.13780  Biso   1.000  H
  H47      1.0000 0.17090  0.51200  0.86220  Biso   1.000  H
  H48      1.0000 0.32910  0.48800  0.86220  Biso   1.000  H
  C17      1.0000 0.38300  0.14420  0.81890  Biso   1.000  C
  C18      1.0000 0.61700  0.35580  0.81890  Biso   1.000  C
  C19      1.0000 0.38300  0.85580  0.18110  Biso   1.000  C
  C20      1.0000 0.11700  0.14420  0.18110  Biso   1.000  C
  C21      1.0000 0.88300  0.64420  0.81890  Biso   1.000  C
  C22      1.0000 0.11700  0.85580  0.81890  Biso   1.000  C
  C23      1.0000 0.88300  0.35580  0.18110  Biso   1.000  C
  C24      1.0000 0.61700  0.64420  0.18110  Biso   1.000  C
  C25      1.0000 0.61700  0.85580  0.18110  Biso   1.000  C
  C26      1.0000 0.38300  0.64420  0.18110  Biso   1.000  C
  C27      1.0000 0.61700  0.14420  0.81890  Biso   1.000  C
  C28      1.0000 0.88300  0.85580  0.81890  Biso   1.000  C
  C29      1.0000 0.11700  0.35580  0.18110  Biso   1.000  C
  C30      1.0000 0.88300  0.14420  0.18110  Biso   1.000  C
  C31      1.0000 0.11700  0.64420  0.81890  Biso   1.000  C
  C32      1.0000 0.38300  0.35580  0.81890  Biso   1.000  C
  C33      1.0000 0.35650  0.25000  0.79420  Biso   1.000  C
  C34      1.0000 0.64350  0.25000  0.79420  Biso   1.000  C
  C35      1.0000 0.35650  0.75000  0.20580  Biso   1.000  C
  C36      1.0000 0.14350  0.25000  0.20580  Biso   1.000  C
  C37      1.0000 0.85650  0.75000  0.79420  Biso   1.000  C
  C38      1.0000 0.14350  0.75000  0.79420  Biso   1.000  C
  C39      1.0000 0.85650  0.25000  0.20580  Biso   1.000  C
  C40      1.0000 0.64350  0.75000  0.20580  Biso   1.000  C
  C41      1.0000 0.29340  0.25000  0.74910  Biso   1.000  C
  C42      1.0000 0.70660  0.25000  0.74910  Biso   1.000  C
  C43      1.0000 0.29340  0.75000  0.25090  Biso   1.000  C
  C44      1.0000 0.20660  0.25000  0.25090  Biso   1.000  C
  C45      1.0000 0.79340  0.75000  0.74910  Biso   1.000  C
  C46      1.0000 0.20660  0.75000  0.74910  Biso   1.000  C
  C47      1.0000 0.79340  0.25000  0.25090  Biso   1.000  C
  C48      1.0000 0.70660  0.75000  0.25090  Biso   1.000  C
  C49      1.0000 0.29340  0.25000  0.66250  Biso   1.000  C
  C50      1.0000 0.70660  0.25000  0.66250  Biso   1.000  C
  C51      1.0000 0.29340  0.75000  0.33750  Biso   1.000  C
  C52      1.0000 0.20660  0.25000  0.33750  Biso   1.000  C
  C53      1.0000 0.79340  0.75000  0.66250  Biso   1.000  C
  C54      1.0000 0.20660  0.75000  0.66250  Biso   1.000  C
  C55      1.0000 0.79340  0.25000  0.33750  Biso   1.000  C
  C56      1.0000 0.70660  0.75000  0.33750  Biso   1.000  C
  C57      1.0000 0.23420  0.25000  0.62820  Biso   1.000  C
  C58      1.0000 0.76580  0.25000  0.62820  Biso   1.000  C
  C59      1.0000 0.23420  0.75000  0.37180  Biso   1.000  C
  C60      1.0000 0.26580  0.25000  0.37180  Biso   1.000  C
  C61      1.0000 0.73420  0.75000  0.62820  Biso   1.000  C
  C62      1.0000 0.26580  0.75000  0.62820  Biso   1.000  C
  C63      1.0000 0.73420  0.25000  0.37180  Biso   1.000  C
  C64      1.0000 0.76580  0.75000  0.37180  Biso   1.000  C
  H49      1.0000 0.23270  0.25000  0.57230  Biso   1.000  H
  H50      1.0000 0.76730  0.25000  0.57230  Biso   1.000  H
  H51      1.0000 0.23270  0.75000  0.42770  Biso   1.000  H
  H52      1.0000 0.26730  0.25000  0.42770  Biso   1.000  H
  H53      1.0000 0.73270  0.75000  0.57230  Biso   1.000  H
  H54      1.0000 0.26730  0.75000  0.57230  Biso   1.000  H
  H55      1.0000 0.73270  0.25000  0.42770  Biso   1.000  H
  H56      1.0000 0.76730  0.75000  0.42770  Biso   1.000  H
  C65      1.0000 0.17650  0.25000  0.66780  Biso   1.000  C
  C66      1.0000 0.82350  0.25000  0.66780  Biso   1.000  C
  C67      1.0000 0.17650  0.75000  0.33220  Biso   1.000  C
  C68      1.0000 0.32350  0.25000  0.33220  Biso   1.000  C
  C69      1.0000 0.67650  0.75000  0.66780  Biso   1.000  C
  C70      1.0000 0.32350  0.75000  0.66780  Biso   1.000  C
  C71      1.0000 0.67650  0.25000  0.33220  Biso   1.000  C
  C72      1.0000 0.82350  0.75000  0.33220  Biso   1.000  C
  H57      1.0000 0.13670  0.25000  0.64100  Biso   1.000  H
  H58      1.0000 0.86330  0.25000  0.64100  Biso   1.000  H
  H59      1.0000 0.13670  0.75000  0.35900  Biso   1.000  H
  H60      1.0000 0.36330  0.25000  0.35900  Biso   1.000  H
  H61      1.0000 0.63670  0.75000  0.64100  Biso   1.000  H
  H62      1.0000 0.36330  0.75000  0.64100  Biso   1.000  H
  H63      1.0000 0.63670  0.25000  0.35900  Biso   1.000  H
  H64      1.0000 0.86330  0.75000  0.35900  Biso   1.000  H
  C73      1.0000 0.18100  0.25000  0.74980  Biso   1.000  C
  C74      1.0000 0.81900  0.25000  0.74980  Biso   1.000  C
  C75      1.0000 0.18100  0.75000  0.25020  Biso   1.000  C
  C76      1.0000 0.31900  0.25000  0.25020  Biso   1.000  C
  C77      1.0000 0.68100  0.75000  0.74980  Biso   1.000  C
  C78      1.0000 0.31900  0.75000  0.74980  Biso   1.000  C
  C79      1.0000 0.68100  0.25000  0.25020  Biso   1.000  C
  C80      1.0000 0.81900  0.75000  0.25020  Biso   1.000  C
  H65      1.0000 0.14250  0.25000  0.77930  Biso   1.000  H
  H66      1.0000 0.85750  0.25000  0.77930  Biso   1.000  H
  H67      1.0000 0.14250  0.75000  0.22070  Biso   1.000  H
  H68      1.0000 0.35750  0.25000  0.22070  Biso   1.000  H
  H69      1.0000 0.64250  0.75000  0.77930  Biso   1.000  H
  H70      1.0000 0.35750  0.75000  0.77930  Biso   1.000  H
  H71      1.0000 0.64250  0.25000  0.22070  Biso   1.000  H
  H72      1.0000 0.85750  0.75000  0.22070  Biso   1.000  H
  C81      1.0000 0.23790  0.25000  0.79090  Biso   1.000  C
  C82      1.0000 0.76210  0.25000  0.79090  Biso   1.000  C
  C83      1.0000 0.23790  0.75000  0.20910  Biso   1.000  C
  C84      1.0000 0.26210  0.25000  0.20910  Biso   1.000  C
  C85      1.0000 0.73790  0.75000  0.79090  Biso   1.000  C
  C86      1.0000 0.26210  0.75000  0.79090  Biso   1.000  C
  C87      1.0000 0.73790  0.25000  0.20910  Biso   1.000  C
  C88      1.0000 0.76210  0.75000  0.20910  Biso   1.000  C
  H73      1.0000 0.23840  0.25000  0.84690  Biso   1.000  H
  H74      1.0000 0.76160  0.25000  0.84690  Biso   1.000  H
  H75      1.0000 0.23840  0.75000  0.15310  Biso   1.000  H
  H76      1.0000 0.26160  0.25000  0.15310  Biso   1.000  H
  H77      1.0000 0.73840  0.75000  0.84690  Biso   1.000  H
  H78      1.0000 0.26160  0.75000  0.84690  Biso   1.000  H
  H79      1.0000 0.73840  0.25000  0.15310  Biso   1.000  H
  H80      1.0000 0.76160  0.75000  0.15310  Biso   1.000  H
  C89      1.0000 0.35630  0.25000  0.61820  Biso   1.000  C
  C90      1.0000 0.64370  0.25000  0.61820  Biso   1.000  C
  C91      1.0000 0.35630  0.75000  0.38180  Biso   1.000  C
  C92      1.0000 0.14370  0.25000  0.38180  Biso   1.000  C
  C93      1.0000 0.85630  0.75000  0.61820  Biso   1.000  C
  C94      1.0000 0.14370  0.75000  0.61820  Biso   1.000  C
  C95      1.0000 0.85630  0.25000  0.38180  Biso   1.000  C
  C96      1.0000 0.64370  0.75000  0.38180  Biso   1.000  C
  C97      1.0000 0.38450  0.14150  0.59640  Biso   1.000  C
  C98      1.0000 0.61550  0.35850  0.59640  Biso   1.000  C
  C99      1.0000 0.38450  0.85850  0.40360  Biso   1.000  C
  C100     1.0000 0.11550  0.14150  0.40360  Biso   1.000  C
  C101     1.0000 0.88450  0.64150  0.59640  Biso   1.000  C
  C102     1.0000 0.11550  0.85850  0.59640  Biso   1.000  C
  C103     1.0000 0.88450  0.35850  0.40360  Biso   1.000  C
  C104     1.0000 0.61550  0.64150  0.40360  Biso   1.000  C
  C105     1.0000 0.61550  0.85850  0.40360  Biso   1.000  C
  C106     1.0000 0.38450  0.64150  0.40360  Biso   1.000  C
  C107     1.0000 0.61550  0.14150  0.59640  Biso   1.000  C
  C108     1.0000 0.88450  0.85850  0.59640  Biso   1.000  C
  C109     1.0000 0.11550  0.35850  0.40360  Biso   1.000  C
  C110     1.0000 0.88450  0.14150  0.40360  Biso   1.000  C
  C111     1.0000 0.11550  0.64150  0.59640  Biso   1.000  C
  C112     1.0000 0.38450  0.35850  0.59640  Biso   1.000  C
  C113     1.0000 0.34730  0.03020  0.60810  Biso   1.000  C
  C114     1.0000 0.65270  0.46980  0.60810  Biso   1.000  C
  C115     1.0000 0.34730  0.96980  0.39190  Biso   1.000  C
  C116     1.0000 0.15270  0.03020  0.39190  Biso   1.000  C
  C117     1.0000 0.84730  0.53020  0.60810  Biso   1.000  C
  C118     1.0000 0.15270  0.96980  0.60810  Biso   1.000  C
  C119     1.0000 0.84730  0.46980  0.39190  Biso   1.000  C
  C120     1.0000 0.65270  0.53020  0.39190  Biso   1.000  C
  C121     1.0000 0.65270  0.96980  0.39190  Biso   1.000  C
  C122     1.0000 0.34730  0.53020  0.39190  Biso   1.000  C
  C123     1.0000 0.65270  0.03020  0.60810  Biso   1.000  C
  C124     1.0000 0.84730  0.96980  0.60810  Biso   1.000  C
  C125     1.0000 0.15270  0.46980  0.39190  Biso   1.000  C
  C126     1.0000 0.84730  0.03020  0.39190  Biso   1.000  C
  C127     1.0000 0.15270  0.53020  0.60810  Biso   1.000  C
  C128     1.0000 0.34730  0.46980  0.60810  Biso   1.000  C
  H81      1.0000 0.30790  0.03330  0.57720  Biso   1.000  H
  H82      1.0000 0.69210  0.46670  0.57720  Biso   1.000  H
  H83      1.0000 0.30790  0.96670  0.42280  Biso   1.000  H
  H84      1.0000 0.19210  0.03330  0.42280  Biso   1.000  H
  H85      1.0000 0.80790  0.53330  0.57720  Biso   1.000  H
  H86      1.0000 0.19210  0.96670  0.57720  Biso   1.000  H
  H87      1.0000 0.80790  0.46670  0.42280  Biso   1.000  H
  H88      1.0000 0.69210  0.53330  0.42280  Biso   1.000  H
  H89      1.0000 0.69210  0.96670  0.42280  Biso   1.000  H
  H90      1.0000 0.30790  0.53330  0.42280  Biso   1.000  H
  H91      1.0000 0.69210  0.03330  0.57720  Biso   1.000  H
  H92      1.0000 0.80790  0.96670  0.57720  Biso   1.000  H
  H93      1.0000 0.19210  0.46670  0.42280  Biso   1.000  H
  H94      1.0000 0.80790  0.03330  0.42280  Biso   1.000  H
  H95      1.0000 0.19210  0.53330  0.57720  Biso   1.000  H
  H96      1.0000 0.30790  0.46670  0.57720  Biso   1.000  H
  H97      1.0000 0.33680  0.02120  0.66400  Biso   1.000  H
  H98      1.0000 0.66320  0.47880  0.66400  Biso   1.000  H
  H99      1.0000 0.33680  0.97880  0.33600  Biso   1.000  H
  H100     1.0000 0.16320  0.02120  0.33600  Biso   1.000  H
  H101     1.0000 0.83680  0.52120  0.66400  Biso   1.000  H
  H102     1.0000 0.16320  0.97880  0.66400  Biso   1.000  H
  H103     1.0000 0.83680  0.47880  0.33600  Biso   1.000  H
  H104     1.0000 0.66320  0.52120  0.33600  Biso   1.000  H
  H105     1.0000 0.66320  0.97880  0.33600  Biso   1.000  H
  H106     1.0000 0.33680  0.52120  0.33600  Biso   1.000  H
  H107     1.0000 0.66320  0.02120  0.66400  Biso   1.000  H
  H108     1.0000 0.83680  0.97880  0.66400  Biso   1.000  H
  H109     1.0000 0.16320  0.47880  0.33600  Biso   1.000  H
  H110     1.0000 0.83680  0.02120  0.33600  Biso   1.000  H
  H111     1.0000 0.16320  0.52120  0.66400  Biso   1.000  H
  H112     1.0000 0.33680  0.47880  0.66400  Biso   1.000  H
  H113     1.0000 0.37310  0.96420  0.59070  Biso   1.000  H
  H114     1.0000 0.62690  0.53580  0.59070  Biso   1.000  H
  H115     1.0000 0.37310  0.03580  0.40930  Biso   1.000  H
  H116     1.0000 0.12690  0.96420  0.40930  Biso   1.000  H
  H117     1.0000 0.87310  0.46420  0.59070  Biso   1.000  H
  H118     1.0000 0.12690  0.03580  0.59070  Biso   1.000  H
  H119     1.0000 0.87310  0.53580  0.40930  Biso   1.000  H
  H120     1.0000 0.62690  0.46420  0.40930  Biso   1.000  H
  H121     1.0000 0.62690  0.03580  0.40930  Biso   1.000  H
  H122     1.0000 0.37310  0.46420  0.40930  Biso   1.000  H
  H123     1.0000 0.62690  0.96420  0.59070  Biso   1.000  H
  H124     1.0000 0.87310  0.03580  0.59070  Biso   1.000  H
  H125     1.0000 0.12690  0.53580  0.40930  Biso   1.000  H
  H126     1.0000 0.87310  0.96420  0.40930  Biso   1.000  H
  H127     1.0000 0.12690  0.46420  0.59070  Biso   1.000  H
  H128     1.0000 0.37310  0.53580  0.59070  Biso   1.000  H
  C129     1.0000 0.50000  0.34870  0.37780  Biso   1.000  C
  C130     1.0000 0.50000  0.15130  0.37780  Biso   1.000  C
  C131     1.0000 0.50000  0.65130  0.62220  Biso   1.000  C
  C132     1.0000 0.00000  0.34870  0.62220  Biso   1.000  C
  C133     1.0000 0.00000  0.84870  0.37780  Biso   1.000  C
  C134     1.0000 0.00000  0.65130  0.37780  Biso   1.000  C
  C135     1.0000 0.00000  0.15130  0.62220  Biso   1.000  C
  C136     1.0000 0.50000  0.84870  0.62220  Biso   1.000  C
  H129     1.0000 0.50000  0.41910  0.40690  Biso   1.000  H
  H130     1.0000 0.50000  0.08090  0.40690  Biso   1.000  H
  H131     1.0000 0.50000  0.58090  0.59310  Biso   1.000  H
  H132     1.0000 0.00000  0.41910  0.59310  Biso   1.000  H
  H133     1.0000 0.00000  0.91910  0.40690  Biso   1.000  H
  H134     1.0000 0.00000  0.58090  0.40690  Biso   1.000  H
  H135     1.0000 0.00000  0.08090  0.59310  Biso   1.000  H
  H136     1.0000 0.50000  0.91910  0.59310  Biso   1.000  H
  C137     1.0000 0.50000  0.35500  0.29600  Biso   1.000  C
  C138     1.0000 0.50000  0.14500  0.29600  Biso   1.000  C
  C139     1.0000 0.50000  0.64500  0.70400  Biso   1.000  C
  C140     1.0000 0.00000  0.35500  0.70400  Biso   1.000  C
  C141     1.0000 0.00000  0.85500  0.29600  Biso   1.000  C
  C142     1.0000 0.00000  0.64500  0.29600  Biso   1.000  C
  C143     1.0000 0.00000  0.14500  0.70400  Biso   1.000  C
  C144     1.0000 0.50000  0.85500  0.70400  Biso   1.000  C
  H137     1.0000 0.50000  0.42820  0.27030  Biso   1.000  H
  H138     1.0000 0.50000  0.07180  0.27030  Biso   1.000  H
  H139     1.0000 0.50000  0.57180  0.72970  Biso   1.000  H
  H140     1.0000 0.00000  0.42820  0.72970  Biso   1.000  H
  H141     1.0000 0.00000  0.92820  0.27030  Biso   1.000  H
  H142     1.0000 0.00000  0.57180  0.27030  Biso   1.000  H
  H143     1.0000 0.00000  0.07180  0.72970  Biso   1.000  H
  H144     1.0000 0.50000  0.92820  0.72970  Biso   1.000  H
  C145     1.0000 0.50000  0.25000  0.25090  Biso   1.000  C
  C146     1.0000 0.50000  0.75000  0.74910  Biso   1.000  C
  C147     1.0000 0.00000  0.25000  0.74910  Biso   1.000  C
  C148     1.0000 0.00000  0.75000  0.25090  Biso   1.000  C
  C149     1.0000 0.50000  0.25000  0.16320  Biso   1.000  C
  C150     1.0000 0.50000  0.75000  0.83680  Biso   1.000  C
  C151     1.0000 0.00000  0.25000  0.83680  Biso   1.000  C
  C152     1.0000 0.00000  0.75000  0.16320  Biso   1.000  C
  C153     1.0000 0.50000  0.34830  0.12100  Biso   1.000  C
  C154     1.0000 0.50000  0.15170  0.12100  Biso   1.000  C
  C155     1.0000 0.50000  0.65170  0.87900  Biso   1.000  C
  C156     1.0000 0.00000  0.34830  0.87900  Biso   1.000  C
  C157     1.0000 0.00000  0.84830  0.12100  Biso   1.000  C
  C158     1.0000 0.00000  0.65170  0.12100  Biso   1.000  C
  C159     1.0000 0.00000  0.15170  0.87900  Biso   1.000  C
  C160     1.0000 0.50000  0.84830  0.87900  Biso   1.000  C
  H145     1.0000 0.50000  0.42170  0.14650  Biso   1.000  H
  H146     1.0000 0.50000  0.07830  0.14650  Biso   1.000  H
  H147     1.0000 0.50000  0.57830  0.85350  Biso   1.000  H
  H148     1.0000 0.00000  0.42170  0.85350  Biso   1.000  H
  H149     1.0000 0.00000  0.92170  0.14650  Biso   1.000  H
  H150     1.0000 0.00000  0.57830  0.14650  Biso   1.000  H
  H151     1.0000 0.00000  0.07830  0.85350  Biso   1.000  H
  H152     1.0000 0.50000  0.92170  0.85350  Biso   1.000  H
  C161     1.0000 0.50000  0.34080  0.03950  Biso   1.000  C
  C162     1.0000 0.50000  0.15920  0.03950  Biso   1.000  C
  C163     1.0000 0.50000  0.65920  0.96050  Biso   1.000  C
  C164     1.0000 0.00000  0.34080  0.96050  Biso   1.000  C
  C165     1.0000 0.00000  0.84080  0.03950  Biso   1.000  C
  C166     1.0000 0.00000  0.65920  0.03950  Biso   1.000  C
  C167     1.0000 0.00000  0.15920  0.96050  Biso   1.000  C
  C168     1.0000 0.50000  0.84080  0.96050  Biso   1.000  C
  H153     1.0000 0.50000  0.41220  0.01160  Biso   1.000  H
  H154     1.0000 0.50000  0.08780  0.01160  Biso   1.000  H
  H155     1.0000 0.50000  0.58780  0.98840  Biso   1.000  H
  H156     1.0000 0.00000  0.41220  0.98840  Biso   1.000  H
  H157     1.0000 0.00000  0.91220  0.01160  Biso   1.000  H
  H158     1.0000 0.00000  0.58780  0.01160  Biso   1.000  H
  H159     1.0000 0.00000  0.08780  0.98840  Biso   1.000  H
  H160     1.0000 0.50000  0.91220  0.98840  Biso   1.000  H
  C169     1.0000 0.25000  0.31820  0.00000  Biso   1.000  C
  C170     1.0000 0.75000  0.18180  0.00000  Biso   1.000  C
  C171     1.0000 0.25000  0.68180  0.00000  Biso   1.000  C
  C172     1.0000 0.75000  0.81820  0.00000  Biso   1.000  C
  C173     1.0000 0.75000  0.68180  0.00000  Biso   1.000  C
  C174     1.0000 0.25000  0.81820  0.00000  Biso   1.000  C
  C175     1.0000 0.75000  0.31820  0.00000  Biso   1.000  C
  C176     1.0000 0.25000  0.18180  0.00000  Biso   1.000  C
  C177     1.0000 0.30570  0.26050  0.99630  Biso   1.000  C
  C178     1.0000 0.69430  0.23950  0.99630  Biso   1.000  C
  C179     1.0000 0.30570  0.73950  0.00370  Biso   1.000  C
  C180     1.0000 0.19430  0.26050  0.00370  Biso   1.000  C
  C181     1.0000 0.80570  0.76050  0.99630  Biso   1.000  C
  C182     1.0000 0.19430  0.73950  0.99630  Biso   1.000  C
  C183     1.0000 0.80570  0.23950  0.00370  Biso   1.000  C
  C184     1.0000 0.69430  0.76050  0.00370  Biso   1.000  C
  C185     1.0000 0.69430  0.73950  0.00370  Biso   1.000  C
  C186     1.0000 0.30570  0.76050  0.00370  Biso   1.000  C
  C187     1.0000 0.69430  0.26050  0.99630  Biso   1.000  C
  C188     1.0000 0.80570  0.73950  0.99630  Biso   1.000  C
  C189     1.0000 0.19430  0.23950  0.00370  Biso   1.000  C
  C190     1.0000 0.80570  0.26050  0.00370  Biso   1.000  C
  C191     1.0000 0.19430  0.76050  0.99630  Biso   1.000  C
  C192     1.0000 0.30570  0.23950  0.99630  Biso   1.000  C
  H161     1.0000 0.34470  0.30240  0.99370  Biso   1.000  H
  H162     1.0000 0.65530  0.19760  0.99370  Biso   1.000  H
  H163     1.0000 0.34470  0.69760  0.00630  Biso   1.000  H
  H164     1.0000 0.15530  0.30240  0.00630  Biso   1.000  H
  H165     1.0000 0.84470  0.80240  0.99370  Biso   1.000  H
  H166     1.0000 0.15530  0.69760  0.99370  Biso   1.000  H
  H167     1.0000 0.84470  0.19760  0.00630  Biso   1.000  H
  H168     1.0000 0.65530  0.80240  0.00630  Biso   1.000  H
  H169     1.0000 0.65530  0.69760  0.00630  Biso   1.000  H
  H170     1.0000 0.34470  0.80240  0.00630  Biso   1.000  H
  H171     1.0000 0.65530  0.30240  0.99370  Biso   1.000  H
  H172     1.0000 0.84470  0.69760  0.99370  Biso   1.000  H
  H173     1.0000 0.15530  0.19760  0.00630  Biso   1.000  H
  H174     1.0000 0.84470  0.30240  0.00630  Biso   1.000  H
  H175     1.0000 0.15530  0.80240  0.99370  Biso   1.000  H
  H176     1.0000 0.34470  0.19760  0.99370  Biso   1.000  H
  C193     1.0000 0.30380  0.14260  0.99850  Biso   1.000  C
  C194     1.0000 0.69620  0.35740  0.99850  Biso   1.000  C
  C195     1.0000 0.30380  0.85740  0.00150  Biso   1.000  C
  C196     1.0000 0.19620  0.14260  0.00150  Biso   1.000  C
  C197     1.0000 0.80380  0.64260  0.99850  Biso   1.000  C
  C198     1.0000 0.19620  0.85740  0.99850  Biso   1.000  C
  C199     1.0000 0.80380  0.35740  0.00150  Biso   1.000  C
  C200     1.0000 0.69620  0.64260  0.00150  Biso   1.000  C
  C201     1.0000 0.69620  0.85740  0.00150  Biso   1.000  C
  C202     1.0000 0.30380  0.64260  0.00150  Biso   1.000  C
  C203     1.0000 0.69620  0.14260  0.99850  Biso   1.000  C
  C204     1.0000 0.80380  0.85740  0.99850  Biso   1.000  C
  C205     1.0000 0.19620  0.35740  0.00150  Biso   1.000  C
  C206     1.0000 0.80380  0.14260  0.00150  Biso   1.000  C
  C207     1.0000 0.19620  0.64260  0.99850  Biso   1.000  C
  C208     1.0000 0.30380  0.35740  0.99850  Biso   1.000  C
  H177     1.0000 0.34420  0.10560  0.99700  Biso   1.000  H
  H178     1.0000 0.65580  0.39440  0.99700  Biso   1.000  H
  H179     1.0000 0.34420  0.89440  0.00300  Biso   1.000  H
  H180     1.0000 0.15580  0.10560  0.00300  Biso   1.000  H
  H181     1.0000 0.84420  0.60560  0.99700  Biso   1.000  H
  H182     1.0000 0.15580  0.89440  0.99700  Biso   1.000  H
  H183     1.0000 0.84420  0.39440  0.00300  Biso   1.000  H
  H184     1.0000 0.65580  0.60560  0.00300  Biso   1.000  H
  H185     1.0000 0.65580  0.89440  0.00300  Biso   1.000  H
  H186     1.0000 0.34420  0.60560  0.00300  Biso   1.000  H
  H187     1.0000 0.65580  0.10560  0.99700  Biso   1.000  H
  H188     1.0000 0.84420  0.89440  0.99700  Biso   1.000  H
  H189     1.0000 0.15580  0.39440  0.00300  Biso   1.000  H
  H190     1.0000 0.84420  0.10560  0.00300  Biso   1.000  H
  H191     1.0000 0.15580  0.60560  0.99700  Biso   1.000  H
  H192     1.0000 0.34420  0.39440  0.99700  Biso   1.000  H
  C209     1.0000 0.25000  0.07210  0.00000  Biso   1.000  C
  C210     1.0000 0.75000  0.42790  0.00000  Biso   1.000  C
  C211     1.0000 0.25000  0.92790  0.00000  Biso   1.000  C
  C212     1.0000 0.75000  0.57210  0.00000  Biso   1.000  C
  C213     1.0000 0.75000  0.92790  0.00000  Biso   1.000  C
  C214     1.0000 0.25000  0.57210  0.00000  Biso   1.000  C
  C215     1.0000 0.75000  0.07210  0.00000  Biso   1.000  C
  C216     1.0000 0.25000  0.42790  0.00000  Biso   1.000  C
  H193     1.0000 0.25000  0.98970  0.00000  Biso   1.000  H
  H194     1.0000 0.75000  0.51030  0.00000  Biso   1.000  H
  H195     1.0000 0.25000  0.01030  0.00000  Biso   1.000  H
  H196     1.0000 0.75000  0.48970  0.00000  Biso   1.000  H
  H197     1.0000 0.75000  0.01030  0.00000  Biso   1.000  H
  H198     1.0000 0.25000  0.48970  0.00000  Biso   1.000  H
  H199     1.0000 0.75000  0.98970  0.00000  Biso   1.000  H
  H200     1.0000 0.25000  0.51030  0.00000  Biso   1.000  H
  C217     1.0000 0.25000  0.44540  0.00000  Biso   1.000  C
  C218     1.0000 0.75000  0.05460  0.00000  Biso   1.000  C
  C219     1.0000 0.25000  0.55460  0.00000  Biso   1.000  C
  C220     1.0000 0.75000  0.94540  0.00000  Biso   1.000  C
  C221     1.0000 0.75000  0.55460  0.00000  Biso   1.000  C
  C222     1.0000 0.25000  0.94540  0.00000  Biso   1.000  C
  C223     1.0000 0.75000  0.44540  0.00000  Biso   1.000  C
  C224     1.0000 0.25000  0.05460  0.00000  Biso   1.000  C
