data_image0
_cell_length_a       9.2034
_cell_length_b       15.1026
_cell_length_c       18.8929
_cell_angle_alpha    84.894
_cell_angle_beta     89.531
_cell_angle_gamma    88.539

_symmetry_space_group_name_H-M    "P 1"
_symmetry_int_tables_number       1

loop_
  _symmetry_equiv_pos_as_xyz
  'x, y, z'

loop_
  _atom_site_label
  _atom_site_occupancy
  _atom_site_fract_x
  _atom_site_fract_y
  _atom_site_fract_z
  _atom_site_thermal_displace_type
  _atom_site_B_iso_or_equiv
  _atom_site_type_symbol
  Cu1      1.0000 0.78766  0.72358  0.02138  Biso   1.000  Cu
  Cu2      1.0000 0.21234  0.27642  0.97862  Biso   1.000  Cu
  Cu3      1.0000 0.27011  0.22517  0.46420  Biso   1.000  Cu
  Cu4      1.0000 0.72989  0.77483  0.53580  Biso   1.000  Cu
  N1       1.0000 0.97580  0.68230  0.06920  Biso   1.000  N
  N2       1.0000 0.02420  0.31770  0.93080  Biso   1.000  N
  N3       1.0000 0.73200  0.74230  0.12238  Biso   1.000  N
  N4       1.0000 0.26800  0.25770  0.87762  Biso   1.000  N
  N5       1.0000 0.85180  0.68940  0.92413  Biso   1.000  N
  N6       1.0000 0.14820  0.31060  0.07587  Biso   1.000  N
  N7       1.0000 0.60710  0.78120  0.97744  Biso   1.000  N
  N8       1.0000 0.39290  0.21880  0.02256  Biso   1.000  N
  N9       1.0000 0.23530  0.15380  0.55759  Biso   1.000  N
  N10      1.0000 0.76470  0.84620  0.44241  Biso   1.000  N
  N11      1.0000 0.24220  0.33860  0.51232  Biso   1.000  N
  N12      1.0000 0.75780  0.66140  0.48768  Biso   1.000  N
  N13      1.0000 0.28420  0.11780  0.40824  Biso   1.000  N
  N14      1.0000 0.71580  0.88220  0.59176  Biso   1.000  N
  N15      1.0000 0.31320  0.28710  0.36743  Biso   1.000  N
  N16      1.0000 0.68680  0.71290  0.63257  Biso   1.000  N
  C1       1.0000 0.09900  0.65810  0.03780  Biso   1.000  C
  C2       1.0000 0.90100  0.34190  0.96220  Biso   1.000  C
  H1       1.0000 0.10060  0.65750  0.98860  Biso   1.000  H
  H2       1.0000 0.89940  0.34250  0.01140  Biso   1.000  H
  C3       1.0000 0.22380  0.63400  0.07500  Biso   1.000  C
  C4       1.0000 0.77620  0.36600  0.92500  Biso   1.000  C
  H3       1.0000 0.30680  0.61470  0.05180  Biso   1.000  H
  H4       1.0000 0.69320  0.38530  0.94820  Biso   1.000  H
  C5       1.0000 0.22290  0.63900  0.14700  Biso   1.000  C
  C6       1.0000 0.77710  0.36100  0.85300  Biso   1.000  C
  H5       1.0000 0.30640  0.62420  0.17320  Biso   1.000  H
  H6       1.0000 0.69360  0.37580  0.82680  Biso   1.000  H
  C7       1.0000 0.09760  0.66610  0.18040  Biso   1.000  C
  C8       1.0000 0.90240  0.33390  0.81960  Biso   1.000  C
  H7       1.0000 0.09630  0.67050  0.22920  Biso   1.000  H
  H8       1.0000 0.90370  0.32950  0.77080  Biso   1.000  H
  C9       1.0000 0.97430  0.68660  0.14040  Biso   1.000  C
  C10      1.0000 0.02570  0.31340  0.85960  Biso   1.000  C
  C11      1.0000 0.83540  0.71480  0.17090  Biso   1.000  C
  C12      1.0000 0.16460  0.28520  0.82910  Biso   1.000  C
  C13      1.0000 0.80720  0.71370  0.24280  Biso   1.000  C
  C14      1.0000 0.19280  0.28630  0.75720  Biso   1.000  C
  H9       1.0000 0.88010  0.69720  0.27550  Biso   1.000  H
  H10      1.0000 0.11990  0.30280  0.72450  Biso   1.000  H
  C15      1.0000 0.67190  0.73700  0.26550  Biso   1.000  C
  C16      1.0000 0.32810  0.26300  0.73450  Biso   1.000  C
  H11      1.0000 0.65090  0.73420  0.31390  Biso   1.000  H
  H12      1.0000 0.34910  0.26580  0.68610  Biso   1.000  H
  C17      1.0000 0.56740  0.76440  0.21720  Biso   1.000  C
  C18      1.0000 0.43260  0.23560  0.78280  Biso   1.000  C
  H13      1.0000 0.47510  0.78170  0.23200  Biso   1.000  H
  H14      1.0000 0.52490  0.21830  0.76800  Biso   1.000  H
  C19      1.0000 0.60160  0.76600  0.14510  Biso   1.000  C
  C20      1.0000 0.39840  0.23400  0.85490  Biso   1.000  C
  H15      1.0000 0.53050  0.78430  0.11190  Biso   1.000  H
  H16      1.0000 0.46950  0.21570  0.88810  Biso   1.000  H
  C21      1.0000 0.87930  0.60600  0.90970  Biso   1.000  C
  C22      1.0000 0.12070  0.39400  0.09030  Biso   1.000  C
  H17      1.0000 0.84760  0.55990  0.94150  Biso   1.000  H
  H18      1.0000 0.15240  0.44010  0.05850  Biso   1.000  H
  C23      1.0000 0.95350  0.58530  0.84910  Biso   1.000  C
  C24      1.0000 0.04650  0.41470  0.15090  Biso   1.000  C
  H19      1.0000 0.96970  0.52610  0.84060  Biso   1.000  H
  H20      1.0000 0.03030  0.47390  0.15940  Biso   1.000  H
  C25      1.0000 0.00340  0.65240  0.80130  Biso   1.000  C
  C26      1.0000 0.99660  0.34760  0.19870  Biso   1.000  C
  C27      1.0000 0.96310  0.73820  0.81470  Biso   1.000  C
  C28      1.0000 0.03690  0.26180  0.18530  Biso   1.000  C
  H21      1.0000 0.98600  0.78550  0.78190  Biso   1.000  H
  H22      1.0000 0.01400  0.21450  0.21810  Biso   1.000  H
  C29      1.0000 0.89010  0.75410  0.87560  Biso   1.000  C
  C30      1.0000 0.10990  0.24590  0.12440  Biso   1.000  C
  H23      1.0000 0.86590  0.81260  0.88350  Biso   1.000  H
  H24      1.0000 0.13410  0.18740  0.11650  Biso   1.000  H
  C31      1.0000 0.10400  0.63700  0.74070  Biso   1.000  C
  C32      1.0000 0.89600  0.36300  0.25930  Biso   1.000  C
  H25      1.0000 0.09670  0.68950  0.70720  Biso   1.000  H
  H26      1.0000 0.90330  0.31050  0.29280  Biso   1.000  H
  H27      1.0000 0.20200  0.63460  0.75930  Biso   1.000  H
  H28      1.0000 0.79800  0.36540  0.24070  Biso   1.000  H
  C33      1.0000 0.08930  0.55890  0.69940  Biso   1.000  C
  C34      1.0000 0.91070  0.44110  0.30060  Biso   1.000  C
  H29      1.0000 0.99270  0.55960  0.67910  Biso   1.000  H
  H30      1.0000 0.00730  0.44040  0.32090  Biso   1.000  H
  H31      1.0000 0.10160  0.50480  0.73060  Biso   1.000  H
  H32      1.0000 0.89840  0.49520  0.26940  Biso   1.000  H
  C35      1.0000 0.50410  0.73440  0.94800  Biso   1.000  C
  C36      1.0000 0.49590  0.26560  0.05200  Biso   1.000  C
  H33      1.0000 0.51290  0.67270  0.95110  Biso   1.000  H
  H34      1.0000 0.48710  0.32730  0.04890  Biso   1.000  H
  C37      1.0000 0.38760  0.77520  0.91370  Biso   1.000  C
  C38      1.0000 0.61240  0.22480  0.08630  Biso   1.000  C
  H35      1.0000 0.31960  0.74060  0.89370  Biso   1.000  H
  H36      1.0000 0.68040  0.25940  0.10630  Biso   1.000  H
  C39      1.0000 0.36750  0.86520  0.90780  Biso   1.000  C
  C40      1.0000 0.63250  0.13480  0.09220  Biso   1.000  C
  C41      1.0000 0.47390  0.91300  0.93790  Biso   1.000  C
  C42      1.0000 0.52610  0.08700  0.06210  Biso   1.000  C
  H37      1.0000 0.46710  0.97480  0.93490  Biso   1.000  H
  H38      1.0000 0.53290  0.02520  0.06510  Biso   1.000  H
  C43      1.0000 0.58800  0.86970  0.97170  Biso   1.000  C
  C44      1.0000 0.41200  0.13030  0.02830  Biso   1.000  C
  H39      1.0000 0.65700  0.90350  0.99200  Biso   1.000  H
  H40      1.0000 0.34300  0.09650  0.00800  Biso   1.000  H
  C45      1.0000 0.24240  0.91380  0.86950  Biso   1.000  C
  C46      1.0000 0.75760  0.08620  0.13050  Biso   1.000  C
  H41      1.0000 0.20510  0.95980  0.89790  Biso   1.000  H
  H42      1.0000 0.79490  0.04020  0.10210  Biso   1.000  H
  H43      1.0000 0.16500  0.87250  0.86430  Biso   1.000  H
  H44      1.0000 0.83500  0.12750  0.13570  Biso   1.000  H
  C47      1.0000 0.28470  0.95610  0.79630  Biso   1.000  C
  C48      1.0000 0.71530  0.04390  0.20370  Biso   1.000  C
  H45      1.0000 0.36950  0.99200  0.80060  Biso   1.000  H
  H46      1.0000 0.63050  0.00800  0.19940  Biso   1.000  H
  H47      1.0000 0.31020  0.90970  0.76580  Biso   1.000  H
  H48      1.0000 0.68980  0.09030  0.23420  Biso   1.000  H
  C49      1.0000 0.16350  0.01330  0.76310  Biso   1.000  C
  C50      1.0000 0.83650  0.98670  0.23690  Biso   1.000  C
  H49      1.0000 0.07960  0.97630  0.75980  Biso   1.000  H
  H50      1.0000 0.92040  0.02370  0.24020  Biso   1.000  H
  H51      1.0000 0.13770  0.05810  0.79500  Biso   1.000  H
  H52      1.0000 0.86230  0.94190  0.20500  Biso   1.000  H
  C51      1.0000 0.19090  0.05950  0.69130  Biso   1.000  C
  C52      1.0000 0.80910  0.94050  0.30870  Biso   1.000  C
  C53      1.0000 0.08290  0.11290  0.65720  Biso   1.000  C
  C54      1.0000 0.91710  0.88710  0.34280  Biso   1.000  C
  H53      1.0000 0.99280  0.11890  0.67910  Biso   1.000  H
  H54      1.0000 0.00720  0.88110  0.32090  Biso   1.000  H
  C55      1.0000 0.10730  0.15690  0.59160  Biso   1.000  C
  C56      1.0000 0.89270  0.84310  0.40840  Biso   1.000  C
  H55      1.0000 0.03140  0.19050  0.56970  Biso   1.000  H
  H56      1.0000 0.96860  0.80950  0.43030  Biso   1.000  H
  C57      1.0000 0.33990  0.10260  0.58950  Biso   1.000  C
  C58      1.0000 0.66010  0.89740  0.41050  Biso   1.000  C
  H57      1.0000 0.42970  0.09890  0.56690  Biso   1.000  H
  H58      1.0000 0.57030  0.90110  0.43310  Biso   1.000  H
  C59      1.0000 0.32130  0.05470  0.65460  Biso   1.000  C
  C60      1.0000 0.67870  0.94530  0.34540  Biso   1.000  C
  H59      1.0000 0.39720  0.01880  0.67410  Biso   1.000  H
  H60      1.0000 0.60280  0.98120  0.32590  Biso   1.000  H
  C61      1.0000 0.25430  0.03450  0.43220  Biso   1.000  C
  C62      1.0000 0.74570  0.96550  0.56780  Biso   1.000  C
  H61      1.0000 0.22880  0.02220  0.47970  Biso   1.000  H
  H62      1.0000 0.77120  0.97780  0.52030  Biso   1.000  H
  C63      1.0000 0.26020  0.96540  0.38810  Biso   1.000  C
  C64      1.0000 0.73980  0.03460  0.61190  Biso   1.000  C
  H63      1.0000 0.24170  0.90730  0.40600  Biso   1.000  H
  H64      1.0000 0.75830  0.09270  0.59400  Biso   1.000  H
  C65      1.0000 0.29410  0.98510  0.31770  Biso   1.000  C
  C66      1.0000 0.70590  0.01490  0.68230  Biso   1.000  C
  H65      1.0000 0.29820  0.94020  0.28710  Biso   1.000  H
  H66      1.0000 0.70180  0.05980  0.71290  Biso   1.000  H
  C67      1.0000 0.32190  0.07070  0.29250  Biso   1.000  C
  C68      1.0000 0.67810  0.92930  0.70750  Biso   1.000  C
  H67      1.0000 0.34250  0.08430  0.24450  Biso   1.000  H
  H68      1.0000 0.65750  0.91570  0.75550  Biso   1.000  H
  C69      1.0000 0.31910  0.13660  0.33840  Biso   1.000  C
  C70      1.0000 0.68090  0.86340  0.66160  Biso   1.000  C
  C71      1.0000 0.34370  0.23150  0.31720  Biso   1.000  C
  C72      1.0000 0.65630  0.76850  0.68280  Biso   1.000  C
  C73      1.0000 0.39610  0.26230  0.25080  Biso   1.000  C
  C74      1.0000 0.60390  0.73770  0.74920  Biso   1.000  C
  H69      1.0000 0.41850  0.22260  0.21710  Biso   1.000  H
  H70      1.0000 0.58150  0.77740  0.78290  Biso   1.000  H
  C75      1.0000 0.41480  0.35170  0.23500  Biso   1.000  C
  C76      1.0000 0.58520  0.64830  0.76500  Biso   1.000  C
  H71      1.0000 0.45090  0.37320  0.19090  Biso   1.000  H
  H72      1.0000 0.54910  0.62680  0.80910  Biso   1.000  H
  C77      1.0000 0.37980  0.40860  0.28480  Biso   1.000  C
  C78      1.0000 0.62020  0.59140  0.71520  Biso   1.000  C
  H73      1.0000 0.38950  0.46950  0.27480  Biso   1.000  H
  H74      1.0000 0.61050  0.53050  0.72520  Biso   1.000  H
  C79      1.0000 0.32950  0.37420  0.35070  Biso   1.000  C
  C80      1.0000 0.67050  0.62580  0.64930  Biso   1.000  C
  H75      1.0000 0.30620  0.41330  0.38470  Biso   1.000  H
  H76      1.0000 0.69380  0.58670  0.61530  Biso   1.000  H
  C81      1.0000 0.11180  0.37140  0.53000  Biso   1.000  C
  C82      1.0000 0.88820  0.62860  0.47000  Biso   1.000  C
  H77      1.0000 0.02940  0.34560  0.51340  Biso   1.000  H
  H78      1.0000 0.97060  0.65440  0.48660  Biso   1.000  H
  C83      1.0000 0.09330  0.44130  0.57140  Biso   1.000  C
  C84      1.0000 0.90670  0.55870  0.42860  Biso   1.000  C
  H79      1.0000 0.00010  0.46060  0.58300  Biso   1.000  H
  H80      1.0000 0.99990  0.53940  0.41700  Biso   1.000  H
  C85      1.0000 0.21240  0.48280  0.59570  Biso   1.000  C
  C86      1.0000 0.78760  0.51720  0.40430  Biso   1.000  C
  C87      1.0000 0.34510  0.44970  0.57630  Biso   1.000  C
  C88      1.0000 0.65490  0.55030  0.42370  Biso   1.000  C
  H81      1.0000 0.42910  0.47520  0.59130  Biso   1.000  H
  H82      1.0000 0.57090  0.52480  0.40870  Biso   1.000  H
  C89      1.0000 0.35620  0.37970  0.53520  Biso   1.000  C
  C90      1.0000 0.64380  0.62030  0.46480  Biso   1.000  C
  H83      1.0000 0.44860  0.35990  0.52270  Biso   1.000  H
  H84      1.0000 0.55140  0.64010  0.47730  Biso   1.000  H
  C91      1.0000 0.20240  0.56020  0.64020  Biso   1.000  C
  C92      1.0000 0.79760  0.43980  0.35980  Biso   1.000  C
  H85      1.0000 0.18430  0.61340  0.60850  Biso   1.000  H
  H86      1.0000 0.81570  0.38660  0.39150  Biso   1.000  H
  H87      1.0000 0.29690  0.56610  0.66140  Biso   1.000  H
  H88      1.0000 0.70310  0.43390  0.33860  Biso   1.000  H
  O1       1.0000 0.91670  0.87110  0.00830  Biso   1.000  O
  O2       1.0000 0.08330  0.12890  0.99170  Biso   1.000  O
  H89      1.0000 0.92000  0.91300  0.97400  Biso   1.000  H
  H90      1.0000 0.08000  0.08700  0.02600  Biso   1.000  H
  H91      1.0000 0.97800  0.88000  0.04300  Biso   1.000  H
  H92      1.0000 0.02200  0.12000  0.95700  Biso   1.000  H
  Cl1      1.0000 0.90330  0.16118  0.40092  Biso   1.000  Cl
  Cl2      1.0000 0.09670  0.83882  0.59908  Biso   1.000  Cl
  O3       1.0000 0.97440  0.13200  0.33940  Biso   1.000  O
  O4       1.0000 0.02560  0.86800  0.66060  Biso   1.000  O
  O5       1.0000 0.98490  0.23130  0.42560  Biso   1.000  O
  O6       1.0000 0.01510  0.76870  0.57440  Biso   1.000  O
  O7       1.0000 0.76190  0.19270  0.38000  Biso   1.000  O
  O8       1.0000 0.23810  0.80730  0.62000  Biso   1.000  O
  O9       1.0000 0.89840  0.09050  0.45480  Biso   1.000  O
  O10      1.0000 0.10160  0.90950  0.54520  Biso   1.000  O
  Cl3      1.0000 0.64478  0.51261  0.10067  Biso   1.000  Cl
  Cl4      1.0000 0.35522  0.48739  0.89933  Biso   1.000  Cl
  O11      1.0000 0.69870  0.42890  0.08770  Biso   1.000  O
  O12      1.0000 0.30130  0.57110  0.91230  Biso   1.000  O
  O13      1.0000 0.67180  0.57850  0.04420  Biso   1.000  O
  O14      1.0000 0.32820  0.42150  0.95580  Biso   1.000  O
  O15      1.0000 0.69260  0.53690  0.16430  Biso   1.000  O
  O16      1.0000 0.30740  0.46310  0.83570  Biso   1.000  O
  O17      1.0000 0.49650  0.49900  0.10190  Biso   1.000  O
  O18      1.0000 0.50350  0.50100  0.89810  Biso   1.000  O
  O19      1.0000 0.53470  0.21510  0.47920  Biso   1.000  O
  O20      1.0000 0.46530  0.78490  0.52080  Biso   1.000  O
  H93      1.0000 0.57200  0.22000  0.52040  Biso   1.000  H
  H94      1.0000 0.42800  0.78000  0.47960  Biso   1.000  H
  H95      1.0000 0.59600  0.19900  0.44760  Biso   1.000  H
  H96      1.0000 0.40400  0.80100  0.55240  Biso   1.000  H
  Cl5      1.0000 0.72674  0.32469  0.62370  Biso   1.000  Cl
  Cl6      1.0000 0.27326  0.67531  0.37630  Biso   1.000  Cl
  O21      1.0000 0.86310  0.29070  0.64730  Biso   1.000  O
  O22      1.0000 0.13690  0.70930  0.35270  Biso   1.000  O
  O23      1.0000 0.73440  0.36820  0.55630  Biso   1.000  O
  O24      1.0000 0.26560  0.63180  0.44370  Biso   1.000  O
  O25      1.0000 0.67280  0.38160  0.67270  Biso   1.000  O
  O26      1.0000 0.32720  0.61840  0.32730  Biso   1.000  O
  O27      1.0000 0.62440  0.25640  0.62250  Biso   1.000  O
  O28      1.0000 0.37560  0.74360  0.37750  Biso   1.000  O
  Cl7      1.0000 0.79422  0.06675  0.87600  Biso   1.000  Cl
  Cl8      1.0000 0.20578  0.93325  0.12400  Biso   1.000  Cl
  O29      1.0000 0.83860  0.97980  0.86400  Biso   1.000  O
  O30      1.0000 0.16140  0.02020  0.13600  Biso   1.000  O
  O31      1.0000 0.88200  0.12470  0.83690  Biso   1.000  O
  O32      1.0000 0.11800  0.87530  0.16310  Biso   1.000  O
  O33      1.0000 0.65030  0.07640  0.85490  Biso   1.000  O
  O34      1.0000 0.34970  0.92360  0.14510  Biso   1.000  O
  O35      1.0000 0.79670  0.07840  0.94620  Biso   1.000  O
  O36      1.0000 0.20330  0.92160  0.05380  Biso   1.000  O
