data_image0
_cell_length_a       12.8419
_cell_length_b       14.1074
_cell_length_c       13.1783
_cell_angle_alpha    90
_cell_angle_beta     95.056
_cell_angle_gamma    90

_symmetry_space_group_name_H-M    "P 1"
_symmetry_int_tables_number       1

loop_
  _symmetry_equiv_pos_as_xyz
  'x, y, z'

loop_
  _atom_site_label
  _atom_site_occupancy
  _atom_site_fract_x
  _atom_site_fract_y
  _atom_site_fract_z
  _atom_site_thermal_displace_type
  _atom_site_B_iso_or_equiv
  _atom_site_type_symbol
  Cu1      1.0000 0.65318  0.76460  0.93679  Biso   1.000  Cu
  Cu2      1.0000 0.84682  0.26460  0.56321  Biso   1.000  Cu
  Cu3      1.0000 0.34682  0.23540  0.06321  Biso   1.000  Cu
  Cu4      1.0000 0.15318  0.73540  0.43679  Biso   1.000  Cu
  N1       1.0000 0.62960  0.87340  0.84140  Biso   1.000  N
  N2       1.0000 0.87040  0.37340  0.65860  Biso   1.000  N
  N3       1.0000 0.37040  0.12660  0.15860  Biso   1.000  N
  N4       1.0000 0.12960  0.62660  0.34140  Biso   1.000  N
  N5       1.0000 0.63700  0.69210  0.80670  Biso   1.000  N
  N6       1.0000 0.86300  0.19210  0.69330  Biso   1.000  N
  N7       1.0000 0.36300  0.30790  0.19330  Biso   1.000  N
  N8       1.0000 0.13700  0.80790  0.30670  Biso   1.000  N
  N9       1.0000 0.69830  0.84380  0.05960  Biso   1.000  N
  N10      1.0000 0.80170  0.34380  0.44040  Biso   1.000  N
  N11      1.0000 0.30170  0.15620  0.94040  Biso   1.000  N
  N12      1.0000 0.19830  0.65620  0.55960  Biso   1.000  N
  C1       1.0000 0.61810  0.96450  0.86580  Biso   1.000  C
  C2       1.0000 0.88190  0.46450  0.63420  Biso   1.000  C
  C3       1.0000 0.38190  0.03550  0.13420  Biso   1.000  C
  C4       1.0000 0.11810  0.53550  0.36580  Biso   1.000  C
  H1       1.0000 0.62160  0.98120  0.93430  Biso   1.000  H
  H2       1.0000 0.87840  0.48120  0.56570  Biso   1.000  H
  H3       1.0000 0.37840  0.01880  0.06570  Biso   1.000  H
  H4       1.0000 0.12160  0.51880  0.43430  Biso   1.000  H
  C5       1.0000 0.60120  0.03480  0.79350  Biso   1.000  C
  C6       1.0000 0.89880  0.53480  0.70650  Biso   1.000  C
  C7       1.0000 0.39880  0.96520  0.20650  Biso   1.000  C
  C8       1.0000 0.10120  0.46520  0.29350  Biso   1.000  C
  H5       1.0000 0.59260  0.09760  0.81250  Biso   1.000  H
  H6       1.0000 0.90740  0.59760  0.68750  Biso   1.000  H
  H7       1.0000 0.40740  0.90240  0.18750  Biso   1.000  H
  H8       1.0000 0.09260  0.40240  0.31250  Biso   1.000  H
  C9       1.0000 0.59740  0.00910  0.69160  Biso   1.000  C
  C10      1.0000 0.90260  0.50910  0.80840  Biso   1.000  C
  C11      1.0000 0.40260  0.99090  0.30840  Biso   1.000  C
  C12      1.0000 0.09740  0.49090  0.19160  Biso   1.000  C
  H9       1.0000 0.58830  0.05510  0.64110  Biso   1.000  H
  H10      1.0000 0.91170  0.55510  0.85890  Biso   1.000  H
  H11      1.0000 0.41170  0.94490  0.35890  Biso   1.000  H
  H12      1.0000 0.08830  0.44490  0.14110  Biso   1.000  H
  C13      1.0000 0.60720  0.91490  0.66560  Biso   1.000  C
  C14      1.0000 0.89280  0.41490  0.83440  Biso   1.000  C
  C15      1.0000 0.39280  0.08510  0.33440  Biso   1.000  C
  C16      1.0000 0.10720  0.58510  0.16560  Biso   1.000  C
  H13      1.0000 0.60360  0.89670  0.59760  Biso   1.000  H
  H14      1.0000 0.89640  0.39670  0.90240  Biso   1.000  H
  H15      1.0000 0.39640  0.10330  0.40240  Biso   1.000  H
  H16      1.0000 0.10360  0.60330  0.09760  Biso   1.000  H
  C17      1.0000 0.62230  0.84840  0.74190  Biso   1.000  C
  C18      1.0000 0.87770  0.34840  0.75810  Biso   1.000  C
  C19      1.0000 0.37770  0.15160  0.25810  Biso   1.000  C
  C20      1.0000 0.12230  0.65160  0.24190  Biso   1.000  C
  C21      1.0000 0.62860  0.74720  0.72280  Biso   1.000  C
  C22      1.0000 0.87140  0.24720  0.77720  Biso   1.000  C
  C23      1.0000 0.37140  0.25280  0.27720  Biso   1.000  C
  C24      1.0000 0.12860  0.75280  0.22280  Biso   1.000  C
  C25      1.0000 0.62390  0.70540  0.62730  Biso   1.000  C
  C26      1.0000 0.87610  0.20540  0.87270  Biso   1.000  C
  C27      1.0000 0.37610  0.29460  0.37270  Biso   1.000  C
  C28      1.0000 0.12390  0.79460  0.12730  Biso   1.000  C
  H17      1.0000 0.61970  0.74300  0.56910  Biso   1.000  H
  H18      1.0000 0.88030  0.24300  0.93090  Biso   1.000  H
  H19      1.0000 0.38030  0.25700  0.43090  Biso   1.000  H
  H20      1.0000 0.11970  0.75700  0.06910  Biso   1.000  H
  C29      1.0000 0.62560  0.60840  0.61870  Biso   1.000  C
  C30      1.0000 0.87440  0.10840  0.88130  Biso   1.000  C
  C31      1.0000 0.37440  0.39160  0.38130  Biso   1.000  C
  C32      1.0000 0.12560  0.89160  0.11870  Biso   1.000  C
  H21      1.0000 0.62130  0.58030  0.55460  Biso   1.000  H
  H22      1.0000 0.87870  0.08030  0.94540  Biso   1.000  H
  H23      1.0000 0.37870  0.41970  0.44540  Biso   1.000  H
  H24      1.0000 0.12130  0.91970  0.05460  Biso   1.000  H
  C33      1.0000 0.63330  0.55410  0.70290  Biso   1.000  C
  C34      1.0000 0.86670  0.05410  0.79710  Biso   1.000  C
  C35      1.0000 0.36670  0.44590  0.29710  Biso   1.000  C
  C36      1.0000 0.13330  0.94590  0.20290  Biso   1.000  C
  H25      1.0000 0.63440  0.48830  0.69820  Biso   1.000  H
  H26      1.0000 0.86560  0.98830  0.80180  Biso   1.000  H
  H27      1.0000 0.36560  0.51170  0.30180  Biso   1.000  H
  H28      1.0000 0.13440  0.01170  0.19820  Biso   1.000  H
  C37      1.0000 0.63960  0.59820  0.79630  Biso   1.000  C
  C38      1.0000 0.86040  0.09820  0.70370  Biso   1.000  C
  C39      1.0000 0.36040  0.40180  0.20370  Biso   1.000  C
  C40      1.0000 0.13960  0.90180  0.29630  Biso   1.000  C
  H29      1.0000 0.64590  0.56090  0.85470  Biso   1.000  H
  H30      1.0000 0.85410  0.06090  0.64530  Biso   1.000  H
  H31      1.0000 0.35410  0.43910  0.14530  Biso   1.000  H
  H32      1.0000 0.14590  0.93910  0.35470  Biso   1.000  H
  C41      1.0000 0.64380  0.84080  0.14190  Biso   1.000  C
  C42      1.0000 0.85620  0.34080  0.35810  Biso   1.000  C
  C43      1.0000 0.35620  0.15920  0.85810  Biso   1.000  C
  C44      1.0000 0.14380  0.65920  0.64190  Biso   1.000  C
  H33      1.0000 0.58530  0.80180  0.14020  Biso   1.000  H
  H34      1.0000 0.91470  0.30180  0.35980  Biso   1.000  H
  H35      1.0000 0.41470  0.19820  0.85980  Biso   1.000  H
  H36      1.0000 0.08530  0.69820  0.64020  Biso   1.000  H
  C45      1.0000 0.66990  0.89220  0.22750  Biso   1.000  C
  C46      1.0000 0.83010  0.39220  0.27250  Biso   1.000  C
  C47      1.0000 0.33010  0.10780  0.77250  Biso   1.000  C
  C48      1.0000 0.16990  0.60780  0.72750  Biso   1.000  C
  H37      1.0000 0.63060  0.88660  0.28320  Biso   1.000  H
  H38      1.0000 0.86940  0.38660  0.21680  Biso   1.000  H
  H39      1.0000 0.36940  0.11340  0.71680  Biso   1.000  H
  H40      1.0000 0.13060  0.61340  0.78320  Biso   1.000  H
  C49      1.0000 0.75510  0.95320  0.23210  Biso   1.000  C
  C50      1.0000 0.74490  0.45320  0.26790  Biso   1.000  C
  C51      1.0000 0.24490  0.04680  0.76790  Biso   1.000  C
  C52      1.0000 0.25510  0.54680  0.73210  Biso   1.000  C
  C53      1.0000 0.81380  0.95450  0.14850  Biso   1.000  C
  C54      1.0000 0.68620  0.45450  0.35150  Biso   1.000  C
  C55      1.0000 0.18620  0.04550  0.85150  Biso   1.000  C
  C56      1.0000 0.31380  0.54550  0.64850  Biso   1.000  C
  H41      1.0000 0.87340  0.99200  0.14900  Biso   1.000  H
  H42      1.0000 0.62660  0.49200  0.35100  Biso   1.000  H
  H43      1.0000 0.12660  0.00800  0.85100  Biso   1.000  H
  H44      1.0000 0.37340  0.50800  0.64900  Biso   1.000  H
  C57      1.0000 0.78310  0.89970  0.06520  Biso   1.000  C
  C58      1.0000 0.71690  0.39970  0.43480  Biso   1.000  C
  C59      1.0000 0.21690  0.10030  0.93480  Biso   1.000  C
  C60      1.0000 0.28310  0.60030  0.56520  Biso   1.000  C
  H45      1.0000 0.82310  0.90140  0.00970  Biso   1.000  H
  H46      1.0000 0.67690  0.40140  0.49030  Biso   1.000  H
  H47      1.0000 0.17690  0.09860  0.99030  Biso   1.000  H
  H48      1.0000 0.32310  0.59860  0.50970  Biso   1.000  H
  C61      1.0000 0.77940  0.01760  0.31930  Biso   1.000  C
  C62      1.0000 0.72060  0.51760  0.18070  Biso   1.000  C
  C63      1.0000 0.22060  0.98240  0.68070  Biso   1.000  C
  C64      1.0000 0.27940  0.48240  0.81930  Biso   1.000  C
  C65      1.0000 0.69970  0.06300  0.36530  Biso   1.000  C
  C66      1.0000 0.80030  0.56300  0.13470  Biso   1.000  C
  C67      1.0000 0.30030  0.93700  0.63470  Biso   1.000  C
  C68      1.0000 0.19970  0.43700  0.86530  Biso   1.000  C
  H49      1.0000 0.63030  0.04910  0.34480  Biso   1.000  H
  H50      1.0000 0.86970  0.54910  0.15520  Biso   1.000  H
  H51      1.0000 0.36970  0.95090  0.65520  Biso   1.000  H
  H52      1.0000 0.13030  0.45090  0.84480  Biso   1.000  H
  C69      1.0000 0.88020  0.03890  0.35660  Biso   1.000  C
  C70      1.0000 0.61980  0.53890  0.14340  Biso   1.000  C
  C71      1.0000 0.11980  0.96110  0.64340  Biso   1.000  C
  C72      1.0000 0.38020  0.46110  0.85660  Biso   1.000  C
  H53      1.0000 0.93630  0.00940  0.32950  Biso   1.000  H
  H54      1.0000 0.56370  0.50940  0.17050  Biso   1.000  H
  H55      1.0000 0.06370  0.99060  0.67050  Biso   1.000  H
  H56      1.0000 0.43630  0.49060  0.82950  Biso   1.000  H
  C73      1.0000 0.72280  0.12710  0.43960  Biso   1.000  C
  C74      1.0000 0.77720  0.62710  0.06040  Biso   1.000  C
  C75      1.0000 0.27720  0.87290  0.56040  Biso   1.000  C
  C76      1.0000 0.22280  0.37290  0.93960  Biso   1.000  C
  H57      1.0000 0.66810  0.15720  0.46850  Biso   1.000  H
  H58      1.0000 0.83190  0.65720  0.03150  Biso   1.000  H
  H59      1.0000 0.33190  0.84280  0.53150  Biso   1.000  H
  H60      1.0000 0.16810  0.34280  0.96850  Biso   1.000  H
  N13      1.0000 0.82140  0.14950  0.47350  Biso   1.000  N
  N14      1.0000 0.67860  0.64950  0.02650  Biso   1.000  N
  N15      1.0000 0.17860  0.85050  0.52650  Biso   1.000  N
  N16      1.0000 0.32140  0.35050  0.97350  Biso   1.000  N
  C77      1.0000 0.89800  0.10350  0.43360  Biso   1.000  C
  C78      1.0000 0.60200  0.60350  0.06640  Biso   1.000  C
  C79      1.0000 0.10200  0.89650  0.56640  Biso   1.000  C
  C80      1.0000 0.39800  0.39650  0.93360  Biso   1.000  C
  H61      1.0000 0.96660  0.11560  0.45890  Biso   1.000  H
  H62      1.0000 0.53340  0.61560  0.04110  Biso   1.000  H
  H63      1.0000 0.03340  0.88440  0.54110  Biso   1.000  H
  H64      1.0000 0.46660  0.38440  0.95890  Biso   1.000  H
  Cl1      1.0000 0.38065  0.79136  0.90986  Biso   1.000  Cl
  Cl2      1.0000 0.11935  0.29136  0.59014  Biso   1.000  Cl
  Cl3      1.0000 0.61935  0.20864  0.09014  Biso   1.000  Cl
  Cl4      1.0000 0.88065  0.70864  0.40986  Biso   1.000  Cl
  O1       1.0000 0.47210  0.76370  0.96880  Biso   1.000  O
  O2       1.0000 0.02790  0.26370  0.53120  Biso   1.000  O
  O3       1.0000 0.52790  0.23630  0.03120  Biso   1.000  O
  O4       1.0000 0.97210  0.73630  0.46880  Biso   1.000  O
  O5       1.0000 0.29410  0.74060  0.93450  Biso   1.000  O
  O6       1.0000 0.20590  0.24060  0.56550  Biso   1.000  O
  O7       1.0000 0.70590  0.25940  0.06550  Biso   1.000  O
  O8       1.0000 0.79410  0.75940  0.43450  Biso   1.000  O
  O9       1.0000 0.39380  0.77600  0.80500  Biso   1.000  O
  O10      1.0000 0.10620  0.27600  0.69500  Biso   1.000  O
  O11      1.0000 0.60620  0.22400  0.19500  Biso   1.000  O
  O12      1.0000 0.89380  0.72400  0.30500  Biso   1.000  O
  O13      1.0000 0.36480  0.88720  0.92290  Biso   1.000  O
  O14      1.0000 0.13520  0.38720  0.57710  Biso   1.000  O
  O15      1.0000 0.63520  0.11280  0.07710  Biso   1.000  O
  O16      1.0000 0.86480  0.61280  0.42290  Biso   1.000  O
  Cl5      1.0000 0.95534  0.78038  0.86015  Biso   1.000  Cl
  Cl6      1.0000 0.54466  0.28038  0.63985  Biso   1.000  Cl
  Cl7      1.0000 0.04466  0.21962  0.13985  Biso   1.000  Cl
  Cl8      1.0000 0.45534  0.71962  0.36015  Biso   1.000  Cl
  O17      1.0000 0.96710  0.77200  0.75440  Biso   1.000  O
  O18      1.0000 0.53290  0.27200  0.74560  Biso   1.000  O
  O19      1.0000 0.03290  0.22800  0.24560  Biso   1.000  O
  O20      1.0000 0.46710  0.72800  0.25440  Biso   1.000  O
  O21      1.0000 0.00890  0.70400  0.91280  Biso   1.000  O
  O22      1.0000 0.49110  0.20400  0.58720  Biso   1.000  O
  O23      1.0000 0.99110  0.29600  0.08720  Biso   1.000  O
  O24      1.0000 0.50890  0.79600  0.41280  Biso   1.000  O
  O25      1.0000 0.99230  0.86880  0.90010  Biso   1.000  O
  O26      1.0000 0.50770  0.36880  0.59990  Biso   1.000  O
  O27      1.0000 0.00770  0.13120  0.09990  Biso   1.000  O
  O28      1.0000 0.49230  0.63120  0.40010  Biso   1.000  O
  O29      1.0000 0.84880  0.77280  0.87360  Biso   1.000  O
  O30      1.0000 0.65120  0.27280  0.62640  Biso   1.000  O
  O31      1.0000 0.15120  0.22720  0.12640  Biso   1.000  O
  O32      1.0000 0.34880  0.72720  0.37360  Biso   1.000  O
  O33      1.0000 0.47930  0.79800  0.96700  Biso   1.000  O
  O34      1.0000 0.02070  0.29800  0.53300  Biso   1.000  O
  O35      1.0000 0.52070  0.20200  0.03300  Biso   1.000  O
  O36      1.0000 0.97930  0.70200  0.46700  Biso   1.000  O
  O37      1.0000 0.30460  0.82600  0.97060  Biso   1.000  O
  O38      1.0000 0.19540  0.32600  0.52940  Biso   1.000  O
  O39      1.0000 0.69540  0.17400  0.02940  Biso   1.000  O
  O40      1.0000 0.80460  0.67400  0.47060  Biso   1.000  O
  O41      1.0000 0.36000  0.69390  0.90570  Biso   1.000  O
  O42      1.0000 0.14000  0.19390  0.59430  Biso   1.000  O
  O43      1.0000 0.64000  0.30610  0.09430  Biso   1.000  O
  O44      1.0000 0.86000  0.80610  0.40570  Biso   1.000  O
  O45      1.0000 0.38400  0.84900  0.82700  Biso   1.000  O
  O46      1.0000 0.11600  0.34900  0.67300  Biso   1.000  O
  O47      1.0000 0.61600  0.15100  0.17300  Biso   1.000  O
  O48      1.0000 0.88400  0.65100  0.32700  Biso   1.000  O
  Cl9      1.0000 0.94000  0.78700  0.83600  Biso   1.000  Cl
  Cl10     1.0000 0.56000  0.28700  0.66400  Biso   1.000  Cl
  Cl11     1.0000 0.06000  0.21300  0.16400  Biso   1.000  Cl
  Cl12     1.0000 0.44000  0.71300  0.33600  Biso   1.000  Cl
  O49      1.0000 0.88400  0.78100  0.74000  Biso   1.000  O
  O50      1.0000 0.61600  0.28100  0.76000  Biso   1.000  O
  O51      1.0000 0.11600  0.21900  0.26000  Biso   1.000  O
  O52      1.0000 0.38400  0.71900  0.24000  Biso   1.000  O
  O53      1.0000 0.97100  0.69700  0.87600  Biso   1.000  O
  O54      1.0000 0.52900  0.19700  0.62400  Biso   1.000  O
  O55      1.0000 0.02900  0.30300  0.12400  Biso   1.000  O
  O56      1.0000 0.47100  0.80300  0.37600  Biso   1.000  O
  O57      1.0000 0.02900  0.84700  0.84500  Biso   1.000  O
  O58      1.0000 0.47100  0.34700  0.65500  Biso   1.000  O
  O59      1.0000 0.97100  0.15300  0.15500  Biso   1.000  O
  O60      1.0000 0.52900  0.65300  0.34500  Biso   1.000  O
  O61      1.0000 0.86900  0.82400  0.90200  Biso   1.000  O
  O62      1.0000 0.63100  0.32400  0.59800  Biso   1.000  O
  O63      1.0000 0.13100  0.17600  0.09800  Biso   1.000  O
  O64      1.0000 0.36900  0.67600  0.40200  Biso   1.000  O
  O65      1.0000 0.84300  0.89470  0.59700  Biso   1.000  O
  O66      1.0000 0.65700  0.39470  0.90300  Biso   1.000  O
  O67      1.0000 0.15700  0.10530  0.40300  Biso   1.000  O
  O68      1.0000 0.34300  0.60530  0.09700  Biso   1.000  O
  H65      1.0000 0.81500  0.85100  0.55300  Biso   1.000  H
  H66      1.0000 0.68500  0.35100  0.94700  Biso   1.000  H
  H67      1.0000 0.18500  0.14900  0.44700  Biso   1.000  H
  H68      1.0000 0.31500  0.64900  0.05300  Biso   1.000  H
  H69      1.0000 0.87600  0.86500  0.65000  Biso   1.000  H
  H70      1.0000 0.62400  0.36500  0.85000  Biso   1.000  H
  H71      1.0000 0.12400  0.13500  0.35000  Biso   1.000  H
  H72      1.0000 0.37600  0.63500  0.15000  Biso   1.000  H
