data_image0
_cell_length_a       9.4998
_cell_length_b       11.8441
_cell_length_c       14.4743
_cell_angle_alpha    90
_cell_angle_beta     102.61
_cell_angle_gamma    90

_symmetry_space_group_name_H-M    "P 1"
_symmetry_int_tables_number       1

loop_
  _symmetry_equiv_pos_as_xyz
  'x, y, z'

loop_
  _atom_site_label
  _atom_site_occupancy
  _atom_site_fract_x
  _atom_site_fract_y
  _atom_site_fract_z
  _atom_site_thermal_displace_type
  _atom_site_B_iso_or_equiv
  _atom_site_type_symbol
  Cu1      1.0000 0.69503  0.87100  0.25293  Biso   1.000  Cu
  Cu2      1.0000 0.30497  0.37100  0.74707  Biso   1.000  Cu
  N1       1.0000 0.85220  0.75480  0.30870  Biso   1.000  N
  N2       1.0000 0.14780  0.25480  0.69130  Biso   1.000  N
  N3       1.0000 0.85000  0.97930  0.30670  Biso   1.000  N
  N4       1.0000 0.15000  0.47930  0.69330  Biso   1.000  N
  N5       1.0000 0.54810  0.74920  0.21900  Biso   1.000  N
  N6       1.0000 0.45190  0.24920  0.78100  Biso   1.000  N
  N7       1.0000 0.54180  0.98580  0.21740  Biso   1.000  N
  N8       1.0000 0.45820  0.48580  0.78260  Biso   1.000  N
  C1       1.0000 0.85200  0.64830  0.30430  Biso   1.000  C
  C2       1.0000 0.14800  0.14830  0.69570  Biso   1.000  C
  H1       1.0000 0.77070  0.61210  0.26940  Biso   1.000  H
  H2       1.0000 0.22930  0.11210  0.73060  Biso   1.000  H
  C3       1.0000 0.96800  0.58310  0.34950  Biso   1.000  C
  C4       1.0000 0.03200  0.08310  0.65050  Biso   1.000  C
  H3       1.0000 0.96310  0.50470  0.34800  Biso   1.000  H
  H4       1.0000 0.03690  0.00470  0.65200  Biso   1.000  H
  C5       1.0000 0.08900  0.63570  0.39540  Biso   1.000  C
  C6       1.0000 0.91100  0.13570  0.60460  Biso   1.000  C
  H5       1.0000 0.16990  0.59320  0.42150  Biso   1.000  H
  H6       1.0000 0.83010  0.09320  0.57850  Biso   1.000  H
  C7       1.0000 0.09400  0.74850  0.40440  Biso   1.000  C
  C8       1.0000 0.90600  0.24850  0.59560  Biso   1.000  C
  C9       1.0000 0.21700  0.81700  0.45370  Biso   1.000  C
  C10      1.0000 0.78300  0.31700  0.54630  Biso   1.000  C
  H7       1.0000 0.30260  0.78080  0.48110  Biso   1.000  H
  H8       1.0000 0.69740  0.28080  0.51890  Biso   1.000  H
  C11      1.0000 0.21100  0.93300  0.46100  Biso   1.000  C
  C12      1.0000 0.78900  0.43300  0.53900  Biso   1.000  C
  H9       1.0000 0.28440  0.97270  0.50110  Biso   1.000  H
  H10      1.0000 0.71560  0.47270  0.49890  Biso   1.000  H
  C13      1.0000 0.09300  0.98830  0.40690  Biso   1.000  C
  C14      1.0000 0.90700  0.48830  0.59310  Biso   1.000  C
  C15      1.0000 0.08600  0.10700  0.40650  Biso   1.000  C
  C16      1.0000 0.91400  0.60700  0.59350  Biso   1.000  C
  H11      1.0000 0.15910  0.14920  0.44390  Biso   1.000  H
  H12      1.0000 0.84090  0.64920  0.55610  Biso   1.000  H
  C17      1.0000 0.97000  0.15940  0.35060  Biso   1.000  C
  C18      1.0000 0.03000  0.65940  0.64940  Biso   1.000  C
  H13      1.0000 0.96920  0.23750  0.34380  Biso   1.000  H
  H14      1.0000 0.03080  0.73750  0.65620  Biso   1.000  H
  C19      1.0000 0.85400  0.09640  0.30430  Biso   1.000  C
  C20      1.0000 0.14600  0.59640  0.69570  Biso   1.000  C
  H15      1.0000 0.77400  0.13430  0.26960  Biso   1.000  H
  H16      1.0000 0.22600  0.63430  0.73040  Biso   1.000  H
  C21      1.0000 0.97380  0.92630  0.36050  Biso   1.000  C
  C22      1.0000 0.02620  0.42630  0.63950  Biso   1.000  C
  C23      1.0000 0.96700  0.80600  0.35410  Biso   1.000  C
  C24      1.0000 0.03300  0.30600  0.64590  Biso   1.000  C
  C25      1.0000 0.49710  0.72100  0.12960  Biso   1.000  C
  C26      1.0000 0.50290  0.22100  0.87040  Biso   1.000  C
  H17      1.0000 0.52660  0.76100  0.08190  Biso   1.000  H
  H18      1.0000 0.47340  0.26100  0.91810  Biso   1.000  H
  C27      1.0000 0.40100  0.63330  0.10620  Biso   1.000  C
  C28      1.0000 0.59900  0.13330  0.89380  Biso   1.000  C
  H19      1.0000 0.37320  0.61110  0.04320  Biso   1.000  H
  H20      1.0000 0.62680  0.11110  0.95680  Biso   1.000  H
  C29      1.0000 0.34390  0.57660  0.17430  Biso   1.000  C
  C30      1.0000 0.65610  0.07660  0.82570  Biso   1.000  C
  C31      1.0000 0.39590  0.60840  0.26850  Biso   1.000  C
  C32      1.0000 0.60410  0.10840  0.73150  Biso   1.000  C
  H21      1.0000 0.36550  0.57000  0.31660  Biso   1.000  H
  H22      1.0000 0.63450  0.07000  0.68340  Biso   1.000  H
  C33      1.0000 0.49300  0.69720  0.29060  Biso   1.000  C
  C34      1.0000 0.50700  0.19720  0.70940  Biso   1.000  C
  H23      1.0000 0.52110  0.72210  0.35280  Biso   1.000  H
  H24      1.0000 0.47890  0.22210  0.64720  Biso   1.000  H
  C35      1.0000 0.24250  0.48010  0.15380  Biso   1.000  C
  C36      1.0000 0.75750  0.98010  0.84620  Biso   1.000  C
  H25      1.0000 0.18590  0.48450  0.08950  Biso   1.000  H
  H26      1.0000 0.81410  0.98450  0.91050  Biso   1.000  H
  H27      1.0000 0.17740  0.47990  0.19690  Biso   1.000  H
  H28      1.0000 0.82260  0.97990  0.80310  Biso   1.000  H
  C37      1.0000 0.33520  0.37460  0.16700  Biso   1.000  C
  C38      1.0000 0.66480  0.87460  0.83300  Biso   1.000  C
  H29      1.0000 0.39790  0.37600  0.22970  Biso   1.000  H
  H30      1.0000 0.60210  0.87600  0.77030  Biso   1.000  H
  H31      1.0000 0.39590  0.37510  0.12120  Biso   1.000  H
  H32      1.0000 0.60410  0.87510  0.87880  Biso   1.000  H
  C39      1.0000 0.24670  0.26480  0.15570  Biso   1.000  C
  C40      1.0000 0.75330  0.76480  0.84430  Biso   1.000  C
  H33      1.0000 0.18150  0.26580  0.19870  Biso   1.000  H
  H34      1.0000 0.81850  0.76580  0.80130  Biso   1.000  H
  H35      1.0000 0.18900  0.26010  0.09160  Biso   1.000  H
  H36      1.0000 0.81100  0.76010  0.90840  Biso   1.000  H
  C41      1.0000 0.34240  0.16330  0.17560  Biso   1.000  C
  C42      1.0000 0.65760  0.66330  0.82440  Biso   1.000  C
  C43      1.0000 0.38250  0.10440  0.10580  Biso   1.000  C
  C44      1.0000 0.61750  0.60440  0.89420  Biso   1.000  C
  H37      1.0000 0.34120  0.12080  0.04290  Biso   1.000  H
  H38      1.0000 0.65880  0.62080  0.95710  Biso   1.000  H
  C45      1.0000 0.48600  0.01840  0.12780  Biso   1.000  C
  C46      1.0000 0.51400  0.51840  0.87220  Biso   1.000  C
  H39      1.0000 0.51770  0.98280  0.07880  Biso   1.000  H
  H40      1.0000 0.48230  0.48280  0.92120  Biso   1.000  H
  C47      1.0000 0.49900  0.03990  0.28210  Biso   1.000  C
  C48      1.0000 0.50100  0.53990  0.71790  Biso   1.000  C
  H41      1.0000 0.53930  0.02170  0.34470  Biso   1.000  H
  H42      1.0000 0.46070  0.52170  0.65530  Biso   1.000  H
  C49      1.0000 0.39500  0.12400  0.26510  Biso   1.000  C
  C50      1.0000 0.60500  0.62400  0.73490  Biso   1.000  C
  H43      1.0000 0.36130  0.15410  0.31540  Biso   1.000  H
  H44      1.0000 0.63870  0.65410  0.68460  Biso   1.000  H
  O1       1.0000 0.75950  0.87590  0.10470  Biso   1.000  O
  O2       1.0000 0.24050  0.37590  0.89530  Biso   1.000  O
  N9       1.0000 0.99710  0.88940  0.10910  Biso   1.000  N
  N10      1.0000 0.00290  0.38940  0.89090  Biso   1.000  N
  C51      1.0000 0.87900  0.83240  0.11300  Biso   1.000  C
  C52      1.0000 0.12100  0.33240  0.88700  Biso   1.000  C
  H45      1.0000 0.88680  0.75480  0.12250  Biso   1.000  H
  H46      1.0000 0.11320  0.25480  0.87750  Biso   1.000  H
  C53      1.0000 0.99820  0.01020  0.10500  Biso   1.000  C
  C54      1.0000 0.00180  0.51020  0.89500  Biso   1.000  C
  H47      1.0000 0.90200  0.03720  0.08080  Biso   1.000  H
  H48      1.0000 0.09800  0.53720  0.91920  Biso   1.000  H
  H49      1.0000 0.05950  0.03420  0.06400  Biso   1.000  H
  H50      1.0000 0.94050  0.53420  0.93600  Biso   1.000  H
  H51      1.0000 0.03400  0.04010  0.16730  Biso   1.000  H
  H52      1.0000 0.96600  0.54010  0.83270  Biso   1.000  H
  C55      1.0000 0.13430  0.83290  0.11930  Biso   1.000  C
  C56      1.0000 0.86570  0.33290  0.88070  Biso   1.000  C
  H53      1.0000 0.16910  0.84190  0.06220  Biso   1.000  H
  H54      1.0000 0.83090  0.34190  0.93780  Biso   1.000  H
  H55      1.0000 0.12280  0.75400  0.13090  Biso   1.000  H
  H56      1.0000 0.87720  0.25400  0.86910  Biso   1.000  H
  H57      1.0000 0.20240  0.86520  0.17140  Biso   1.000  H
  H58      1.0000 0.79760  0.36520  0.82860  Biso   1.000  H
  Cl1      1.0000 0.65900  0.88800  0.52600  Biso   1.000  Cl
  Cl2      1.0000 0.34100  0.38800  0.47400  Biso   1.000  Cl
  O3       1.0000 0.64500  0.84900  0.43300  Biso   1.000  O
  O4       1.0000 0.35500  0.34900  0.56700  Biso   1.000  O
  O5       1.0000 0.80700  0.87800  0.56800  Biso   1.000  O
  O6       1.0000 0.19300  0.37800  0.43200  Biso   1.000  O
  O7       1.0000 0.56400  0.83800  0.57700  Biso   1.000  O
  O8       1.0000 0.43600  0.33800  0.42300  Biso   1.000  O
  O9       1.0000 0.61700  0.00200  0.51700  Biso   1.000  O
  O10      1.0000 0.38300  0.50200  0.48300  Biso   1.000  O
  Cl3      1.0000 0.66140  0.86750  0.53100  Biso   1.000  Cl
  Cl4      1.0000 0.33860  0.36750  0.46900  Biso   1.000  Cl
  O11      1.0000 0.71700  0.88520  0.44940  Biso   1.000  O
  O12      1.0000 0.28300  0.38520  0.55060  Biso   1.000  O
  O13      1.0000 0.77010  0.86640  0.61360  Biso   1.000  O
  O14      1.0000 0.22990  0.36640  0.38640  Biso   1.000  O
  O15      1.0000 0.58370  0.76660  0.52170  Biso   1.000  O
  O16      1.0000 0.41630  0.26660  0.47830  Biso   1.000  O
  O17      1.0000 0.56500  0.95740  0.53800  Biso   1.000  O
  O18      1.0000 0.43500  0.45740  0.46200  Biso   1.000  O
  Cl5      1.0000 0.77240  0.36880  0.13590  Biso   1.000  Cl
  Cl6      1.0000 0.22760  0.86880  0.86410  Biso   1.000  Cl
  O19      1.0000 0.73950  0.36500  0.22680  Biso   1.000  O
  O20      1.0000 0.26050  0.86500  0.77320  Biso   1.000  O
  O21      1.0000 0.82200  0.25700  0.11320  Biso   1.000  O
  O22      1.0000 0.17800  0.75700  0.88680  Biso   1.000  O
  O23      1.0000 0.65390  0.39810  0.06110  Biso   1.000  O
  O24      1.0000 0.34610  0.89810  0.93890  Biso   1.000  O
  O25      1.0000 0.89900  0.42000  0.13310  Biso   1.000  O
  O26      1.0000 0.10100  0.92000  0.86690  Biso   1.000  O
  Cl7      1.0000 0.75800  0.38700  0.12000  Biso   1.000  Cl
  Cl8      1.0000 0.24200  0.88700  0.88000  Biso   1.000  Cl
  O27      1.0000 0.67900  0.48300  0.12900  Biso   1.000  O
  O28      1.0000 0.32100  0.98300  0.87100  Biso   1.000  O
  O29      1.0000 0.84900  0.41100  0.05900  Biso   1.000  O
  O30      1.0000 0.15100  0.91100  0.94100  Biso   1.000  O
  O31      1.0000 0.66900  0.29000  0.08800  Biso   1.000  O
  O32      1.0000 0.33100  0.79000  0.91200  Biso   1.000  O
  O33      1.0000 0.86800  0.36100  0.20000  Biso   1.000  O
  O34      1.0000 0.13200  0.86100  0.80000  Biso   1.000  O
