data_image0
_cell_length_a       10.083
_cell_length_b       9.4517
_cell_length_c       13.218
_cell_angle_alpha    90
_cell_angle_beta     90
_cell_angle_gamma    90

_symmetry_space_group_name_H-M    "P 1"
_symmetry_int_tables_number       1

loop_
  _symmetry_equiv_pos_as_xyz
  'x, y, z'

loop_
  _atom_site_label
  _atom_site_occupancy
  _atom_site_fract_x
  _atom_site_fract_y
  _atom_site_fract_z
  _atom_site_thermal_displace_type
  _atom_site_B_iso_or_equiv
  _atom_site_type_symbol
  Cu1      1.0000 0.92773  0.14438  0.71916  Biso   1.000  Cu
  Cu2      1.0000 0.42773  0.14438  0.78084  Biso   1.000  Cu
  Cu3      1.0000 0.92773  0.35562  0.21916  Biso   1.000  Cu
  Cu4      1.0000 0.57227  0.64438  0.71916  Biso   1.000  Cu
  Cu5      1.0000 0.07227  0.85562  0.28084  Biso   1.000  Cu
  Cu6      1.0000 0.57227  0.85562  0.21916  Biso   1.000  Cu
  Cu7      1.0000 0.07227  0.64438  0.78084  Biso   1.000  Cu
  Cu8      1.0000 0.42773  0.35562  0.28084  Biso   1.000  Cu
  P1       1.0000 0.82033  0.46679  0.69079  Biso   1.000  P
  P2       1.0000 0.32033  0.46679  0.80921  Biso   1.000  P
  P3       1.0000 0.82033  0.03321  0.19079  Biso   1.000  P
  P4       1.0000 0.67967  0.96679  0.69079  Biso   1.000  P
  P5       1.0000 0.17967  0.53321  0.30921  Biso   1.000  P
  P6       1.0000 0.67967  0.53321  0.19079  Biso   1.000  P
  P7       1.0000 0.17967  0.96679  0.80921  Biso   1.000  P
  P8       1.0000 0.32033  0.03321  0.30921  Biso   1.000  P
  O1       1.0000 0.81010  0.30700  0.69640  Biso   1.000  O
  O2       1.0000 0.31010  0.30700  0.80360  Biso   1.000  O
  O3       1.0000 0.81010  0.19300  0.19640  Biso   1.000  O
  O4       1.0000 0.68990  0.80700  0.69640  Biso   1.000  O
  O5       1.0000 0.18990  0.69300  0.30360  Biso   1.000  O
  O6       1.0000 0.68990  0.69300  0.19640  Biso   1.000  O
  O7       1.0000 0.18990  0.80700  0.80360  Biso   1.000  O
  O8       1.0000 0.31010  0.19300  0.30360  Biso   1.000  O
  O9       1.0000 0.72690  0.53890  0.76540  Biso   1.000  O
  O10      1.0000 0.22690  0.53890  0.73460  Biso   1.000  O
  O11      1.0000 0.72690  0.96110  0.26540  Biso   1.000  O
  O12      1.0000 0.77310  0.03890  0.76540  Biso   1.000  O
  O13      1.0000 0.27310  0.46110  0.23460  Biso   1.000  O
  O14      1.0000 0.77310  0.46110  0.26540  Biso   1.000  O
  O15      1.0000 0.27310  0.03890  0.73460  Biso   1.000  O
  O16      1.0000 0.22690  0.96110  0.23460  Biso   1.000  O
  O17      1.0000 0.96330  0.51410  0.70211  Biso   1.000  O
  O18      1.0000 0.46330  0.51410  0.79789  Biso   1.000  O
  O19      1.0000 0.96330  0.98590  0.20211  Biso   1.000  O
  O20      1.0000 0.53670  0.01410  0.70211  Biso   1.000  O
  O21      1.0000 0.03670  0.48590  0.29789  Biso   1.000  O
  O22      1.0000 0.53670  0.48590  0.20211  Biso   1.000  O
  O23      1.0000 0.03670  0.01410  0.79789  Biso   1.000  O
  O24      1.0000 0.46330  0.98590  0.29789  Biso   1.000  O
  O25      1.0000 0.08170  0.25970  0.67960  Biso   1.000  O
  O26      1.0000 0.58170  0.25970  0.82040  Biso   1.000  O
  O27      1.0000 0.08170  0.24030  0.17960  Biso   1.000  O
  O28      1.0000 0.41830  0.75970  0.67960  Biso   1.000  O
  O29      1.0000 0.91830  0.74030  0.32040  Biso   1.000  O
  O30      1.0000 0.41830  0.74030  0.17960  Biso   1.000  O
  O31      1.0000 0.91830  0.75970  0.82040  Biso   1.000  O
  O32      1.0000 0.58170  0.24030  0.32040  Biso   1.000  O
  H1       1.0000 0.15890  0.22940  0.70330  Biso   1.000  H
  H2       1.0000 0.65890  0.22940  0.79670  Biso   1.000  H
  H3       1.0000 0.15890  0.27060  0.20330  Biso   1.000  H
  H4       1.0000 0.34110  0.72940  0.70330  Biso   1.000  H
  H5       1.0000 0.84110  0.77060  0.29670  Biso   1.000  H
  H6       1.0000 0.34110  0.77060  0.20330  Biso   1.000  H
  H7       1.0000 0.84110  0.72940  0.79670  Biso   1.000  H
  H8       1.0000 0.65890  0.27060  0.29670  Biso   1.000  H
  H9       1.0000 0.06230  0.35150  0.67530  Biso   1.000  H
  H10      1.0000 0.56230  0.35150  0.82470  Biso   1.000  H
  H11      1.0000 0.06230  0.14850  0.17530  Biso   1.000  H
  H12      1.0000 0.43770  0.85150  0.67530  Biso   1.000  H
  H13      1.0000 0.93770  0.64850  0.32470  Biso   1.000  H
  H14      1.0000 0.43770  0.64850  0.17530  Biso   1.000  H
  H15      1.0000 0.93770  0.85150  0.82470  Biso   1.000  H
  H16      1.0000 0.56230  0.14850  0.32470  Biso   1.000  H
  N1       1.0000 0.61880  0.53270  0.55980  Biso   1.000  N
  N2       1.0000 0.11880  0.53270  0.94020  Biso   1.000  N
  N3       1.0000 0.61880  0.96730  0.05980  Biso   1.000  N
  N4       1.0000 0.88120  0.03270  0.55980  Biso   1.000  N
  N5       1.0000 0.38120  0.46730  0.44020  Biso   1.000  N
  N6       1.0000 0.88120  0.46730  0.05980  Biso   1.000  N
  N7       1.0000 0.38120  0.03270  0.94020  Biso   1.000  N
  N8       1.0000 0.11880  0.96730  0.44020  Biso   1.000  N
  C1       1.0000 0.76490  0.52540  0.56760  Biso   1.000  C
  C2       1.0000 0.26490  0.52540  0.93240  Biso   1.000  C
  C3       1.0000 0.76490  0.97460  0.06760  Biso   1.000  C
  C4       1.0000 0.73510  0.02540  0.56760  Biso   1.000  C
  C5       1.0000 0.23510  0.47460  0.43240  Biso   1.000  C
  C6       1.0000 0.73510  0.47460  0.06760  Biso   1.000  C
  C7       1.0000 0.23510  0.02540  0.93240  Biso   1.000  C
  C8       1.0000 0.26490  0.97460  0.43240  Biso   1.000  C
  H17      1.0000 0.80180  0.61820  0.55390  Biso   1.000  H
  H18      1.0000 0.30180  0.61820  0.94610  Biso   1.000  H
  H19      1.0000 0.80180  0.88180  0.05390  Biso   1.000  H
  H20      1.0000 0.69820  0.11820  0.55390  Biso   1.000  H
  H21      1.0000 0.19820  0.38180  0.44610  Biso   1.000  H
  H22      1.0000 0.69820  0.38180  0.05390  Biso   1.000  H
  H23      1.0000 0.19820  0.11820  0.94610  Biso   1.000  H
  H24      1.0000 0.30180  0.88180  0.44610  Biso   1.000  H
  H25      1.0000 0.79820  0.46080  0.51650  Biso   1.000  H
  H26      1.0000 0.29820  0.46080  0.98350  Biso   1.000  H
  H27      1.0000 0.79820  0.03920  0.01650  Biso   1.000  H
  H28      1.0000 0.70180  0.96080  0.51650  Biso   1.000  H
  H29      1.0000 0.20180  0.53920  0.48350  Biso   1.000  H
  H30      1.0000 0.70180  0.53920  0.01650  Biso   1.000  H
  H31      1.0000 0.20180  0.96080  0.98350  Biso   1.000  H
  H32      1.0000 0.29820  0.03920  0.48350  Biso   1.000  H
  C9       1.0000 0.58300  0.61080  0.46830  Biso   1.000  C
  C10      1.0000 0.08300  0.61080  0.03170  Biso   1.000  C
  C11      1.0000 0.58300  0.88920  0.96830  Biso   1.000  C
  C12      1.0000 0.91700  0.11080  0.46830  Biso   1.000  C
  C13      1.0000 0.41700  0.38920  0.53170  Biso   1.000  C
  C14      1.0000 0.91700  0.38920  0.96830  Biso   1.000  C
  C15      1.0000 0.41700  0.11080  0.03170  Biso   1.000  C
  C16      1.0000 0.08300  0.88920  0.53170  Biso   1.000  C
  H33      1.0000 0.62650  0.56780  0.41050  Biso   1.000  H
  H34      1.0000 0.12650  0.56780  0.08950  Biso   1.000  H
  H35      1.0000 0.62650  0.93220  0.91050  Biso   1.000  H
  H36      1.0000 0.87350  0.06780  0.41050  Biso   1.000  H
  H37      1.0000 0.37350  0.43220  0.58950  Biso   1.000  H
  H38      1.0000 0.87350  0.43220  0.91050  Biso   1.000  H
  H39      1.0000 0.37350  0.06780  0.08950  Biso   1.000  H
  H40      1.0000 0.12650  0.93220  0.58950  Biso   1.000  H
  H41      1.0000 0.61460  0.70740  0.47400  Biso   1.000  H
  H42      1.0000 0.11460  0.70740  0.02600  Biso   1.000  H
  H43      1.0000 0.61460  0.79260  0.97400  Biso   1.000  H
  H44      1.0000 0.88540  0.20740  0.47400  Biso   1.000  H
  H45      1.0000 0.38540  0.29260  0.52600  Biso   1.000  H
  H46      1.0000 0.88540  0.29260  0.97400  Biso   1.000  H
  H47      1.0000 0.38540  0.20740  0.02600  Biso   1.000  H
  H48      1.0000 0.11460  0.79260  0.52600  Biso   1.000  H
  C17      1.0000 0.56470  0.38780  0.54950  Biso   1.000  C
  C18      1.0000 0.06470  0.38780  0.95050  Biso   1.000  C
  C19      1.0000 0.56470  0.11220  0.04950  Biso   1.000  C
  C20      1.0000 0.93530  0.88780  0.54950  Biso   1.000  C
  C21      1.0000 0.43530  0.61220  0.45050  Biso   1.000  C
  C22      1.0000 0.93530  0.61220  0.04950  Biso   1.000  C
  C23      1.0000 0.43530  0.88780  0.95050  Biso   1.000  C
  C24      1.0000 0.06470  0.11220  0.45050  Biso   1.000  C
  H49      1.0000 0.58380  0.33450  0.61050  Biso   1.000  H
  H50      1.0000 0.08380  0.33450  0.88950  Biso   1.000  H
  H51      1.0000 0.58380  0.16550  0.11050  Biso   1.000  H
  H52      1.0000 0.91620  0.83450  0.61050  Biso   1.000  H
  H53      1.0000 0.41620  0.66550  0.38950  Biso   1.000  H
  H54      1.0000 0.91620  0.66550  0.11050  Biso   1.000  H
  H55      1.0000 0.41620  0.83450  0.88950  Biso   1.000  H
  H56      1.0000 0.08380  0.16550  0.38950  Biso   1.000  H
  H57      1.0000 0.60800  0.34060  0.49330  Biso   1.000  H
  H58      1.0000 0.10800  0.34060  0.00670  Biso   1.000  H
  H59      1.0000 0.60800  0.15940  0.99330  Biso   1.000  H
  H60      1.0000 0.89200  0.84060  0.49330  Biso   1.000  H
  H61      1.0000 0.39200  0.65940  0.50670  Biso   1.000  H
  H62      1.0000 0.89200  0.65940  0.99330  Biso   1.000  H
  H63      1.0000 0.39200  0.84060  0.00670  Biso   1.000  H
  H64      1.0000 0.10800  0.15940  0.50670  Biso   1.000  H
