data_image0
_cell_length_a       6.49
_cell_length_b       12.528
_cell_length_c       15.436
_cell_angle_alpha    90
_cell_angle_beta     91.379
_cell_angle_gamma    90

_symmetry_space_group_name_H-M    "P 1"
_symmetry_int_tables_number       1

loop_
  _symmetry_equiv_pos_as_xyz
  'x, y, z'

loop_
  _atom_site_label
  _atom_site_occupancy
  _atom_site_fract_x
  _atom_site_fract_y
  _atom_site_fract_z
  _atom_site_thermal_displace_type
  _atom_site_B_iso_or_equiv
  _atom_site_type_symbol
  C1       1.0000 0.79050  0.74802  0.29647  Biso   1.000  C
  C2       1.0000 0.70950  0.24802  0.20353  Biso   1.000  C
  C3       1.0000 0.20950  0.25198  0.70353  Biso   1.000  C
  C4       1.0000 0.29050  0.75198  0.79647  Biso   1.000  C
  H1       1.0000 0.87110  0.75520  0.35140  Biso   1.000  H
  H2       1.0000 0.62890  0.25520  0.14860  Biso   1.000  H
  H3       1.0000 0.12890  0.24480  0.64860  Biso   1.000  H
  H4       1.0000 0.37110  0.74480  0.85140  Biso   1.000  H
  H5       1.0000 0.64200  0.75240  0.30930  Biso   1.000  H
  H6       1.0000 0.85800  0.25240  0.19070  Biso   1.000  H
  H7       1.0000 0.35800  0.24760  0.69070  Biso   1.000  H
  H8       1.0000 0.14200  0.74760  0.80930  Biso   1.000  H
  C5       1.0000 0.83900  0.64296  0.25244  Biso   1.000  C
  C6       1.0000 0.66100  0.14296  0.24756  Biso   1.000  C
  C7       1.0000 0.16100  0.35704  0.74756  Biso   1.000  C
  C8       1.0000 0.33900  0.85704  0.75244  Biso   1.000  C
  H9       1.0000 0.98350  0.62150  0.26480  Biso   1.000  H
  H10      1.0000 0.51650  0.12150  0.23520  Biso   1.000  H
  H11      1.0000 0.01650  0.37850  0.73520  Biso   1.000  H
  H12      1.0000 0.48350  0.87850  0.76480  Biso   1.000  H
  H13      1.0000 0.74630  0.58570  0.27240  Biso   1.000  H
  H14      1.0000 0.75370  0.08570  0.22760  Biso   1.000  H
  H15      1.0000 0.25370  0.41430  0.72760  Biso   1.000  H
  H16      1.0000 0.24630  0.91430  0.77240  Biso   1.000  H
  C9       1.0000 0.81550  0.76582  0.13392  Biso   1.000  C
  C10      1.0000 0.68450  0.26582  0.36608  Biso   1.000  C
  C11      1.0000 0.18450  0.23418  0.86608  Biso   1.000  C
  C12      1.0000 0.31550  0.73418  0.63392  Biso   1.000  C
  C13      1.0000 0.74630  0.71467  0.99112  Biso   1.000  C
  C14      1.0000 0.75370  0.21467  0.50888  Biso   1.000  C
  C15      1.0000 0.25370  0.28533  0.00888  Biso   1.000  C
  C16      1.0000 0.24630  0.78533  0.49112  Biso   1.000  C
  C17      1.0000 0.76130  0.60201  0.02232  Biso   1.000  C
  C18      1.0000 0.73870  0.10201  0.47768  Biso   1.000  C
  C19      1.0000 0.23870  0.39799  0.97768  Biso   1.000  C
  C20      1.0000 0.26130  0.89799  0.52232  Biso   1.000  C
  C21      1.0000 0.74020  0.50858  0.96357  Biso   1.000  C
  C22      1.0000 0.75980  0.00858  0.53643  Biso   1.000  C
  C23      1.0000 0.25980  0.49142  0.03643  Biso   1.000  C
  C24      1.0000 0.24020  0.99142  0.46357  Biso   1.000  C
  C25      1.0000 0.74950  0.40624  0.00021  Biso   1.000  C
  C26      1.0000 0.75050  0.90624  0.49979  Biso   1.000  C
  C27      1.0000 0.25050  0.59376  0.99979  Biso   1.000  C
  C28      1.0000 0.24950  0.09376  0.50021  Biso   1.000  C
  H17      1.0000 0.77150  0.39880  0.06100  Biso   1.000  H
  H18      1.0000 0.72850  0.89880  0.43900  Biso   1.000  H
  H19      1.0000 0.22850  0.60120  0.93900  Biso   1.000  H
  H20      1.0000 0.27150  0.10120  0.56100  Biso   1.000  H
  C29      1.0000 0.72700  0.31590  0.94930  Biso   1.000  C
  C30      1.0000 0.77300  0.81590  0.55070  Biso   1.000  C
  C31      1.0000 0.27300  0.68410  0.05070  Biso   1.000  C
  C32      1.0000 0.22700  0.18410  0.44930  Biso   1.000  C
  H21      1.0000 0.73380  0.24710  0.97510  Biso   1.000  H
  H22      1.0000 0.76620  0.74710  0.52490  Biso   1.000  H
  H23      1.0000 0.26620  0.75290  0.02490  Biso   1.000  H
  H24      1.0000 0.23380  0.25290  0.47510  Biso   1.000  H
  C33      1.0000 0.69460  0.32600  0.86062  Biso   1.000  C
  C34      1.0000 0.80540  0.82600  0.63938  Biso   1.000  C
  C35      1.0000 0.30540  0.67400  0.13938  Biso   1.000  C
  C36      1.0000 0.19460  0.17400  0.36062  Biso   1.000  C
  H25      1.0000 0.67780  0.26420  0.82560  Biso   1.000  H
  H26      1.0000 0.82220  0.76420  0.67440  Biso   1.000  H
  H27      1.0000 0.32220  0.73580  0.17440  Biso   1.000  H
  H28      1.0000 0.17780  0.23580  0.32560  Biso   1.000  H
  C37      1.0000 0.68660  0.42650  0.82303  Biso   1.000  C
  C38      1.0000 0.81340  0.92650  0.67697  Biso   1.000  C
  C39      1.0000 0.31340  0.57350  0.17697  Biso   1.000  C
  C40      1.0000 0.18660  0.07350  0.32303  Biso   1.000  C
  H29      1.0000 0.66470  0.43330  0.76220  Biso   1.000  H
  H30      1.0000 0.83530  0.93330  0.73780  Biso   1.000  H
  H31      1.0000 0.33530  0.56670  0.23780  Biso   1.000  H
  H32      1.0000 0.16470  0.06670  0.26220  Biso   1.000  H
  C41      1.0000 0.71040  0.51720  0.87385  Biso   1.000  C
  C42      1.0000 0.78960  0.01720  0.62615  Biso   1.000  C
  C43      1.0000 0.28960  0.48280  0.12615  Biso   1.000  C
  C44      1.0000 0.21040  0.98280  0.37385  Biso   1.000  C
  H33      1.0000 0.70650  0.58570  0.84750  Biso   1.000  H
  H34      1.0000 0.79350  0.08570  0.65250  Biso   1.000  H
  H35      1.0000 0.29350  0.41430  0.15250  Biso   1.000  H
  H36      1.0000 0.20650  0.91430  0.34750  Biso   1.000  H
  Cl1      1.0000 0.45348  0.95505  0.09129  Biso   1.000  Cl
  Cl2      1.0000 0.04652  0.45505  0.40871  Biso   1.000  Cl
  Cl3      1.0000 0.54652  0.04495  0.90871  Biso   1.000  Cl
  Cl4      1.0000 0.95348  0.54495  0.59129  Biso   1.000  Cl
  Cl5      1.0000 0.01946  0.93160  0.91246  Biso   1.000  Cl
  Cl6      1.0000 0.48054  0.43160  0.58754  Biso   1.000  Cl
  Cl7      1.0000 0.98054  0.06840  0.08754  Biso   1.000  Cl
  Cl8      1.0000 0.51946  0.56840  0.41246  Biso   1.000  Cl
  Cu1      1.0000 0.74084  0.94058  0.00181  Biso   1.000  Cu
  Cu2      1.0000 0.75916  0.44058  0.49819  Biso   1.000  Cu
  Cu3      1.0000 0.25916  0.05942  0.99819  Biso   1.000  Cu
  Cu4      1.0000 0.24084  0.55942  0.50181  Biso   1.000  Cu
  N1       1.0000 0.78560  0.58060  0.10446  Biso   1.000  N
  N2       1.0000 0.71440  0.08060  0.39554  Biso   1.000  N
  N3       1.0000 0.21440  0.41940  0.89554  Biso   1.000  N
  N4       1.0000 0.28560  0.91940  0.60446  Biso   1.000  N
  N5       1.0000 0.80510  0.66379  0.15958  Biso   1.000  N
  N6       1.0000 0.69490  0.16379  0.34042  Biso   1.000  N
  N7       1.0000 0.19490  0.33621  0.84042  Biso   1.000  N
  N8       1.0000 0.30510  0.83621  0.65958  Biso   1.000  N
  N9       1.0000 0.79020  0.79378  0.05210  Biso   1.000  N
  N10      1.0000 0.70980  0.29378  0.44790  Biso   1.000  N
  N11      1.0000 0.20980  0.20622  0.94790  Biso   1.000  N
  N12      1.0000 0.29020  0.70622  0.55210  Biso   1.000  N
  O1       1.0000 0.69460  0.74058  0.91735  Biso   1.000  O
  O2       1.0000 0.80540  0.24058  0.58265  Biso   1.000  O
  O3       1.0000 0.30540  0.25942  0.08265  Biso   1.000  O
  O4       1.0000 0.19460  0.75942  0.41735  Biso   1.000  O
  S1       1.0000 0.86185  0.85275  0.21984  Biso   1.000  S
  S2       1.0000 0.63815  0.35275  0.28016  Biso   1.000  S
  S3       1.0000 0.13815  0.14725  0.78016  Biso   1.000  S
  S4       1.0000 0.36185  0.64725  0.71984  Biso   1.000  S
