data_image0
_cell_length_a       7.499
_cell_length_b       9.373
_cell_length_c       10.432
_cell_angle_alpha    102.561
_cell_angle_beta     101.359
_cell_angle_gamma    109.456

_symmetry_space_group_name_H-M    "P 1"
_symmetry_int_tables_number       1

loop_
  _symmetry_equiv_pos_as_xyz
  'x, y, z'

loop_
  _atom_site_label
  _atom_site_occupancy
  _atom_site_fract_x
  _atom_site_fract_y
  _atom_site_fract_z
  _atom_site_thermal_displace_type
  _atom_site_B_iso_or_equiv
  _atom_site_type_symbol
  Cu1      1.0000 0.00000  0.50000  0.00000  Biso   1.000  Cu
  Cu2      1.0000 0.00000  0.00000  0.50000  Biso   1.000  Cu
  Cl1      1.0000 0.16535  0.90251  0.19366  Biso   1.000  Cl
  Cl2      1.0000 0.83465  0.09749  0.80634  Biso   1.000  Cl
  N1       1.0000 0.38470  0.75640  0.51370  Biso   1.000  N
  N2       1.0000 0.61530  0.24360  0.48630  Biso   1.000  N
  N3       1.0000 0.06530  0.48650  0.18700  Biso   1.000  N
  N4       1.0000 0.93470  0.51350  0.81300  Biso   1.000  N
  N5       1.0000 0.08570  0.20860  0.47180  Biso   1.000  N
  N6       1.0000 0.91430  0.79140  0.52820  Biso   1.000  N
  O1       1.0000 0.40590  0.60360  0.65100  Biso   1.000  O
  O2       1.0000 0.59410  0.39640  0.34900  Biso   1.000  O
  O3       1.0000 0.27630  0.54980  0.00180  Biso   1.000  O
  O4       1.0000 0.72370  0.45020  0.99820  Biso   1.000  O
  O5       1.0000 0.25180  0.06480  0.63600  Biso   1.000  O
  O6       1.0000 0.74820  0.93520  0.36400  Biso   1.000  O
  O7       1.0000 0.04550  0.78170  0.07200  Biso   1.000  O
  O8       1.0000 0.95450  0.21830  0.92800  Biso   1.000  O
  O9       1.0000 0.10400  0.87130  0.30490  Biso   1.000  O
  O10      1.0000 0.89600  0.12870  0.69510  Biso   1.000  O
  O11      1.0000 0.35520  0.90580  0.21340  Biso   1.000  O
  O12      1.0000 0.64480  0.09420  0.78660  Biso   1.000  O
  O13      1.0000 0.16450  0.05090  0.18110  Biso   1.000  O
  O14      1.0000 0.83550  0.94910  0.81890  Biso   1.000  O
  O15      1.0000 0.24410  0.97120  0.86400  Biso   1.000  O
  O16      1.0000 0.75590  0.02880  0.13600  Biso   1.000  O
  O17      1.0000 0.45430  0.78240  0.90880  Biso   1.000  O
  O18      1.0000 0.54570  0.21760  0.09120  Biso   1.000  O
  O19      1.0000 0.40910  0.38260  0.77880  Biso   1.000  O
  O20      1.0000 0.59090  0.61740  0.22120  Biso   1.000  O
  C1       1.0000 0.33440  0.61450  0.53730  Biso   1.000  C
  C2       1.0000 0.66560  0.38550  0.46270  Biso   1.000  C
  C3       1.0000 0.19560  0.47610  0.42680  Biso   1.000  C
  C4       1.0000 0.80440  0.52390  0.57320  Biso   1.000  C
  C5       1.0000 0.12300  0.48060  0.29470  Biso   1.000  C
  C6       1.0000 0.87700  0.51940  0.70530  Biso   1.000  C
  C7       1.0000 0.13520  0.32840  0.45130  Biso   1.000  C
  C8       1.0000 0.86480  0.67160  0.54870  Biso   1.000  C
