data_image0
_cell_length_a       23.2883
_cell_length_b       8.2457
_cell_length_c       18.2854
_cell_angle_alpha    90
_cell_angle_beta     115.121
_cell_angle_gamma    90

_symmetry_space_group_name_H-M    "P 1"
_symmetry_int_tables_number       1

loop_
  _symmetry_equiv_pos_as_xyz
  'x, y, z'

loop_
  _atom_site_label
  _atom_site_occupancy
  _atom_site_fract_x
  _atom_site_fract_y
  _atom_site_fract_z
  _atom_site_thermal_displace_type
  _atom_site_B_iso_or_equiv
  _atom_site_type_symbol
  Cu1      1.0000 0.18963  0.05824  0.12376  Biso   1.000  Cu
  Cu2      1.0000 0.68963  0.55824  0.12376  Biso   1.000  Cu
  Cu3      1.0000 0.18963  0.94176  0.62376  Biso   1.000  Cu
  Cu4      1.0000 0.68963  0.44176  0.62376  Biso   1.000  Cu
  Cu5      1.0000 0.81037  0.94176  0.87624  Biso   1.000  Cu
  Cu6      1.0000 0.31037  0.44176  0.87624  Biso   1.000  Cu
  Cu7      1.0000 0.81037  0.05824  0.37624  Biso   1.000  Cu
  Cu8      1.0000 0.31037  0.55824  0.37624  Biso   1.000  Cu
  V1       1.0000 0.42170  0.82531  0.18168  Biso   1.000  V
  V2       1.0000 0.92170  0.32531  0.18168  Biso   1.000  V
  V3       1.0000 0.42170  0.17469  0.68168  Biso   1.000  V
  V4       1.0000 0.92170  0.67469  0.68168  Biso   1.000  V
  V5       1.0000 0.57830  0.17469  0.81832  Biso   1.000  V
  V6       1.0000 0.07830  0.67469  0.81832  Biso   1.000  V
  V7       1.0000 0.57830  0.82531  0.31832  Biso   1.000  V
  V8       1.0000 0.07830  0.32531  0.31832  Biso   1.000  V
  P1       1.0000 0.29725  0.81048  0.22263  Biso   1.000  P
  P2       1.0000 0.79725  0.31048  0.22263  Biso   1.000  P
  P3       1.0000 0.29725  0.18952  0.72263  Biso   1.000  P
  P4       1.0000 0.79725  0.68952  0.72263  Biso   1.000  P
  P5       1.0000 0.70275  0.18952  0.77737  Biso   1.000  P
  P6       1.0000 0.20275  0.68952  0.77737  Biso   1.000  P
  P7       1.0000 0.70275  0.81048  0.27737  Biso   1.000  P
  P8       1.0000 0.20275  0.31048  0.27737  Biso   1.000  P
  O1       1.0000 0.24894  0.88204  0.14395  Biso   1.000  O
  O2       1.0000 0.74894  0.38204  0.14395  Biso   1.000  O
  O3       1.0000 0.24894  0.11796  0.64395  Biso   1.000  O
  O4       1.0000 0.74894  0.61796  0.64395  Biso   1.000  O
  O5       1.0000 0.75106  0.11796  0.85605  Biso   1.000  O
  O6       1.0000 0.25106  0.61796  0.85605  Biso   1.000  O
  O7       1.0000 0.75106  0.88204  0.35605  Biso   1.000  O
  O8       1.0000 0.25106  0.38204  0.35605  Biso   1.000  O
  O9       1.0000 0.31456  0.94427  0.29017  Biso   1.000  O
  O10      1.0000 0.81456  0.44427  0.29017  Biso   1.000  O
  O11      1.0000 0.31456  0.05573  0.79017  Biso   1.000  O
  O12      1.0000 0.81456  0.55573  0.79017  Biso   1.000  O
  O13      1.0000 0.68544  0.05573  0.70983  Biso   1.000  O
  O14      1.0000 0.18544  0.55573  0.70983  Biso   1.000  O
  O15      1.0000 0.68544  0.94427  0.20983  Biso   1.000  O
  O16      1.0000 0.18544  0.44427  0.20983  Biso   1.000  O
  O17      1.0000 0.36084  0.77305  0.21868  Biso   1.000  O
  O18      1.0000 0.86084  0.27305  0.21868  Biso   1.000  O
  O19      1.0000 0.36084  0.22695  0.71868  Biso   1.000  O
  O20      1.0000 0.86084  0.72695  0.71868  Biso   1.000  O
  O21      1.0000 0.63916  0.22695  0.78132  Biso   1.000  O
  O22      1.0000 0.13916  0.72695  0.78132  Biso   1.000  O
  O23      1.0000 0.63916  0.77305  0.28132  Biso   1.000  O
  O24      1.0000 0.13916  0.27305  0.28132  Biso   1.000  O
  O25      1.0000 0.27494  0.65896  0.24924  Biso   1.000  O
  O26      1.0000 0.77494  0.15896  0.24924  Biso   1.000  O
  O27      1.0000 0.27494  0.34104  0.74924  Biso   1.000  O
  O28      1.0000 0.77494  0.84104  0.74924  Biso   1.000  O
  O29      1.0000 0.72506  0.34104  0.75076  Biso   1.000  O
  O30      1.0000 0.22506  0.84104  0.75076  Biso   1.000  O
  O31      1.0000 0.72506  0.65896  0.25076  Biso   1.000  O
  O32      1.0000 0.22506  0.15896  0.25076  Biso   1.000  O
  O33      1.0000 0.42113  0.01960  0.16696  Biso   1.000  O
  O34      1.0000 0.92113  0.51960  0.16696  Biso   1.000  O
  O35      1.0000 0.42113  0.98040  0.66696  Biso   1.000  O
  O36      1.0000 0.92113  0.48040  0.66696  Biso   1.000  O
  O37      1.0000 0.57887  0.98040  0.83304  Biso   1.000  O
  O38      1.0000 0.07887  0.48040  0.83304  Biso   1.000  O
  O39      1.0000 0.57887  0.01960  0.33304  Biso   1.000  O
  O40      1.0000 0.07887  0.51960  0.33304  Biso   1.000  O
  O41      1.0000 0.40243  0.73580  0.09438  Biso   1.000  O
  O42      1.0000 0.90243  0.23580  0.09438  Biso   1.000  O
  O43      1.0000 0.40243  0.26420  0.59438  Biso   1.000  O
  O44      1.0000 0.90243  0.76420  0.59438  Biso   1.000  O
  O45      1.0000 0.59757  0.26420  0.90562  Biso   1.000  O
  O46      1.0000 0.09757  0.76420  0.90562  Biso   1.000  O
  O47      1.0000 0.59757  0.73580  0.40562  Biso   1.000  O
  O48      1.0000 0.09757  0.23580  0.40562  Biso   1.000  O
  O49      1.0000 0.50000  0.75920  0.25000  Biso   1.000  O
  O50      1.0000 0.00000  0.25920  0.25000  Biso   1.000  O
  O51      1.0000 0.50000  0.24080  0.75000  Biso   1.000  O
  O52      1.0000 0.00000  0.74080  0.75000  Biso   1.000  O
  N1       1.0000 0.23515  0.23960  0.09388  Biso   1.000  N
  N2       1.0000 0.73515  0.73960  0.09388  Biso   1.000  N
  N3       1.0000 0.23515  0.76040  0.59388  Biso   1.000  N
  N4       1.0000 0.73515  0.26040  0.59388  Biso   1.000  N
  N5       1.0000 0.76485  0.76040  0.90612  Biso   1.000  N
  N6       1.0000 0.26485  0.26040  0.90612  Biso   1.000  N
  N7       1.0000 0.76485  0.23960  0.40612  Biso   1.000  N
  N8       1.0000 0.26485  0.73960  0.40612  Biso   1.000  N
  N9       1.0000 0.12022  0.20915  0.07275  Biso   1.000  N
  N10      1.0000 0.62022  0.70915  0.07275  Biso   1.000  N
  N11      1.0000 0.12022  0.79085  0.57275  Biso   1.000  N
  N12      1.0000 0.62022  0.29085  0.57275  Biso   1.000  N
  N13      1.0000 0.87978  0.79085  0.92725  Biso   1.000  N
  N14      1.0000 0.37978  0.29085  0.92725  Biso   1.000  N
  N15      1.0000 0.87978  0.20915  0.42725  Biso   1.000  N
  N16      1.0000 0.37978  0.70915  0.42725  Biso   1.000  N
  N17      1.0000 0.11703  0.93180  0.13091  Biso   1.000  N
  N18      1.0000 0.61703  0.43180  0.13091  Biso   1.000  N
  N19      1.0000 0.11703  0.06820  0.63091  Biso   1.000  N
  N20      1.0000 0.61703  0.56820  0.63091  Biso   1.000  N
  N21      1.0000 0.88297  0.06820  0.86909  Biso   1.000  N
  N22      1.0000 0.38297  0.56820  0.86909  Biso   1.000  N
  N23      1.0000 0.88297  0.93180  0.36909  Biso   1.000  N
  N24      1.0000 0.38297  0.43180  0.36909  Biso   1.000  N
  C1       1.0000 0.29741  0.25080  0.11472  Biso   1.000  C
  C2       1.0000 0.79741  0.75080  0.11472  Biso   1.000  C
  C3       1.0000 0.29741  0.74920  0.61472  Biso   1.000  C
  C4       1.0000 0.79741  0.24920  0.61472  Biso   1.000  C
  C5       1.0000 0.70259  0.74920  0.88528  Biso   1.000  C
  C6       1.0000 0.20259  0.24920  0.88528  Biso   1.000  C
  C7       1.0000 0.70259  0.25080  0.38528  Biso   1.000  C
  C8       1.0000 0.20259  0.75080  0.38528  Biso   1.000  C
  C9       1.0000 0.32457  0.38920  0.10018  Biso   1.000  C
  C10      1.0000 0.82457  0.88920  0.10018  Biso   1.000  C
  C11      1.0000 0.32457  0.61080  0.60018  Biso   1.000  C
  C12      1.0000 0.82457  0.11080  0.60018  Biso   1.000  C
  C13      1.0000 0.67543  0.61080  0.89982  Biso   1.000  C
  C14      1.0000 0.17543  0.11080  0.89982  Biso   1.000  C
  C15      1.0000 0.67543  0.38920  0.39982  Biso   1.000  C
  C16      1.0000 0.17543  0.88920  0.39982  Biso   1.000  C
  C17      1.0000 0.28631  0.51930  0.06126  Biso   1.000  C
  C18      1.0000 0.78631  0.01930  0.06126  Biso   1.000  C
  C19      1.0000 0.28631  0.48070  0.56126  Biso   1.000  C
  C20      1.0000 0.78631  0.98070  0.56126  Biso   1.000  C
  C21      1.0000 0.71369  0.48070  0.93874  Biso   1.000  C
  C22      1.0000 0.21369  0.98070  0.93874  Biso   1.000  C
  C23      1.0000 0.71369  0.51930  0.43874  Biso   1.000  C
  C24      1.0000 0.21369  0.01930  0.43874  Biso   1.000  C
  C25      1.0000 0.22148  0.50930  0.03933  Biso   1.000  C
  C26      1.0000 0.72148  0.00930  0.03933  Biso   1.000  C
  C27      1.0000 0.22148  0.49070  0.53933  Biso   1.000  C
  C28      1.0000 0.72148  0.99070  0.53933  Biso   1.000  C
  C29      1.0000 0.77852  0.49070  0.96067  Biso   1.000  C
  C30      1.0000 0.27852  0.99070  0.96067  Biso   1.000  C
  C31      1.0000 0.77852  0.50930  0.46067  Biso   1.000  C
  C32      1.0000 0.27852  0.00930  0.46067  Biso   1.000  C
  C33      1.0000 0.19763  0.36850  0.05743  Biso   1.000  C
  C34      1.0000 0.69763  0.86850  0.05743  Biso   1.000  C
  C35      1.0000 0.19763  0.63150  0.55743  Biso   1.000  C
  C36      1.0000 0.69763  0.13150  0.55743  Biso   1.000  C
  C37      1.0000 0.80237  0.63150  0.94257  Biso   1.000  C
  C38      1.0000 0.30237  0.13150  0.94257  Biso   1.000  C
  C39      1.0000 0.80237  0.36850  0.44257  Biso   1.000  C
  C40      1.0000 0.30237  0.86850  0.44257  Biso   1.000  C
  C41      1.0000 0.13112  0.35000  0.04451  Biso   1.000  C
  C42      1.0000 0.63112  0.85000  0.04451  Biso   1.000  C
  C43      1.0000 0.13112  0.65000  0.54451  Biso   1.000  C
  C44      1.0000 0.63112  0.15000  0.54451  Biso   1.000  C
  C45      1.0000 0.86888  0.65000  0.95549  Biso   1.000  C
  C46      1.0000 0.36888  0.15000  0.95549  Biso   1.000  C
  C47      1.0000 0.86888  0.35000  0.45549  Biso   1.000  C
  C48      1.0000 0.36888  0.85000  0.45549  Biso   1.000  C
  C49      1.0000 0.08412  0.46570  0.01312  Biso   1.000  C
  C50      1.0000 0.58412  0.96570  0.01312  Biso   1.000  C
  C51      1.0000 0.08412  0.53430  0.51312  Biso   1.000  C
  C52      1.0000 0.58412  0.03430  0.51312  Biso   1.000  C
  C53      1.0000 0.91588  0.53430  0.98688  Biso   1.000  C
  C54      1.0000 0.41588  0.03430  0.98688  Biso   1.000  C
  C55      1.0000 0.91588  0.46570  0.48688  Biso   1.000  C
  C56      1.0000 0.41588  0.96570  0.48688  Biso   1.000  C
  C57      1.0000 0.02542  0.43810  0.01527  Biso   1.000  C
  C58      1.0000 0.52542  0.93810  0.01527  Biso   1.000  C
  C59      1.0000 0.02542  0.56190  0.51527  Biso   1.000  C
  C60      1.0000 0.52542  0.06190  0.51527  Biso   1.000  C
  C61      1.0000 0.97458  0.56190  0.98473  Biso   1.000  C
  C62      1.0000 0.47458  0.06190  0.98473  Biso   1.000  C
  C63      1.0000 0.97458  0.43810  0.48473  Biso   1.000  C
  C64      1.0000 0.47458  0.93810  0.48473  Biso   1.000  C
  C65      1.0000 0.01613  0.29180  0.04740  Biso   1.000  C
  C66      1.0000 0.51613  0.79180  0.04740  Biso   1.000  C
  C67      1.0000 0.01613  0.70820  0.54740  Biso   1.000  C
  C68      1.0000 0.51613  0.20820  0.54740  Biso   1.000  C
  C69      1.0000 0.98387  0.70820  0.95260  Biso   1.000  C
  C70      1.0000 0.48387  0.20820  0.95260  Biso   1.000  C
  C71      1.0000 0.98387  0.29180  0.45260  Biso   1.000  C
  C72      1.0000 0.48387  0.79180  0.45260  Biso   1.000  C
  C73      1.0000 0.06461  0.17900  0.07510  Biso   1.000  C
  C74      1.0000 0.56461  0.67900  0.07510  Biso   1.000  C
  C75      1.0000 0.06461  0.82100  0.57510  Biso   1.000  C
  C76      1.0000 0.56461  0.32100  0.57510  Biso   1.000  C
  C77      1.0000 0.93539  0.82100  0.92490  Biso   1.000  C
  C78      1.0000 0.43539  0.32100  0.92490  Biso   1.000  C
  C79      1.0000 0.93539  0.17900  0.42490  Biso   1.000  C
  C80      1.0000 0.43539  0.67900  0.42490  Biso   1.000  C
  C81      1.0000 0.06292  0.01870  0.11044  Biso   1.000  C
  C82      1.0000 0.56292  0.51870  0.11044  Biso   1.000  C
  C83      1.0000 0.06292  0.98130  0.61044  Biso   1.000  C
  C84      1.0000 0.56292  0.48130  0.61044  Biso   1.000  C
  C85      1.0000 0.93708  0.98130  0.88956  Biso   1.000  C
  C86      1.0000 0.43708  0.48130  0.88956  Biso   1.000  C
  C87      1.0000 0.93708  0.01870  0.38956  Biso   1.000  C
  C88      1.0000 0.43708  0.51870  0.38956  Biso   1.000  C
  C89      1.0000 0.01187  0.96010  0.12247  Biso   1.000  C
  C90      1.0000 0.51187  0.46010  0.12247  Biso   1.000  C
  C91      1.0000 0.01187  0.03990  0.62247  Biso   1.000  C
  C92      1.0000 0.51187  0.53990  0.62247  Biso   1.000  C
  C93      1.0000 0.98813  0.03990  0.87753  Biso   1.000  C
  C94      1.0000 0.48813  0.53990  0.87753  Biso   1.000  C
  C95      1.0000 0.98813  0.96010  0.37753  Biso   1.000  C
  C96      1.0000 0.48813  0.46010  0.37753  Biso   1.000  C
  C97      1.0000 0.01640  0.80600  0.15552  Biso   1.000  C
  C98      1.0000 0.51640  0.30600  0.15552  Biso   1.000  C
  C99      1.0000 0.01640  0.19400  0.65552  Biso   1.000  C
  C100     1.0000 0.51640  0.69400  0.65552  Biso   1.000  C
  C101     1.0000 0.98360  0.19400  0.84448  Biso   1.000  C
  C102     1.0000 0.48360  0.69400  0.84448  Biso   1.000  C
  C103     1.0000 0.98360  0.80600  0.34448  Biso   1.000  C
  C104     1.0000 0.48360  0.30600  0.34448  Biso   1.000  C
  C105     1.0000 0.07116  0.71650  0.17477  Biso   1.000  C
  C106     1.0000 0.57116  0.21650  0.17477  Biso   1.000  C
  C107     1.0000 0.07116  0.28350  0.67477  Biso   1.000  C
  C108     1.0000 0.57116  0.78350  0.67477  Biso   1.000  C
  C109     1.0000 0.92884  0.28350  0.82523  Biso   1.000  C
  C110     1.0000 0.42884  0.78350  0.82523  Biso   1.000  C
  C111     1.0000 0.92884  0.71650  0.32523  Biso   1.000  C
  C112     1.0000 0.42884  0.21650  0.32523  Biso   1.000  C
  C113     1.0000 0.12057  0.78430  0.16200  Biso   1.000  C
  C114     1.0000 0.62057  0.28430  0.16200  Biso   1.000  C
  C115     1.0000 0.12057  0.21570  0.66200  Biso   1.000  C
  C116     1.0000 0.62057  0.71570  0.66200  Biso   1.000  C
  C117     1.0000 0.87943  0.21570  0.83800  Biso   1.000  C
  C118     1.0000 0.37943  0.71570  0.83800  Biso   1.000  C
  C119     1.0000 0.87943  0.78430  0.33800  Biso   1.000  C
  C120     1.0000 0.37943  0.28430  0.33800  Biso   1.000  C
  H1       1.0000 0.31910  0.16000  0.13660  Biso   1.000  H
  H2       1.0000 0.81910  0.66000  0.13660  Biso   1.000  H
  H3       1.0000 0.31910  0.84000  0.63660  Biso   1.000  H
  H4       1.0000 0.81910  0.34000  0.63660  Biso   1.000  H
  H5       1.0000 0.68090  0.84000  0.86340  Biso   1.000  H
  H6       1.0000 0.18090  0.34000  0.86340  Biso   1.000  H
  H7       1.0000 0.68090  0.16000  0.36340  Biso   1.000  H
  H8       1.0000 0.18090  0.66000  0.36340  Biso   1.000  H
  H9       1.0000 0.36790  0.39900  0.11830  Biso   1.000  H
  H10      1.0000 0.86790  0.89900  0.11830  Biso   1.000  H
  H11      1.0000 0.36790  0.60100  0.61830  Biso   1.000  H
  H12      1.0000 0.86790  0.10100  0.61830  Biso   1.000  H
  H13      1.0000 0.63210  0.60100  0.88170  Biso   1.000  H
  H14      1.0000 0.13210  0.10100  0.88170  Biso   1.000  H
  H15      1.0000 0.63210  0.39900  0.38170  Biso   1.000  H
  H16      1.0000 0.13210  0.89900  0.38170  Biso   1.000  H
  H17      1.0000 0.30320  0.61000  0.05170  Biso   1.000  H
  H18      1.0000 0.80320  0.11000  0.05170  Biso   1.000  H
  H19      1.0000 0.30320  0.39000  0.55170  Biso   1.000  H
  H20      1.0000 0.80320  0.89000  0.55170  Biso   1.000  H
  H21      1.0000 0.69680  0.39000  0.94830  Biso   1.000  H
  H22      1.0000 0.19680  0.89000  0.94830  Biso   1.000  H
  H23      1.0000 0.69680  0.61000  0.44830  Biso   1.000  H
  H24      1.0000 0.19680  0.11000  0.44830  Biso   1.000  H
  H25      1.0000 0.19510  0.59900  0.01520  Biso   1.000  H
  H26      1.0000 0.69510  0.09900  0.01520  Biso   1.000  H
  H27      1.0000 0.19510  0.40100  0.51520  Biso   1.000  H
  H28      1.0000 0.69510  0.90100  0.51520  Biso   1.000  H
  H29      1.0000 0.80490  0.40100  0.98480  Biso   1.000  H
  H30      1.0000 0.30490  0.90100  0.98480  Biso   1.000  H
  H31      1.0000 0.80490  0.59900  0.48480  Biso   1.000  H
  H32      1.0000 0.30490  0.09900  0.48480  Biso   1.000  H
  H33      1.0000 0.09040  0.56000  0.99030  Biso   1.000  H
  H34      1.0000 0.59040  0.06000  0.99030  Biso   1.000  H
  H35      1.0000 0.09040  0.44000  0.49030  Biso   1.000  H
  H36      1.0000 0.59040  0.94000  0.49030  Biso   1.000  H
  H37      1.0000 0.90960  0.44000  0.00970  Biso   1.000  H
  H38      1.0000 0.40960  0.94000  0.00970  Biso   1.000  H
  H39      1.0000 0.90960  0.56000  0.50970  Biso   1.000  H
  H40      1.0000 0.40960  0.06000  0.50970  Biso   1.000  H
  H41      1.0000 0.98100  0.27500  0.05330  Biso   1.000  H
  H42      1.0000 0.48100  0.77500  0.05330  Biso   1.000  H
  H43      1.0000 0.98100  0.72500  0.55330  Biso   1.000  H
  H44      1.0000 0.48100  0.22500  0.55330  Biso   1.000  H
  H45      1.0000 0.01900  0.72500  0.94670  Biso   1.000  H
  H46      1.0000 0.51900  0.22500  0.94670  Biso   1.000  H
  H47      1.0000 0.01900  0.27500  0.44670  Biso   1.000  H
  H48      1.0000 0.51900  0.77500  0.44670  Biso   1.000  H
  H49      1.0000 0.97520  0.02700  0.10900  Biso   1.000  H
  H50      1.0000 0.47520  0.52700  0.10900  Biso   1.000  H
  H51      1.0000 0.97520  0.97300  0.60900  Biso   1.000  H
  H52      1.0000 0.47520  0.47300  0.60900  Biso   1.000  H
  H53      1.0000 0.02480  0.97300  0.89100  Biso   1.000  H
  H54      1.0000 0.52480  0.47300  0.89100  Biso   1.000  H
  H55      1.0000 0.02480  0.02700  0.39100  Biso   1.000  H
  H56      1.0000 0.52480  0.52700  0.39100  Biso   1.000  H
  H57      1.0000 0.98300  0.75800  0.16380  Biso   1.000  H
  H58      1.0000 0.48300  0.25800  0.16380  Biso   1.000  H
  H59      1.0000 0.98300  0.24200  0.66380  Biso   1.000  H
  H60      1.0000 0.48300  0.74200  0.66380  Biso   1.000  H
  H61      1.0000 0.01700  0.24200  0.83620  Biso   1.000  H
  H62      1.0000 0.51700  0.74200  0.83620  Biso   1.000  H
  H63      1.0000 0.01700  0.75800  0.33620  Biso   1.000  H
  H64      1.0000 0.51700  0.25800  0.33620  Biso   1.000  H
  H65      1.0000 0.07470  0.61700  0.19450  Biso   1.000  H
  H66      1.0000 0.57470  0.11700  0.19450  Biso   1.000  H
  H67      1.0000 0.07470  0.38300  0.69450  Biso   1.000  H
  H68      1.0000 0.57470  0.88300  0.69450  Biso   1.000  H
  H69      1.0000 0.92530  0.38300  0.80550  Biso   1.000  H
  H70      1.0000 0.42530  0.88300  0.80550  Biso   1.000  H
  H71      1.0000 0.92530  0.61700  0.30550  Biso   1.000  H
  H72      1.0000 0.42530  0.11700  0.30550  Biso   1.000  H
  H73      1.0000 0.15680  0.72900  0.17540  Biso   1.000  H
  H74      1.0000 0.65680  0.22900  0.17540  Biso   1.000  H
  H75      1.0000 0.15680  0.27100  0.67540  Biso   1.000  H
  H76      1.0000 0.65680  0.77100  0.67540  Biso   1.000  H
  H77      1.0000 0.84320  0.27100  0.82460  Biso   1.000  H
  H78      1.0000 0.34320  0.77100  0.82460  Biso   1.000  H
  H79      1.0000 0.84320  0.72900  0.32460  Biso   1.000  H
  H80      1.0000 0.34320  0.22900  0.32460  Biso   1.000  H
  H81      1.0000 0.28760  0.99600  0.28000  Biso   1.000  H
  H82      1.0000 0.78760  0.49600  0.28000  Biso   1.000  H
  H83      1.0000 0.28760  0.00400  0.78000  Biso   1.000  H
  H84      1.0000 0.78760  0.50400  0.78000  Biso   1.000  H
  H85      1.0000 0.71240  0.00400  0.72000  Biso   1.000  H
  H86      1.0000 0.21240  0.50400  0.72000  Biso   1.000  H
  H87      1.0000 0.71240  0.99600  0.22000  Biso   1.000  H
  H88      1.0000 0.21240  0.49600  0.22000  Biso   1.000  H
