data_image0
_cell_length_a       7.3116
_cell_length_b       22.407
_cell_length_c       7.357
_cell_angle_alpha    90
_cell_angle_beta     90.08
_cell_angle_gamma    90

_symmetry_space_group_name_H-M    "P 1"
_symmetry_int_tables_number       1

loop_
  _symmetry_equiv_pos_as_xyz
  'x, y, z'

loop_
  _atom_site_label
  _atom_site_occupancy
  _atom_site_fract_x
  _atom_site_fract_y
  _atom_site_fract_z
  _atom_site_thermal_displace_type
  _atom_site_B_iso_or_equiv
  _atom_site_type_symbol
  Cu1      1.0000 0.04163  0.28710  0.39076  Biso   1.000  Cu
  Cu2      1.0000 0.95837  0.78710  0.10924  Biso   1.000  Cu
  Cu3      1.0000 0.95837  0.71290  0.60924  Biso   1.000  Cu
  Cu4      1.0000 0.04163  0.21290  0.89076  Biso   1.000  Cu
  Cl1      1.0000 0.23637  0.26031  0.68759  Biso   1.000  Cl
  Cl2      1.0000 0.76363  0.76031  0.81241  Biso   1.000  Cl
  Cl3      1.0000 0.76363  0.73969  0.31241  Biso   1.000  Cl
  Cl4      1.0000 0.23637  0.23969  0.18759  Biso   1.000  Cl
  O1       1.0000 0.60379  0.40472  0.46350  Biso   1.000  O
  O2       1.0000 0.39621  0.90472  0.03650  Biso   1.000  O
  O3       1.0000 0.39621  0.59528  0.53650  Biso   1.000  O
  O4       1.0000 0.60379  0.09528  0.96350  Biso   1.000  O
  N1       1.0000 0.18110  0.36305  0.37060  Biso   1.000  N
  N2       1.0000 0.81890  0.86305  0.12940  Biso   1.000  N
  N3       1.0000 0.81890  0.63695  0.62940  Biso   1.000  N
  N4       1.0000 0.18110  0.13695  0.87060  Biso   1.000  N
  H1       1.0000 0.17500  0.37700  0.25900  Biso   1.000  H
  H2       1.0000 0.82500  0.87700  0.24100  Biso   1.000  H
  H3       1.0000 0.82500  0.62300  0.74100  Biso   1.000  H
  H4       1.0000 0.17500  0.12300  0.75900  Biso   1.000  H
  H5       1.0000 0.29750  0.35730  0.39500  Biso   1.000  H
  H6       1.0000 0.70250  0.85730  0.10500  Biso   1.000  H
  H7       1.0000 0.70250  0.64270  0.60500  Biso   1.000  H
  H8       1.0000 0.29750  0.14270  0.89500  Biso   1.000  H
  N5       1.0000 0.80720  0.32711  0.44500  Biso   1.000  N
  N6       1.0000 0.19280  0.82711  0.05500  Biso   1.000  N
  N7       1.0000 0.19280  0.67289  0.55500  Biso   1.000  N
  N8       1.0000 0.80720  0.17289  0.94500  Biso   1.000  N
  N9       1.0000 0.89480  0.21411  0.43050  Biso   1.000  N
  N10      1.0000 0.10520  0.71411  0.06950  Biso   1.000  N
  N11      1.0000 0.10520  0.78589  0.56950  Biso   1.000  N
  N12      1.0000 0.89480  0.28589  0.93050  Biso   1.000  N
  C1       1.0000 0.11300  0.40787  0.50140  Biso   1.000  C
  C2       1.0000 0.88700  0.90787  0.99860  Biso   1.000  C
  C3       1.0000 0.88700  0.59213  0.49860  Biso   1.000  C
  C4       1.0000 0.11300  0.09213  0.00140  Biso   1.000  C
  H9       1.0000 0.19710  0.44250  0.50250  Biso   1.000  H
  H10      1.0000 0.80290  0.94250  0.99750  Biso   1.000  H
  H11      1.0000 0.80290  0.55750  0.49750  Biso   1.000  H
  H12      1.0000 0.19710  0.05750  0.00250  Biso   1.000  H
  H13      1.0000 0.11270  0.39030  0.62490  Biso   1.000  H
  H14      1.0000 0.88730  0.89030  0.87510  Biso   1.000  H
  H15      1.0000 0.88730  0.60970  0.37510  Biso   1.000  H
  H16      1.0000 0.11270  0.10970  0.12490  Biso   1.000  H
  C5       1.0000 0.92140  0.42911  0.45490  Biso   1.000  C
  C6       1.0000 0.07860  0.92911  0.04510  Biso   1.000  C
  C7       1.0000 0.07860  0.57089  0.54510  Biso   1.000  C
  C8       1.0000 0.92140  0.07089  0.95490  Biso   1.000  C
  H17      1.0000 0.88910  0.46120  0.54170  Biso   1.000  H
  H18      1.0000 0.11090  0.96120  0.95830  Biso   1.000  H
  H19      1.0000 0.11090  0.53880  0.45830  Biso   1.000  H
  H20      1.0000 0.88910  0.03880  0.04170  Biso   1.000  H
  H21      1.0000 0.92600  0.44750  0.33260  Biso   1.000  H
  H22      1.0000 0.07400  0.94750  0.16740  Biso   1.000  H
  H23      1.0000 0.07400  0.55250  0.66740  Biso   1.000  H
  H24      1.0000 0.92600  0.05250  0.83260  Biso   1.000  H
  C9       1.0000 0.76650  0.38426  0.45500  Biso   1.000  C
  C10      1.0000 0.23350  0.88426  0.04500  Biso   1.000  C
  C11      1.0000 0.23350  0.61574  0.54500  Biso   1.000  C
  C12      1.0000 0.76650  0.11574  0.95500  Biso   1.000  C
  C13      1.0000 0.65050  0.28651  0.45110  Biso   1.000  C
  C14      1.0000 0.34950  0.78651  0.04890  Biso   1.000  C
  C15      1.0000 0.34950  0.71349  0.54890  Biso   1.000  C
  C16      1.0000 0.65050  0.21349  0.95110  Biso   1.000  C
  H25      1.0000 0.57140  0.29340  0.34370  Biso   1.000  H
  H26      1.0000 0.42860  0.79340  0.15630  Biso   1.000  H
  H27      1.0000 0.42860  0.70660  0.65630  Biso   1.000  H
  H28      1.0000 0.57140  0.20660  0.84370  Biso   1.000  H
  H29      1.0000 0.57730  0.29460  0.56150  Biso   1.000  H
  H30      1.0000 0.42270  0.79460  0.93850  Biso   1.000  H
  H31      1.0000 0.42270  0.70540  0.43850  Biso   1.000  H
  H32      1.0000 0.57730  0.20540  0.06150  Biso   1.000  H
  C17      1.0000 0.71440  0.22284  0.45270  Biso   1.000  C
  C18      1.0000 0.28560  0.72284  0.04730  Biso   1.000  C
  C19      1.0000 0.28560  0.77716  0.54730  Biso   1.000  C
  C20      1.0000 0.71440  0.27716  0.95270  Biso   1.000  C
  C21      1.0000 0.59560  0.17498  0.47630  Biso   1.000  C
  C22      1.0000 0.40440  0.67498  0.02370  Biso   1.000  C
  C23      1.0000 0.40440  0.82502  0.52370  Biso   1.000  C
  C24      1.0000 0.59560  0.32502  0.97630  Biso   1.000  C
  H33      1.0000 0.46790  0.18150  0.48860  Biso   1.000  H
  H34      1.0000 0.53210  0.68150  0.01140  Biso   1.000  H
  H35      1.0000 0.53210  0.81850  0.51140  Biso   1.000  H
  H36      1.0000 0.46790  0.31850  0.98860  Biso   1.000  H
  C25      1.0000 0.66600  0.11770  0.48150  Biso   1.000  C
  C26      1.0000 0.33400  0.61770  0.01850  Biso   1.000  C
  C27      1.0000 0.33400  0.88230  0.51850  Biso   1.000  C
  C28      1.0000 0.66600  0.38230  0.98150  Biso   1.000  C
  H37      1.0000 0.58700  0.08450  0.49800  Biso   1.000  H
  H38      1.0000 0.41300  0.58450  0.00200  Biso   1.000  H
  H39      1.0000 0.41300  0.91550  0.50200  Biso   1.000  H
  H40      1.0000 0.58700  0.41550  0.99800  Biso   1.000  H
  C29      1.0000 0.85330  0.10906  0.46240  Biso   1.000  C
  C30      1.0000 0.14670  0.60906  0.03760  Biso   1.000  C
  C31      1.0000 0.14670  0.89094  0.53760  Biso   1.000  C
  C32      1.0000 0.85330  0.39094  0.96240  Biso   1.000  C
  H41      1.0000 0.90430  0.07010  0.46660  Biso   1.000  H
  H42      1.0000 0.09570  0.57010  0.03340  Biso   1.000  H
  H43      1.0000 0.09570  0.92990  0.53340  Biso   1.000  H
  H44      1.0000 0.90430  0.42990  0.96660  Biso   1.000  H
  C33      1.0000 0.96280  0.15816  0.43730  Biso   1.000  C
  C34      1.0000 0.03720  0.65816  0.06270  Biso   1.000  C
  C35      1.0000 0.03720  0.84184  0.56270  Biso   1.000  C
  C36      1.0000 0.96280  0.34184  0.93730  Biso   1.000  C
  H45      1.0000 0.09090  0.15250  0.42430  Biso   1.000  H
  H46      1.0000 0.90910  0.65250  0.07570  Biso   1.000  H
  H47      1.0000 0.90910  0.84750  0.57570  Biso   1.000  H
  H48      1.0000 0.09090  0.34750  0.92430  Biso   1.000  H
  O5       1.0000 0.24800  0.45651  0.03860  Biso   1.000  O
  O6       1.0000 0.75200  0.95651  0.46140  Biso   1.000  O
  O7       1.0000 0.75200  0.54349  0.96140  Biso   1.000  O
  O8       1.0000 0.24800  0.04349  0.53860  Biso   1.000  O
  H49      1.0000 0.30200  0.46590  0.92200  Biso   1.000  H
  H50      1.0000 0.69800  0.96590  0.57800  Biso   1.000  H
  H51      1.0000 0.69800  0.53410  0.07800  Biso   1.000  H
  H52      1.0000 0.30200  0.03410  0.42200  Biso   1.000  H
  H53      1.0000 0.33700  0.47630  0.11500  Biso   1.000  H
  H54      1.0000 0.66300  0.97630  0.38500  Biso   1.000  H
  H55      1.0000 0.66300  0.52370  0.88500  Biso   1.000  H
  H56      1.0000 0.33700  0.02370  0.61500  Biso   1.000  H
  O9       1.0000 0.51450  0.50854  0.27220  Biso   1.000  O
  O10      1.0000 0.48550  0.00854  0.22780  Biso   1.000  O
  O11      1.0000 0.48550  0.49146  0.72780  Biso   1.000  O
  O12      1.0000 0.51450  0.99146  0.77220  Biso   1.000  O
  H57      1.0000 0.55400  0.47500  0.34500  Biso   1.000  H
  H58      1.0000 0.44600  0.97500  0.15500  Biso   1.000  H
  H59      1.0000 0.44600  0.52500  0.65500  Biso   1.000  H
  H60      1.0000 0.55400  0.02500  0.84500  Biso   1.000  H
  H61      1.0000 0.46900  0.53740  0.35900  Biso   1.000  H
  H62      1.0000 0.53100  0.03740  0.14100  Biso   1.000  H
  H63      1.0000 0.53100  0.46260  0.64100  Biso   1.000  H
  H64      1.0000 0.46900  0.96260  0.85900  Biso   1.000  H
