data_image0
_cell_length_a       7.1291
_cell_length_b       14.4806
_cell_length_c       18.974
_cell_angle_alpha    90
_cell_angle_beta     90
_cell_angle_gamma    90

_symmetry_space_group_name_H-M    "P 1"
_symmetry_int_tables_number       1

loop_
  _symmetry_equiv_pos_as_xyz
  'x, y, z'

loop_
  _atom_site_label
  _atom_site_occupancy
  _atom_site_fract_x
  _atom_site_fract_y
  _atom_site_fract_z
  _atom_site_thermal_displace_type
  _atom_site_B_iso_or_equiv
  _atom_site_type_symbol
  C1       1.0000 0.52860  0.56600  0.32110  Biso   1.000  C
  C2       1.0000 0.97140  0.43400  0.82110  Biso   1.000  C
  C3       1.0000 0.02860  0.93400  0.67890  Biso   1.000  C
  C4       1.0000 0.47140  0.06600  0.17890  Biso   1.000  C
  C5       1.0000 0.47140  0.43400  0.67890  Biso   1.000  C
  C6       1.0000 0.02860  0.56600  0.17890  Biso   1.000  C
  C7       1.0000 0.97140  0.06600  0.32110  Biso   1.000  C
  C8       1.0000 0.52860  0.93400  0.82110  Biso   1.000  C
  C9       1.0000 0.47630  0.50530  0.26710  Biso   1.000  C
  C10      1.0000 0.02370  0.49470  0.76710  Biso   1.000  C
  C11      1.0000 0.97630  0.99470  0.73290  Biso   1.000  C
  C12      1.0000 0.52370  0.00530  0.23290  Biso   1.000  C
  C13      1.0000 0.52370  0.49470  0.73290  Biso   1.000  C
  C14      1.0000 0.97630  0.50530  0.23290  Biso   1.000  C
  C15      1.0000 0.02370  0.00530  0.26710  Biso   1.000  C
  C16      1.0000 0.47630  0.99470  0.76710  Biso   1.000  C
  C17      1.0000 0.55520  0.61190  0.18350  Biso   1.000  C
  C18      1.0000 0.94480  0.38810  0.68350  Biso   1.000  C
  C19      1.0000 0.05520  0.88810  0.81650  Biso   1.000  C
  C20      1.0000 0.44480  0.11190  0.31650  Biso   1.000  C
  C21      1.0000 0.44480  0.38810  0.81650  Biso   1.000  C
  C22      1.0000 0.05520  0.61190  0.31650  Biso   1.000  C
  C23      1.0000 0.94480  0.11190  0.18350  Biso   1.000  C
  C24      1.0000 0.55520  0.88810  0.68350  Biso   1.000  C
  C25      1.0000 0.61500  0.67160  0.23630  Biso   1.000  C
  C26      1.0000 0.88500  0.32840  0.73630  Biso   1.000  C
  C27      1.0000 0.11500  0.82840  0.76370  Biso   1.000  C
  C28      1.0000 0.38500  0.17160  0.26370  Biso   1.000  C
  C29      1.0000 0.38500  0.32840  0.76370  Biso   1.000  C
  C30      1.0000 0.11500  0.67160  0.26370  Biso   1.000  C
  C31      1.0000 0.88500  0.17160  0.23630  Biso   1.000  C
  C32      1.0000 0.61500  0.82840  0.73630  Biso   1.000  C
  C33      1.0000 0.71510  0.76320  0.22310  Biso   1.000  C
  C34      1.0000 0.78490  0.23680  0.72310  Biso   1.000  C
  C35      1.0000 0.21510  0.73680  0.77690  Biso   1.000  C
  C36      1.0000 0.28490  0.26320  0.27690  Biso   1.000  C
  C37      1.0000 0.28490  0.23680  0.77690  Biso   1.000  C
  C38      1.0000 0.21510  0.76320  0.27690  Biso   1.000  C
  C39      1.0000 0.78490  0.26320  0.22310  Biso   1.000  C
  C40      1.0000 0.71510  0.73680  0.72310  Biso   1.000  C
  C41      1.0000 0.55010  0.63550  0.10590  Biso   1.000  C
  C42      1.0000 0.94990  0.36450  0.60590  Biso   1.000  C
  C43      1.0000 0.05010  0.86450  0.89410  Biso   1.000  C
  C44      1.0000 0.44990  0.13550  0.39410  Biso   1.000  C
  C45      1.0000 0.44990  0.36450  0.89410  Biso   1.000  C
  C46      1.0000 0.05010  0.63550  0.39410  Biso   1.000  C
  C47      1.0000 0.94990  0.13550  0.10590  Biso   1.000  C
  C48      1.0000 0.55010  0.86450  0.60590  Biso   1.000  C
  N1       1.0000 0.59740  0.64920  0.30446  Biso   1.000  N
  N2       1.0000 0.90260  0.35080  0.80446  Biso   1.000  N
  N3       1.0000 0.09740  0.85080  0.69554  Biso   1.000  N
  N4       1.0000 0.40260  0.14920  0.19554  Biso   1.000  N
  N5       1.0000 0.40260  0.35080  0.69554  Biso   1.000  N
  N6       1.0000 0.09740  0.64920  0.19554  Biso   1.000  N
  N7       1.0000 0.90260  0.14920  0.30446  Biso   1.000  N
  N8       1.0000 0.59740  0.85080  0.80446  Biso   1.000  N
  N9       1.0000 0.48700  0.52780  0.19950  Biso   1.000  N
  N10      1.0000 0.01300  0.47220  0.69950  Biso   1.000  N
  N11      1.0000 0.98700  0.97220  0.80050  Biso   1.000  N
  N12      1.0000 0.51300  0.02780  0.30050  Biso   1.000  N
  N13      1.0000 0.51300  0.47220  0.80050  Biso   1.000  N
  N14      1.0000 0.98700  0.52780  0.30050  Biso   1.000  N
  N15      1.0000 0.01300  0.02780  0.19950  Biso   1.000  N
  N16      1.0000 0.48700  0.97220  0.69950  Biso   1.000  N
  N17      1.0000 0.70850  0.88410  0.41110  Biso   1.000  N
  N18      1.0000 0.79150  0.11590  0.91110  Biso   1.000  N
  N19      1.0000 0.20850  0.61590  0.58890  Biso   1.000  N
  N20      1.0000 0.29150  0.38410  0.08890  Biso   1.000  N
  N21      1.0000 0.29150  0.11590  0.58890  Biso   1.000  N
  N22      1.0000 0.20850  0.88410  0.08890  Biso   1.000  N
  N23      1.0000 0.79150  0.38410  0.41110  Biso   1.000  N
  N24      1.0000 0.70850  0.61590  0.91110  Biso   1.000  N
  N25      1.0000 0.52550  0.71010  0.45250  Biso   1.000  N
  N26      1.0000 0.97450  0.28990  0.95250  Biso   1.000  N
  N27      1.0000 0.02550  0.78990  0.54750  Biso   1.000  N
  N28      1.0000 0.47450  0.21010  0.04750  Biso   1.000  N
  N29      1.0000 0.47450  0.28990  0.54750  Biso   1.000  N
  N30      1.0000 0.02550  0.71010  0.04750  Biso   1.000  N
  N31      1.0000 0.97450  0.21010  0.45250  Biso   1.000  N
  N32      1.0000 0.52550  0.78990  0.95250  Biso   1.000  N
  O1       1.0000 0.74680  0.81032  0.27846  Biso   1.000  O
  O2       1.0000 0.75320  0.18968  0.77846  Biso   1.000  O
  O3       1.0000 0.24680  0.68968  0.72154  Biso   1.000  O
  O4       1.0000 0.25320  0.31032  0.22154  Biso   1.000  O
  O5       1.0000 0.25320  0.18968  0.72154  Biso   1.000  O
  O6       1.0000 0.24680  0.81032  0.22154  Biso   1.000  O
  O7       1.0000 0.75320  0.31032  0.27846  Biso   1.000  O
  O8       1.0000 0.74680  0.68968  0.77846  Biso   1.000  O
  O9       1.0000 0.76090  0.78346  0.16283  Biso   1.000  O
  O10      1.0000 0.73910  0.21654  0.66283  Biso   1.000  O
  O11      1.0000 0.26090  0.71654  0.83717  Biso   1.000  O
  O12      1.0000 0.23910  0.28346  0.33717  Biso   1.000  O
  O13      1.0000 0.23910  0.21654  0.83717  Biso   1.000  O
  O14      1.0000 0.26090  0.78346  0.33717  Biso   1.000  O
  O15      1.0000 0.73910  0.28346  0.16283  Biso   1.000  O
  O16      1.0000 0.76090  0.71654  0.66283  Biso   1.000  O
  O17      1.0000 0.42620  0.69020  0.08607  Biso   1.000  O
  O18      1.0000 0.07380  0.30980  0.58607  Biso   1.000  O
  O19      1.0000 0.92620  0.80980  0.91393  Biso   1.000  O
  O20      1.0000 0.57380  0.19020  0.41393  Biso   1.000  O
  O21      1.0000 0.57380  0.30980  0.91393  Biso   1.000  O
  O22      1.0000 0.92620  0.69020  0.41393  Biso   1.000  O
  O23      1.0000 0.07380  0.19020  0.08607  Biso   1.000  O
  O24      1.0000 0.42620  0.80980  0.58607  Biso   1.000  O
  O25      1.0000 0.66830  0.59645  0.06701  Biso   1.000  O
  O26      1.0000 0.83170  0.40355  0.56701  Biso   1.000  O
  O27      1.0000 0.16830  0.90355  0.93299  Biso   1.000  O
  O28      1.0000 0.33170  0.09645  0.43299  Biso   1.000  O
  O29      1.0000 0.33170  0.40355  0.93299  Biso   1.000  O
  O30      1.0000 0.16830  0.59645  0.43299  Biso   1.000  O
  O31      1.0000 0.83170  0.09645  0.06701  Biso   1.000  O
  O32      1.0000 0.66830  0.90355  0.56701  Biso   1.000  O
  O33      1.0000 0.65560  0.92050  0.06700  Biso   1.000  O
  O34      1.0000 0.84440  0.07950  0.56700  Biso   1.000  O
  O35      1.0000 0.15560  0.57950  0.93300  Biso   1.000  O
  O36      1.0000 0.34440  0.42050  0.43300  Biso   1.000  O
  O37      1.0000 0.34440  0.07950  0.93300  Biso   1.000  O
  O38      1.0000 0.15560  0.92050  0.43300  Biso   1.000  O
  O39      1.0000 0.84440  0.42050  0.06700  Biso   1.000  O
  O40      1.0000 0.65560  0.57950  0.56700  Biso   1.000  O
  Cu1      1.0000 0.65974  0.75937  0.36943  Biso   1.000  Cu
  Cu2      1.0000 0.84026  0.24063  0.86943  Biso   1.000  Cu
  Cu3      1.0000 0.15974  0.74063  0.63057  Biso   1.000  Cu
  Cu4      1.0000 0.34026  0.25937  0.13057  Biso   1.000  Cu
  Cu5      1.0000 0.34026  0.24063  0.63057  Biso   1.000  Cu
  Cu6      1.0000 0.15974  0.75937  0.13057  Biso   1.000  Cu
  Cu7      1.0000 0.84026  0.25937  0.36943  Biso   1.000  Cu
  Cu8      1.0000 0.65974  0.74063  0.86943  Biso   1.000  Cu
  H1       1.0000 0.51500  0.54800  0.36900  Biso   1.000  H
  H2       1.0000 0.98500  0.45200  0.86900  Biso   1.000  H
  H3       1.0000 0.01500  0.95200  0.63100  Biso   1.000  H
  H4       1.0000 0.48500  0.04800  0.13100  Biso   1.000  H
  H5       1.0000 0.48500  0.45200  0.63100  Biso   1.000  H
  H6       1.0000 0.01500  0.54800  0.13100  Biso   1.000  H
  H7       1.0000 0.98500  0.04800  0.36900  Biso   1.000  H
  H8       1.0000 0.51500  0.95200  0.86900  Biso   1.000  H
  H9       1.0000 0.43000  0.44700  0.27800  Biso   1.000  H
  H10      1.0000 0.07000  0.55300  0.77800  Biso   1.000  H
  H11      1.0000 0.93000  0.05300  0.72200  Biso   1.000  H
  H12      1.0000 0.57000  0.94700  0.22200  Biso   1.000  H
  H13      1.0000 0.57000  0.55300  0.72200  Biso   1.000  H
  H14      1.0000 0.93000  0.44700  0.22200  Biso   1.000  H
  H15      1.0000 0.07000  0.94700  0.27800  Biso   1.000  H
  H16      1.0000 0.43000  0.05300  0.77800  Biso   1.000  H
  H17      1.0000 0.65100  0.92500  0.38200  Biso   1.000  H
  H18      1.0000 0.84900  0.07500  0.88200  Biso   1.000  H
  H19      1.0000 0.15100  0.57500  0.61800  Biso   1.000  H
  H20      1.0000 0.34900  0.42500  0.11800  Biso   1.000  H
  H21      1.0000 0.34900  0.07500  0.61800  Biso   1.000  H
  H22      1.0000 0.15100  0.92500  0.11800  Biso   1.000  H
  H23      1.0000 0.84900  0.42500  0.38200  Biso   1.000  H
  H24      1.0000 0.65100  0.57500  0.88200  Biso   1.000  H
  H25      1.0000 0.82300  0.89300  0.40800  Biso   1.000  H
  H26      1.0000 0.67700  0.10700  0.90800  Biso   1.000  H
  H27      1.0000 0.32300  0.60700  0.59200  Biso   1.000  H
  H28      1.0000 0.17700  0.39300  0.09200  Biso   1.000  H
  H29      1.0000 0.17700  0.10700  0.59200  Biso   1.000  H
  H30      1.0000 0.32300  0.89300  0.09200  Biso   1.000  H
  H31      1.0000 0.67700  0.39300  0.40800  Biso   1.000  H
  H32      1.0000 0.82300  0.60700  0.90800  Biso   1.000  H
  H33      1.0000 0.68200  0.88800  0.45600  Biso   1.000  H
  H34      1.0000 0.81800  0.11200  0.95600  Biso   1.000  H
  H35      1.0000 0.18200  0.61200  0.54400  Biso   1.000  H
  H36      1.0000 0.31800  0.38800  0.04400  Biso   1.000  H
  H37      1.0000 0.31800  0.11200  0.54400  Biso   1.000  H
  H38      1.0000 0.18200  0.88800  0.04400  Biso   1.000  H
  H39      1.0000 0.81800  0.38800  0.45600  Biso   1.000  H
  H40      1.0000 0.68200  0.61200  0.95600  Biso   1.000  H
  H41      1.0000 0.49500  0.75000  0.47500  Biso   1.000  H
  H42      1.0000 0.00500  0.25000  0.97500  Biso   1.000  H
  H43      1.0000 0.99500  0.75000  0.52500  Biso   1.000  H
  H44      1.0000 0.50500  0.25000  0.02500  Biso   1.000  H
  H45      1.0000 0.50500  0.25000  0.52500  Biso   1.000  H
  H46      1.0000 0.99500  0.75000  0.02500  Biso   1.000  H
  H47      1.0000 0.00500  0.25000  0.47500  Biso   1.000  H
  H48      1.0000 0.49500  0.75000  0.97500  Biso   1.000  H
  H49      1.0000 0.59000  0.67300  0.47200  Biso   1.000  H
  H50      1.0000 0.91000  0.32700  0.97200  Biso   1.000  H
  H51      1.0000 0.09000  0.82700  0.52800  Biso   1.000  H
  H52      1.0000 0.41000  0.17300  0.02800  Biso   1.000  H
  H53      1.0000 0.41000  0.32700  0.52800  Biso   1.000  H
  H54      1.0000 0.09000  0.67300  0.02800  Biso   1.000  H
  H55      1.0000 0.91000  0.17300  0.47200  Biso   1.000  H
  H56      1.0000 0.59000  0.82700  0.97200  Biso   1.000  H
  H57      1.0000 0.42400  0.68200  0.43900  Biso   1.000  H
  H58      1.0000 0.07600  0.31800  0.93900  Biso   1.000  H
  H59      1.0000 0.92400  0.81800  0.56100  Biso   1.000  H
  H60      1.0000 0.57600  0.18200  0.06100  Biso   1.000  H
  H61      1.0000 0.57600  0.31800  0.56100  Biso   1.000  H
  H62      1.0000 0.92400  0.68200  0.06100  Biso   1.000  H
  H63      1.0000 0.07600  0.18200  0.43900  Biso   1.000  H
  H64      1.0000 0.42400  0.81800  0.93900  Biso   1.000  H
  H65      1.0000 0.71000  0.89000  0.09800  Biso   1.000  H
  H66      1.0000 0.79000  0.11000  0.59800  Biso   1.000  H
  H67      1.0000 0.21000  0.61000  0.90200  Biso   1.000  H
  H68      1.0000 0.29000  0.39000  0.40200  Biso   1.000  H
  H69      1.0000 0.29000  0.11000  0.90200  Biso   1.000  H
  H70      1.0000 0.21000  0.89000  0.40200  Biso   1.000  H
  H71      1.0000 0.79000  0.39000  0.09800  Biso   1.000  H
  H72      1.0000 0.71000  0.61000  0.59800  Biso   1.000  H
  H73      1.0000 0.74000  0.95200  0.05000  Biso   1.000  H
  H74      1.0000 0.76000  0.04800  0.55000  Biso   1.000  H
  H75      1.0000 0.24000  0.54800  0.95000  Biso   1.000  H
  H76      1.0000 0.26000  0.45200  0.45000  Biso   1.000  H
  H77      1.0000 0.26000  0.04800  0.95000  Biso   1.000  H
  H78      1.0000 0.24000  0.95200  0.45000  Biso   1.000  H
  H79      1.0000 0.76000  0.45200  0.05000  Biso   1.000  H
  H80      1.0000 0.74000  0.54800  0.55000  Biso   1.000  H
