data_image0
_cell_length_a       14.107
_cell_length_b       7.769
_cell_length_c       18.553
_cell_angle_alpha    90
_cell_angle_beta     108.839
_cell_angle_gamma    90

_symmetry_space_group_name_H-M    "P 1"
_symmetry_int_tables_number       1

loop_
  _symmetry_equiv_pos_as_xyz
  'x, y, z'

loop_
  _atom_site_label
  _atom_site_occupancy
  _atom_site_fract_x
  _atom_site_fract_y
  _atom_site_fract_z
  _atom_site_thermal_displace_type
  _atom_site_B_iso_or_equiv
  _atom_site_type_symbol
  Cu1      1.0000 0.22283  0.94177  0.29573  Biso   1.000  Cu
  Cu2      1.0000 0.77717  0.44177  0.20427  Biso   1.000  Cu
  Cu3      1.0000 0.77717  0.05823  0.70427  Biso   1.000  Cu
  Cu4      1.0000 0.22283  0.55823  0.79573  Biso   1.000  Cu
  S1       1.0000 0.14760  0.52444  0.33964  Biso   1.000  S
  S2       1.0000 0.85240  0.02444  0.16036  Biso   1.000  S
  S3       1.0000 0.85240  0.47556  0.66036  Biso   1.000  S
  S4       1.0000 0.14760  0.97556  0.83964  Biso   1.000  S
  O1       1.0000 0.09619  0.05550  0.28739  Biso   1.000  O
  O2       1.0000 0.90381  0.55550  0.21261  Biso   1.000  O
  O3       1.0000 0.90381  0.94450  0.71261  Biso   1.000  O
  O4       1.0000 0.09619  0.44450  0.78739  Biso   1.000  O
  H1       1.0000 0.10450  0.15970  0.29310  Biso   1.000  H
  H2       1.0000 0.89550  0.65970  0.20690  Biso   1.000  H
  H3       1.0000 0.89550  0.84030  0.70690  Biso   1.000  H
  H4       1.0000 0.10450  0.34030  0.79310  Biso   1.000  H
  H5       1.0000 0.04480  0.00480  0.26310  Biso   1.000  H
  H6       1.0000 0.95520  0.50480  0.23690  Biso   1.000  H
  H7       1.0000 0.95520  0.99520  0.73690  Biso   1.000  H
  H8       1.0000 0.04480  0.49520  0.76310  Biso   1.000  H
  O5       1.0000 0.31431  0.19980  0.28694  Biso   1.000  O
  O6       1.0000 0.68569  0.69980  0.21306  Biso   1.000  O
  O7       1.0000 0.68569  0.80020  0.71306  Biso   1.000  O
  O8       1.0000 0.31431  0.30020  0.78694  Biso   1.000  O
  H9       1.0000 0.30920  0.21860  0.24240  Biso   1.000  H
  H10      1.0000 0.69080  0.71860  0.25760  Biso   1.000  H
  H11      1.0000 0.69080  0.78140  0.75760  Biso   1.000  H
  H12      1.0000 0.30920  0.28140  0.74240  Biso   1.000  H
  H13      1.0000 0.28820  0.27310  0.30620  Biso   1.000  H
  H14      1.0000 0.71180  0.77310  0.19380  Biso   1.000  H
  H15      1.0000 0.71180  0.72690  0.69380  Biso   1.000  H
  H16      1.0000 0.28820  0.22690  0.80620  Biso   1.000  H
  O9       1.0000 0.13988  0.67340  0.29089  Biso   1.000  O
  O10      1.0000 0.86012  0.17340  0.20911  Biso   1.000  O
  O11      1.0000 0.86012  0.32660  0.70911  Biso   1.000  O
  O12      1.0000 0.13988  0.82660  0.79089  Biso   1.000  O
  O13      1.0000 0.07234  0.39540  0.30042  Biso   1.000  O
  O14      1.0000 0.92766  0.89540  0.19958  Biso   1.000  O
  O15      1.0000 0.92766  0.60460  0.69958  Biso   1.000  O
  O16      1.0000 0.07234  0.10460  0.80042  Biso   1.000  O
  O17      1.0000 0.24709  0.45160  0.36928  Biso   1.000  O
  O18      1.0000 0.75291  0.95160  0.13072  Biso   1.000  O
  O19      1.0000 0.75291  0.54840  0.63072  Biso   1.000  O
  O20      1.0000 0.24709  0.04840  0.86928  Biso   1.000  O
  O21      1.0000 0.03846  0.79760  0.59801  Biso   1.000  O
  O22      1.0000 0.96154  0.29760  0.90199  Biso   1.000  O
  O23      1.0000 0.96154  0.20240  0.40199  Biso   1.000  O
  O24      1.0000 0.03846  0.70240  0.09801  Biso   1.000  O
  H17      1.0000 0.07150  0.75540  0.63890  Biso   1.000  H
  H18      1.0000 0.92850  0.25540  0.86110  Biso   1.000  H
  H19      1.0000 0.92850  0.24460  0.36110  Biso   1.000  H
  H20      1.0000 0.07150  0.74460  0.13890  Biso   1.000  H
  O25      1.0000 0.17875  0.60530  0.68648  Biso   1.000  O
  O26      1.0000 0.82125  0.10530  0.81352  Biso   1.000  O
  O27      1.0000 0.82125  0.39470  0.31352  Biso   1.000  O
  O28      1.0000 0.17875  0.89470  0.18648  Biso   1.000  O
  O29      1.0000 0.24330  0.39190  0.63699  Biso   1.000  O
  O30      1.0000 0.75670  0.89190  0.86301  Biso   1.000  O
  O31      1.0000 0.75670  0.60810  0.36301  Biso   1.000  O
  O32      1.0000 0.24330  0.10810  0.13699  Biso   1.000  O
  N1       1.0000 0.35365  0.81520  0.31921  Biso   1.000  N
  N2       1.0000 0.64635  0.31520  0.18079  Biso   1.000  N
  N3       1.0000 0.64635  0.18480  0.68079  Biso   1.000  N
  N4       1.0000 0.35365  0.68480  0.81921  Biso   1.000  N
  N5       1.0000 0.26584  0.95790  0.41031  Biso   1.000  N
  N6       1.0000 0.73416  0.45790  0.08969  Biso   1.000  N
  N7       1.0000 0.73416  0.04210  0.58969  Biso   1.000  N
  N8       1.0000 0.26584  0.54210  0.91031  Biso   1.000  N
  C1       1.0000 0.39690  0.74890  0.27232  Biso   1.000  C
  C2       1.0000 0.60310  0.24890  0.22768  Biso   1.000  C
  C3       1.0000 0.60310  0.25110  0.72768  Biso   1.000  C
  C4       1.0000 0.39690  0.75110  0.77232  Biso   1.000  C
  H21      1.0000 0.36490  0.75940  0.22010  Biso   1.000  H
  H22      1.0000 0.63510  0.25940  0.27990  Biso   1.000  H
  H23      1.0000 0.63510  0.24060  0.77990  Biso   1.000  H
  H24      1.0000 0.36490  0.74060  0.72010  Biso   1.000  H
  C5       1.0000 0.48870  0.66370  0.29780  Biso   1.000  C
  C6       1.0000 0.51130  0.16370  0.20220  Biso   1.000  C
  C7       1.0000 0.51130  0.33630  0.70220  Biso   1.000  C
  C8       1.0000 0.48870  0.83630  0.79780  Biso   1.000  C
  H25      1.0000 0.51740  0.61990  0.26310  Biso   1.000  H
  H26      1.0000 0.48260  0.11990  0.23690  Biso   1.000  H
  H27      1.0000 0.48260  0.38010  0.73690  Biso   1.000  H
  H28      1.0000 0.51740  0.88010  0.76310  Biso   1.000  H
  C9       1.0000 0.53610  0.64520  0.37420  Biso   1.000  C
  C10      1.0000 0.46390  0.14520  0.12580  Biso   1.000  C
  C11      1.0000 0.46390  0.35480  0.62580  Biso   1.000  C
  C12      1.0000 0.53610  0.85480  0.87420  Biso   1.000  C
  H29      1.0000 0.59700  0.58760  0.39170  Biso   1.000  H
  H30      1.0000 0.40300  0.08760  0.10830  Biso   1.000  H
  H31      1.0000 0.40300  0.41240  0.60830  Biso   1.000  H
  H32      1.0000 0.59700  0.91240  0.89170  Biso   1.000  H
  C13      1.0000 0.49308  0.71280  0.42614  Biso   1.000  C
  C14      1.0000 0.50692  0.21280  0.07386  Biso   1.000  C
  C15      1.0000 0.50692  0.28720  0.57386  Biso   1.000  C
  C16      1.0000 0.49308  0.78720  0.92614  Biso   1.000  C
  C17      1.0000 0.53690  0.70600  0.50712  Biso   1.000  C
  C18      1.0000 0.46310  0.20600  0.99288  Biso   1.000  C
  C19      1.0000 0.46310  0.29400  0.49288  Biso   1.000  C
  C20      1.0000 0.53690  0.79400  0.00712  Biso   1.000  C
  H33      1.0000 0.59770  0.64970  0.52830  Biso   1.000  H
  H34      1.0000 0.40230  0.14970  0.97170  Biso   1.000  H
  H35      1.0000 0.40230  0.35030  0.47170  Biso   1.000  H
  H36      1.0000 0.59770  0.85030  0.02830  Biso   1.000  H
  C21      1.0000 0.49220  0.77900  0.55321  Biso   1.000  C
  C22      1.0000 0.50780  0.27900  0.94679  Biso   1.000  C
  C23      1.0000 0.50780  0.22100  0.44679  Biso   1.000  C
  C24      1.0000 0.49220  0.72100  0.05321  Biso   1.000  C
  H37      1.0000 0.52300  0.77280  0.60570  Biso   1.000  H
  H38      1.0000 0.47700  0.27280  0.89430  Biso   1.000  H
  H39      1.0000 0.47700  0.22720  0.39430  Biso   1.000  H
  H40      1.0000 0.52300  0.72720  0.10570  Biso   1.000  H
  C25      1.0000 0.39830  0.86620  0.52379  Biso   1.000  C
  C26      1.0000 0.60170  0.36620  0.97621  Biso   1.000  C
  C27      1.0000 0.60170  0.13380  0.47621  Biso   1.000  C
  C28      1.0000 0.39830  0.63380  0.02379  Biso   1.000  C
  C29      1.0000 0.34900  0.95090  0.56764  Biso   1.000  C
  C30      1.0000 0.65100  0.45090  0.93236  Biso   1.000  C
  C31      1.0000 0.65100  0.04910  0.43236  Biso   1.000  C
  C32      1.0000 0.34900  0.54910  0.06764  Biso   1.000  C
  H41      1.0000 0.37610  0.95000  0.62050  Biso   1.000  H
  H42      1.0000 0.62390  0.45000  0.87950  Biso   1.000  H
  H43      1.0000 0.62390  0.05000  0.37950  Biso   1.000  H
  H44      1.0000 0.37610  0.55000  0.12050  Biso   1.000  H
  C33      1.0000 0.26070  0.03530  0.53310  Biso   1.000  C
  C34      1.0000 0.73930  0.53530  0.96690  Biso   1.000  C
  C35      1.0000 0.73930  0.96470  0.46690  Biso   1.000  C
  C36      1.0000 0.26070  0.46470  0.03310  Biso   1.000  C
  H45      1.0000 0.22790  0.09230  0.56230  Biso   1.000  H
  H46      1.0000 0.77210  0.59230  0.93770  Biso   1.000  H
  H47      1.0000 0.77210  0.90770  0.43770  Biso   1.000  H
  H48      1.0000 0.22790  0.40770  0.06230  Biso   1.000  H
  C37      1.0000 0.22040  0.03530  0.45412  Biso   1.000  C
  C38      1.0000 0.77960  0.53530  0.04588  Biso   1.000  C
  C39      1.0000 0.77960  0.96470  0.54588  Biso   1.000  C
  C40      1.0000 0.22040  0.46470  0.95412  Biso   1.000  C
  H49      1.0000 0.15970  0.09100  0.43120  Biso   1.000  H
  H50      1.0000 0.84030  0.59100  0.06880  Biso   1.000  H
  H51      1.0000 0.84030  0.90900  0.56880  Biso   1.000  H
  H52      1.0000 0.15970  0.40900  0.93120  Biso   1.000  H
  C41      1.0000 0.35308  0.87480  0.44430  Biso   1.000  C
  C42      1.0000 0.64692  0.37480  0.05570  Biso   1.000  C
  C43      1.0000 0.64692  0.12520  0.55570  Biso   1.000  C
  C44      1.0000 0.35308  0.62520  0.94430  Biso   1.000  C
  C45      1.0000 0.40075  0.79860  0.39543  Biso   1.000  C
  C46      1.0000 0.59925  0.29860  0.10457  Biso   1.000  C
  C47      1.0000 0.59925  0.20140  0.60457  Biso   1.000  C
  C48      1.0000 0.40075  0.70140  0.89543  Biso   1.000  C
  C49      1.0000 0.13805  0.59540  0.55329  Biso   1.000  C
  C50      1.0000 0.86195  0.09540  0.94671  Biso   1.000  C
  C51      1.0000 0.86195  0.40460  0.44671  Biso   1.000  C
  C52      1.0000 0.13805  0.90460  0.05329  Biso   1.000  C
  C53      1.0000 0.06482  0.72430  0.54177  Biso   1.000  C
  C54      1.0000 0.93518  0.22430  0.95823  Biso   1.000  C
  C55      1.0000 0.93518  0.27570  0.45823  Biso   1.000  C
  C56      1.0000 0.06482  0.77570  0.04177  Biso   1.000  C
  C57      1.0000 0.01519  0.78240  0.46792  Biso   1.000  C
  C58      1.0000 0.98481  0.28240  0.03208  Biso   1.000  C
  C59      1.0000 0.98481  0.21760  0.53208  Biso   1.000  C
  C60      1.0000 0.01519  0.71760  0.96792  Biso   1.000  C
  H53      1.0000 0.96440  0.86370  0.45990  Biso   1.000  H
  H54      1.0000 0.03560  0.36370  0.04010  Biso   1.000  H
  H55      1.0000 0.03560  0.13630  0.54010  Biso   1.000  H
  H56      1.0000 0.96440  0.63630  0.95990  Biso   1.000  H
  C61      1.0000 0.04006  0.72160  0.40723  Biso   1.000  C
  C62      1.0000 0.95994  0.22160  0.09277  Biso   1.000  C
  C63      1.0000 0.95994  0.27840  0.59277  Biso   1.000  C
  C64      1.0000 0.04006  0.77840  0.90723  Biso   1.000  C
  H57      1.0000 0.00730  0.76330  0.35850  Biso   1.000  H
  H58      1.0000 0.99270  0.26330  0.14150  Biso   1.000  H
  H59      1.0000 0.99270  0.23670  0.64150  Biso   1.000  H
  H60      1.0000 0.00730  0.73670  0.85850  Biso   1.000  H
  C65      1.0000 0.11446  0.59710  0.41833  Biso   1.000  C
  C66      1.0000 0.88554  0.09710  0.08167  Biso   1.000  C
  C67      1.0000 0.88554  0.40290  0.58167  Biso   1.000  C
  C68      1.0000 0.11446  0.90290  0.91833  Biso   1.000  C
  C69      1.0000 0.16188  0.53400  0.49077  Biso   1.000  C
  C70      1.0000 0.83812  0.03400  0.00923  Biso   1.000  C
  C71      1.0000 0.83812  0.46600  0.50923  Biso   1.000  C
  C72      1.0000 0.16188  0.96600  0.99077  Biso   1.000  C
  H61      1.0000 0.21050  0.44920  0.49780  Biso   1.000  H
  H62      1.0000 0.78950  0.94920  0.00220  Biso   1.000  H
  H63      1.0000 0.78950  0.55080  0.50220  Biso   1.000  H
  H64      1.0000 0.21050  0.05080  0.99780  Biso   1.000  H
  C73      1.0000 0.19136  0.52210  0.63049  Biso   1.000  C
  C74      1.0000 0.80864  0.02210  0.86951  Biso   1.000  C
  C75      1.0000 0.80864  0.47790  0.36951  Biso   1.000  C
  C76      1.0000 0.19136  0.97790  0.13049  Biso   1.000  C
