data_image0
_cell_length_a       27.71
_cell_length_b       9.432
_cell_length_c       25.01
_cell_angle_alpha    90
_cell_angle_beta     120.17
_cell_angle_gamma    90

_symmetry_space_group_name_H-M    "P 1"
_symmetry_int_tables_number       1

loop_
  _symmetry_equiv_pos_as_xyz
  'x, y, z'

loop_
  _atom_site_label
  _atom_site_occupancy
  _atom_site_fract_x
  _atom_site_fract_y
  _atom_site_fract_z
  _atom_site_thermal_displace_type
  _atom_site_B_iso_or_equiv
  _atom_site_type_symbol
  Cu1      1.0000 0.22263  0.89213  0.02972  Biso   1.000  Cu
  Cu2      1.0000 0.22263  0.10787  0.52972  Biso   1.000  Cu
  Cu3      1.0000 0.72263  0.39213  0.02972  Biso   1.000  Cu
  Cu4      1.0000 0.72263  0.60787  0.52972  Biso   1.000  Cu
  Cu5      1.0000 0.96875  0.32360  0.55328  Biso   1.000  Cu
  Cu6      1.0000 0.96875  0.67640  0.05328  Biso   1.000  Cu
  Cu7      1.0000 0.46875  0.82360  0.55328  Biso   1.000  Cu
  Cu8      1.0000 0.46875  0.17640  0.05328  Biso   1.000  Cu
  N1       1.0000 0.24080  0.71590  0.99950  Biso   1.000  N
  N2       1.0000 0.24080  0.28410  0.49950  Biso   1.000  N
  N3       1.0000 0.74080  0.21590  0.99950  Biso   1.000  N
  N4       1.0000 0.74080  0.78410  0.49950  Biso   1.000  N
  N5       1.0000 0.27590  0.49910  0.02120  Biso   1.000  N
  N6       1.0000 0.27590  0.50090  0.52120  Biso   1.000  N
  N7       1.0000 0.77590  0.99910  0.02120  Biso   1.000  N
  N8       1.0000 0.77590  0.00090  0.52120  Biso   1.000  N
  H1       1.0000 0.29130  0.42340  0.04210  Biso   1.000  H
  H2       1.0000 0.29130  0.57660  0.54210  Biso   1.000  H
  H3       1.0000 0.79130  0.92340  0.04210  Biso   1.000  H
  H4       1.0000 0.79130  0.07660  0.54210  Biso   1.000  H
  N9       1.0000 0.27050  0.79400  0.11240  Biso   1.000  N
  N10      1.0000 0.27050  0.20600  0.61240  Biso   1.000  N
  N11      1.0000 0.77050  0.29400  0.11240  Biso   1.000  N
  N12      1.0000 0.77050  0.70600  0.61240  Biso   1.000  N
  H5       1.0000 0.30510  0.82600  0.12260  Biso   1.000  H
  H6       1.0000 0.30510  0.17400  0.62260  Biso   1.000  H
  H7       1.0000 0.80510  0.32600  0.12260  Biso   1.000  H
  H8       1.0000 0.80510  0.67400  0.62260  Biso   1.000  H
  N13      1.0000 0.21770  0.03880  0.08410  Biso   1.000  N
  N14      1.0000 0.21770  0.96120  0.58410  Biso   1.000  N
  N15      1.0000 0.71770  0.53880  0.08410  Biso   1.000  N
  N16      1.0000 0.71770  0.46120  0.58410  Biso   1.000  N
  N17      1.0000 0.23600  0.09660  0.17870  Biso   1.000  N
  N18      1.0000 0.23600  0.90340  0.67870  Biso   1.000  N
  N19      1.0000 0.73600  0.59660  0.17870  Biso   1.000  N
  N20      1.0000 0.73600  0.40340  0.67870  Biso   1.000  N
  H9       1.0000 0.24810  0.08970  0.21770  Biso   1.000  H
  H10      1.0000 0.24810  0.91030  0.71770  Biso   1.000  H
  H11      1.0000 0.74810  0.58970  0.21770  Biso   1.000  H
  H12      1.0000 0.74810  0.41030  0.71770  Biso   1.000  H
  N21      1.0000 0.17480  0.98070  0.94750  Biso   1.000  N
  N22      1.0000 0.17480  0.01930  0.44750  Biso   1.000  N
  N23      1.0000 0.67480  0.48070  0.94750  Biso   1.000  N
  N24      1.0000 0.67480  0.51930  0.44750  Biso   1.000  N
  N25      1.0000 0.01180  0.25520  0.64190  Biso   1.000  N
  N26      1.0000 0.01180  0.74480  0.14190  Biso   1.000  N
  N27      1.0000 0.51180  0.75520  0.64190  Biso   1.000  N
  N28      1.0000 0.51180  0.24480  0.14190  Biso   1.000  N
  N29      1.0000 0.93390  0.39930  0.46400  Biso   1.000  N
  N30      1.0000 0.93390  0.60070  0.96400  Biso   1.000  N
  N31      1.0000 0.43390  0.89930  0.46400  Biso   1.000  N
  N32      1.0000 0.43390  0.10070  0.96400  Biso   1.000  N
  H13      1.0000 0.89910  0.43090  0.45280  Biso   1.000  H
  H14      1.0000 0.89910  0.56910  0.95280  Biso   1.000  H
  H15      1.0000 0.39910  0.93090  0.45280  Biso   1.000  H
  H16      1.0000 0.39910  0.06910  0.95280  Biso   1.000  H
  N33      1.0000 0.99870  0.52310  0.57380  Biso   1.000  N
  N34      1.0000 0.99870  0.47690  0.07380  Biso   1.000  N
  N35      1.0000 0.49870  0.02310  0.57380  Biso   1.000  N
  N36      1.0000 0.49870  0.97690  0.07380  Biso   1.000  N
  N37      1.0000 0.02220  0.71150  0.54080  Biso   1.000  N
  N38      1.0000 0.02220  0.28850  0.04080  Biso   1.000  N
  N39      1.0000 0.52220  0.21150  0.54080  Biso   1.000  N
  N40      1.0000 0.52220  0.78850  0.04080  Biso   1.000  N
  H17      1.0000 0.02550  0.77020  0.51640  Biso   1.000  H
  H18      1.0000 0.02550  0.22980  0.01640  Biso   1.000  H
  H19      1.0000 0.52550  0.27020  0.51640  Biso   1.000  H
  H20      1.0000 0.52550  0.72980  0.01640  Biso   1.000  H
  N41      1.0000 0.93590  0.14300  0.50840  Biso   1.000  N
  N42      1.0000 0.93590  0.85700  0.00840  Biso   1.000  N
  N43      1.0000 0.43590  0.64300  0.50840  Biso   1.000  N
  N44      1.0000 0.43590  0.35700  0.00840  Biso   1.000  N
  N45      1.0000 0.89370  0.03690  0.41710  Biso   1.000  N
  N46      1.0000 0.89370  0.96310  0.91710  Biso   1.000  N
  N47      1.0000 0.39370  0.53690  0.41710  Biso   1.000  N
  N48      1.0000 0.39370  0.46310  0.91710  Biso   1.000  N
  H21      1.0000 0.87960  0.02430  0.37800  Biso   1.000  H
  H22      1.0000 0.87960  0.97570  0.87800  Biso   1.000  H
  H23      1.0000 0.37960  0.52430  0.37800  Biso   1.000  H
  H24      1.0000 0.37960  0.47570  0.87800  Biso   1.000  H
  C1       1.0000 0.23530  0.65710  0.94470  Biso   1.000  C
  C2       1.0000 0.23530  0.34290  0.44470  Biso   1.000  C
  C3       1.0000 0.73530  0.15710  0.94470  Biso   1.000  C
  C4       1.0000 0.73530  0.84290  0.44470  Biso   1.000  C
  C5       1.0000 0.21670  0.70680  0.88650  Biso   1.000  C
  C6       1.0000 0.21670  0.29320  0.38650  Biso   1.000  C
  C7       1.0000 0.71670  0.20680  0.88650  Biso   1.000  C
  C8       1.0000 0.71670  0.79320  0.38650  Biso   1.000  C
  H25      1.0000 0.20200  0.79790  0.87640  Biso   1.000  H
  H26      1.0000 0.20200  0.20210  0.37640  Biso   1.000  H
  H27      1.0000 0.70200  0.29790  0.87640  Biso   1.000  H
  H28      1.0000 0.70200  0.70210  0.37640  Biso   1.000  H
  C9       1.0000 0.21910  0.62820  0.84400  Biso   1.000  C
  C10      1.0000 0.21910  0.37180  0.34400  Biso   1.000  C
  C11      1.0000 0.71910  0.12820  0.84400  Biso   1.000  C
  C12      1.0000 0.71910  0.87180  0.34400  Biso   1.000  C
  H29      1.0000 0.20590  0.66530  0.80460  Biso   1.000  H
  H30      1.0000 0.20590  0.33470  0.30460  Biso   1.000  H
  H31      1.0000 0.70590  0.16530  0.80460  Biso   1.000  H
  H32      1.0000 0.70590  0.83470  0.30460  Biso   1.000  H
  C13      1.0000 0.24100  0.49070  0.85700  Biso   1.000  C
  C14      1.0000 0.24100  0.50930  0.35700  Biso   1.000  C
  C15      1.0000 0.74100  0.99070  0.85700  Biso   1.000  C
  C16      1.0000 0.74100  0.00930  0.35700  Biso   1.000  C
  H33      1.0000 0.24090  0.43710  0.82580  Biso   1.000  H
  H34      1.0000 0.24090  0.56290  0.32580  Biso   1.000  H
  H35      1.0000 0.74090  0.93710  0.82580  Biso   1.000  H
  H36      1.0000 0.74090  0.06290  0.32580  Biso   1.000  H
  C17      1.0000 0.26250  0.43370  0.91470  Biso   1.000  C
  C18      1.0000 0.26250  0.56630  0.41470  Biso   1.000  C
  C19      1.0000 0.76250  0.93370  0.91470  Biso   1.000  C
  C20      1.0000 0.76250  0.06630  0.41470  Biso   1.000  C
  H37      1.0000 0.27840  0.34380  0.92440  Biso   1.000  H
  H38      1.0000 0.27840  0.65620  0.42440  Biso   1.000  H
  H39      1.0000 0.77840  0.84380  0.92440  Biso   1.000  H
  H40      1.0000 0.77840  0.15620  0.42440  Biso   1.000  H
  C21      1.0000 0.25890  0.52240  0.96000  Biso   1.000  C
  C22      1.0000 0.25890  0.47760  0.46000  Biso   1.000  C
  C23      1.0000 0.75890  0.02240  0.96000  Biso   1.000  C
  C24      1.0000 0.75890  0.97760  0.46000  Biso   1.000  C
  C25      1.0000 0.26360  0.61930  0.04230  Biso   1.000  C
  C26      1.0000 0.26360  0.38070  0.54230  Biso   1.000  C
  C27      1.0000 0.76360  0.11930  0.04230  Biso   1.000  C
  C28      1.0000 0.76360  0.88070  0.54230  Biso   1.000  C
  C29      1.0000 0.27660  0.64520  0.10600  Biso   1.000  C
  C30      1.0000 0.27660  0.35480  0.60600  Biso   1.000  C
  C31      1.0000 0.77660  0.14520  0.10600  Biso   1.000  C
  C32      1.0000 0.77660  0.85480  0.60600  Biso   1.000  C
  H41      1.0000 0.25130  0.59180  0.11460  Biso   1.000  H
  H42      1.0000 0.25130  0.40820  0.61460  Biso   1.000  H
  H43      1.0000 0.75130  0.09180  0.11460  Biso   1.000  H
  H44      1.0000 0.75130  0.90820  0.61460  Biso   1.000  H
  H45      1.0000 0.31450  0.61540  0.13480  Biso   1.000  H
  H46      1.0000 0.31450  0.38460  0.63480  Biso   1.000  H
  H47      1.0000 0.81450  0.11540  0.13480  Biso   1.000  H
  H48      1.0000 0.81450  0.88460  0.63480  Biso   1.000  H
  C33      1.0000 0.26450  0.85380  0.16040  Biso   1.000  C
  C34      1.0000 0.26450  0.14620  0.66040  Biso   1.000  C
  C35      1.0000 0.76450  0.35380  0.16040  Biso   1.000  C
  C36      1.0000 0.76450  0.64620  0.66040  Biso   1.000  C
  H49      1.0000 0.30060  0.85940  0.19790  Biso   1.000  H
  H50      1.0000 0.30060  0.14060  0.69790  Biso   1.000  H
  H51      1.0000 0.80060  0.35940  0.19790  Biso   1.000  H
  H52      1.0000 0.80060  0.64060  0.69790  Biso   1.000  H
  H53      1.0000 0.24030  0.79440  0.16860  Biso   1.000  H
  H54      1.0000 0.24030  0.20560  0.66860  Biso   1.000  H
  H55      1.0000 0.74030  0.29440  0.16860  Biso   1.000  H
  H56      1.0000 0.74030  0.70560  0.66860  Biso   1.000  H
  C37      1.0000 0.24040  0.99520  0.14230  Biso   1.000  C
  C38      1.0000 0.24040  0.00480  0.64230  Biso   1.000  C
  C39      1.0000 0.74040  0.49520  0.14230  Biso   1.000  C
  C40      1.0000 0.74040  0.50480  0.64230  Biso   1.000  C
  C41      1.0000 0.20920  0.20980  0.14270  Biso   1.000  C
  C42      1.0000 0.20920  0.79020  0.64270  Biso   1.000  C
  C43      1.0000 0.70920  0.70980  0.14270  Biso   1.000  C
  C44      1.0000 0.70920  0.29020  0.64270  Biso   1.000  C
  C45      1.0000 0.19000  0.33540  0.15500  Biso   1.000  C
  C46      1.0000 0.19000  0.66460  0.65500  Biso   1.000  C
  C47      1.0000 0.69000  0.83540  0.15500  Biso   1.000  C
  C48      1.0000 0.69000  0.16460  0.65500  Biso   1.000  C
  H57      1.0000 0.19520  0.35580  0.19400  Biso   1.000  H
  H58      1.0000 0.19520  0.64420  0.69400  Biso   1.000  H
  H59      1.0000 0.69520  0.85580  0.19400  Biso   1.000  H
  H60      1.0000 0.69520  0.14420  0.69400  Biso   1.000  H
  C49      1.0000 0.16310  0.42660  0.10620  Biso   1.000  C
  C50      1.0000 0.16310  0.57340  0.60620  Biso   1.000  C
  C51      1.0000 0.66310  0.92660  0.10620  Biso   1.000  C
  C52      1.0000 0.66310  0.07340  0.60620  Biso   1.000  C
  H61      1.0000 0.15470  0.51660  0.11440  Biso   1.000  H
  H62      1.0000 0.15470  0.48340  0.61440  Biso   1.000  H
  H63      1.0000 0.65470  0.01660  0.11440  Biso   1.000  H
  H64      1.0000 0.65470  0.98340  0.61440  Biso   1.000  H
  C53      1.0000 0.14780  0.39560  0.04650  Biso   1.000  C
  C54      1.0000 0.14780  0.60440  0.54650  Biso   1.000  C
  C55      1.0000 0.64780  0.89560  0.04650  Biso   1.000  C
  C56      1.0000 0.64780  0.10440  0.54650  Biso   1.000  C
  H65      1.0000 0.12560  0.45750  0.01450  Biso   1.000  H
  H66      1.0000 0.12560  0.54250  0.51450  Biso   1.000  H
  H67      1.0000 0.62560  0.95750  0.01450  Biso   1.000  H
  H68      1.0000 0.62560  0.04250  0.51450  Biso   1.000  H
  C57      1.0000 0.16620  0.26800  0.03490  Biso   1.000  C
  C58      1.0000 0.16620  0.73200  0.53490  Biso   1.000  C
  C59      1.0000 0.66620  0.76800  0.03490  Biso   1.000  C
  C60      1.0000 0.66620  0.23200  0.53490  Biso   1.000  C
  H69      1.0000 0.15960  0.24800  0.99540  Biso   1.000  H
  H70      1.0000 0.15960  0.75200  0.49540  Biso   1.000  H
  H71      1.0000 0.65960  0.74800  0.99540  Biso   1.000  H
  H72      1.0000 0.65960  0.25200  0.49540  Biso   1.000  H
  C61      1.0000 0.19370  0.17390  0.08090  Biso   1.000  C
  C62      1.0000 0.19370  0.82610  0.58090  Biso   1.000  C
  C63      1.0000 0.69370  0.67390  0.08090  Biso   1.000  C
  C64      1.0000 0.69370  0.32610  0.58090  Biso   1.000  C
  C65      1.0000 0.19390  0.08660  0.92480  Biso   1.000  C
  C66      1.0000 0.19390  0.91340  0.42480  Biso   1.000  C
  C67      1.0000 0.69390  0.58660  0.92480  Biso   1.000  C
  C68      1.0000 0.69390  0.41340  0.42480  Biso   1.000  C
  H73      1.0000 0.23020  0.11910  0.95010  Biso   1.000  H
  H74      1.0000 0.23020  0.88090  0.45010  Biso   1.000  H
  H75      1.0000 0.73020  0.61910  0.95010  Biso   1.000  H
  H76      1.0000 0.73020  0.38090  0.45010  Biso   1.000  H
  C69      1.0000 0.16380  0.14590  0.86880  Biso   1.000  C
  C70      1.0000 0.16380  0.85410  0.36880  Biso   1.000  C
  C71      1.0000 0.66380  0.64590  0.86880  Biso   1.000  C
  C72      1.0000 0.66380  0.35410  0.36880  Biso   1.000  C
  H77      1.0000 0.17950  0.21820  0.85710  Biso   1.000  H
  H78      1.0000 0.17950  0.78180  0.35710  Biso   1.000  H
  H79      1.0000 0.67950  0.71820  0.85710  Biso   1.000  H
  H80      1.0000 0.67950  0.28180  0.35710  Biso   1.000  H
  C73      1.0000 0.10970  0.10130  0.82790  Biso   1.000  C
  C74      1.0000 0.10970  0.89870  0.32790  Biso   1.000  C
  C75      1.0000 0.60970  0.60130  0.82790  Biso   1.000  C
  C76      1.0000 0.60970  0.39870  0.32790  Biso   1.000  C
  C77      1.0000 0.08960  0.99030  0.84870  Biso   1.000  C
  C78      1.0000 0.08960  0.00970  0.34870  Biso   1.000  C
  C79      1.0000 0.58960  0.49030  0.84870  Biso   1.000  C
  C80      1.0000 0.58960  0.50970  0.34870  Biso   1.000  C
  H81      1.0000 0.05430  0.95290  0.82300  Biso   1.000  H
  H82      1.0000 0.05430  0.04710  0.32300  Biso   1.000  H
  H83      1.0000 0.55430  0.45290  0.82300  Biso   1.000  H
  H84      1.0000 0.55430  0.54710  0.32300  Biso   1.000  H
  C81      1.0000 0.12230  0.93740  0.90720  Biso   1.000  C
  C82      1.0000 0.12230  0.06260  0.40720  Biso   1.000  C
  C83      1.0000 0.62230  0.43740  0.90720  Biso   1.000  C
  C84      1.0000 0.62230  0.56260  0.40720  Biso   1.000  C
  H85      1.0000 0.10720  0.86620  0.92010  Biso   1.000  H
  H86      1.0000 0.10720  0.13380  0.42010  Biso   1.000  H
  H87      1.0000 0.60720  0.36620  0.92010  Biso   1.000  H
  H88      1.0000 0.60720  0.63380  0.42010  Biso   1.000  H
  C85      1.0000 0.07450  0.16000  0.76380  Biso   1.000  C
  C86      1.0000 0.07450  0.84000  0.26380  Biso   1.000  C
  C87      1.0000 0.57450  0.66000  0.76380  Biso   1.000  C
  C88      1.0000 0.57450  0.34000  0.26380  Biso   1.000  C
  C89      1.0000 0.09980  0.20570  0.72920  Biso   1.000  C
  C90      1.0000 0.09980  0.79430  0.22920  Biso   1.000  C
  C91      1.0000 0.59980  0.70570  0.72920  Biso   1.000  C
  C92      1.0000 0.59980  0.29430  0.22920  Biso   1.000  C
  H89      1.0000 0.13840  0.20170  0.74680  Biso   1.000  H
  H90      1.0000 0.13840  0.79830  0.24680  Biso   1.000  H
  H91      1.0000 0.63840  0.70170  0.74680  Biso   1.000  H
  H92      1.0000 0.63840  0.29830  0.24680  Biso   1.000  H
  C93      1.0000 0.06770  0.25500  0.67060  Biso   1.000  C
  C94      1.0000 0.06770  0.74500  0.17060  Biso   1.000  C
  C95      1.0000 0.56770  0.75500  0.67060  Biso   1.000  C
  C96      1.0000 0.56770  0.24500  0.17060  Biso   1.000  C
  H93      1.0000 0.08510  0.28990  0.64980  Biso   1.000  H
  H94      1.0000 0.08510  0.71010  0.14980  Biso   1.000  H
  H95      1.0000 0.58510  0.78990  0.64980  Biso   1.000  H
  H96      1.0000 0.58510  0.21010  0.14980  Biso   1.000  H
  C97      1.0000 0.98850  0.21560  0.67480  Biso   1.000  C
  C98      1.0000 0.98850  0.78440  0.17480  Biso   1.000  C
  C99      1.0000 0.48850  0.71560  0.67480  Biso   1.000  C
  C100     1.0000 0.48850  0.28440  0.17480  Biso   1.000  C
  H97      1.0000 0.94980  0.22190  0.65560  Biso   1.000  H
  H98      1.0000 0.94980  0.77810  0.15560  Biso   1.000  H
  H99      1.0000 0.44980  0.72190  0.65560  Biso   1.000  H
  H100     1.0000 0.44980  0.27810  0.15560  Biso   1.000  H
  C101     1.0000 0.01660  0.16590  0.73520  Biso   1.000  C
  C102     1.0000 0.01660  0.83410  0.23520  Biso   1.000  C
  C103     1.0000 0.51660  0.66590  0.73520  Biso   1.000  C
  C104     1.0000 0.51660  0.33410  0.23520  Biso   1.000  C
  H101     1.0000 0.99780  0.13800  0.75540  Biso   1.000  H
  H102     1.0000 0.99780  0.86200  0.25540  Biso   1.000  H
  H103     1.0000 0.49780  0.63800  0.75540  Biso   1.000  H
  H104     1.0000 0.49780  0.36200  0.25540  Biso   1.000  H
  C105     1.0000 0.02950  0.61530  0.62370  Biso   1.000  C
  C106     1.0000 0.02950  0.38470  0.12370  Biso   1.000  C
  C107     1.0000 0.52950  0.11530  0.62370  Biso   1.000  C
  C108     1.0000 0.52950  0.88470  0.12370  Biso   1.000  C
  C109     1.0000 0.04200  0.60100  0.68590  Biso   1.000  C
  C110     1.0000 0.04200  0.39900  0.18590  Biso   1.000  C
  C111     1.0000 0.54200  0.10100  0.68590  Biso   1.000  C
  C112     1.0000 0.54200  0.89900  0.18590  Biso   1.000  C
  H105     1.0000 0.03020  0.52320  0.69920  Biso   1.000  H
  H106     1.0000 0.03020  0.47680  0.19920  Biso   1.000  H
  H107     1.0000 0.53020  0.02320  0.69920  Biso   1.000  H
  H108     1.0000 0.53020  0.97680  0.19920  Biso   1.000  H
  C113     1.0000 0.07230  0.70760  0.72490  Biso   1.000  C
  C114     1.0000 0.07230  0.29240  0.22490  Biso   1.000  C
  C115     1.0000 0.57230  0.20760  0.72490  Biso   1.000  C
  C116     1.0000 0.57230  0.79240  0.22490  Biso   1.000  C
  H109     1.0000 0.08030  0.70370  0.76570  Biso   1.000  H
  H110     1.0000 0.08030  0.29630  0.26570  Biso   1.000  H
  H111     1.0000 0.58030  0.20370  0.76570  Biso   1.000  H
  H112     1.0000 0.58030  0.79630  0.26570  Biso   1.000  H
  C117     1.0000 0.09220  0.82520  0.70580  Biso   1.000  C
  C118     1.0000 0.09220  0.17480  0.20580  Biso   1.000  C
  C119     1.0000 0.59220  0.32520  0.70580  Biso   1.000  C
  C120     1.0000 0.59220  0.67480  0.20580  Biso   1.000  C
  H113     1.0000 0.11620  0.89150  0.73430  Biso   1.000  H
  H114     1.0000 0.11620  0.10850  0.23430  Biso   1.000  H
  H115     1.0000 0.61620  0.39150  0.73430  Biso   1.000  H
  H116     1.0000 0.61620  0.60850  0.23430  Biso   1.000  H
  C121     1.0000 0.07480  0.83850  0.64250  Biso   1.000  C
  C122     1.0000 0.07480  0.16150  0.14250  Biso   1.000  C
  C123     1.0000 0.57480  0.33850  0.64250  Biso   1.000  C
  C124     1.0000 0.57480  0.66150  0.14250  Biso   1.000  C
  H117     1.0000 0.08370  0.91900  0.62780  Biso   1.000  H
  H118     1.0000 0.08370  0.08100  0.12780  Biso   1.000  H
  H119     1.0000 0.58370  0.41900  0.62780  Biso   1.000  H
  H120     1.0000 0.58370  0.58100  0.12780  Biso   1.000  H
  C125     1.0000 0.04400  0.73000  0.60230  Biso   1.000  C
  C126     1.0000 0.04400  0.27000  0.10230  Biso   1.000  C
  C127     1.0000 0.54400  0.23000  0.60230  Biso   1.000  C
  C128     1.0000 0.54400  0.77000  0.10230  Biso   1.000  C
  C129     1.0000 0.99450  0.58640  0.52340  Biso   1.000  C
  C130     1.0000 0.99450  0.41360  0.02340  Biso   1.000  C
  C131     1.0000 0.49450  0.08640  0.52340  Biso   1.000  C
  C132     1.0000 0.49450  0.91360  0.02340  Biso   1.000  C
  C133     1.0000 0.96500  0.51970  0.46170  Biso   1.000  C
  C134     1.0000 0.96500  0.48030  0.96170  Biso   1.000  C
  C135     1.0000 0.46500  0.01970  0.46170  Biso   1.000  C
  C136     1.0000 0.46500  0.98030  0.96170  Biso   1.000  C
  H121     1.0000 0.93980  0.58750  0.43130  Biso   1.000  H
  H122     1.0000 0.93980  0.41250  0.93130  Biso   1.000  H
  H123     1.0000 0.43980  0.08750  0.43130  Biso   1.000  H
  H124     1.0000 0.43980  0.91250  0.93130  Biso   1.000  H
  H125     1.0000 0.99170  0.48910  0.44990  Biso   1.000  H
  H126     1.0000 0.99170  0.51090  0.94990  Biso   1.000  H
  H127     1.0000 0.49170  0.98910  0.44990  Biso   1.000  H
  H128     1.0000 0.49170  0.01090  0.94990  Biso   1.000  H
  C137     1.0000 0.92690  0.27920  0.42130  Biso   1.000  C
  C138     1.0000 0.92690  0.72080  0.92130  Biso   1.000  C
  C139     1.0000 0.42690  0.77920  0.42130  Biso   1.000  C
  C140     1.0000 0.42690  0.22080  0.92130  Biso   1.000  C
  H129     1.0000 0.89480  0.29560  0.38060  Biso   1.000  H
  H130     1.0000 0.89480  0.70440  0.88060  Biso   1.000  H
  H131     1.0000 0.39480  0.79560  0.38060  Biso   1.000  H
  H132     1.0000 0.39480  0.20440  0.88060  Biso   1.000  H
  H133     1.0000 0.95980  0.27030  0.41720  Biso   1.000  H
  H134     1.0000 0.95980  0.72970  0.91720  Biso   1.000  H
  H135     1.0000 0.45980  0.77030  0.41720  Biso   1.000  H
  H136     1.0000 0.45980  0.22970  0.91720  Biso   1.000  H
  C141     1.0000 0.91900  0.15190  0.44840  Biso   1.000  C
  C142     1.0000 0.91900  0.84810  0.94840  Biso   1.000  C
  C143     1.0000 0.41900  0.65190  0.44840  Biso   1.000  C
  C144     1.0000 0.41900  0.34810  0.94840  Biso   1.000  C
  C145     1.0000 0.89360  0.93650  0.46010  Biso   1.000  C
  C146     1.0000 0.89360  0.06350  0.96010  Biso   1.000  C
  C147     1.0000 0.39360  0.43650  0.46010  Biso   1.000  C
  C148     1.0000 0.39360  0.56350  0.96010  Biso   1.000  C
  C149     1.0000 0.86870  0.80420  0.44670  Biso   1.000  C
  C150     1.0000 0.86870  0.19580  0.94670  Biso   1.000  C
  C151     1.0000 0.36870  0.30420  0.44670  Biso   1.000  C
  C152     1.0000 0.36870  0.69580  0.94670  Biso   1.000  C
  H137     1.0000 0.84950  0.76420  0.40740  Biso   1.000  H
  H138     1.0000 0.84950  0.23580  0.90740  Biso   1.000  H
  H139     1.0000 0.34950  0.26420  0.40740  Biso   1.000  H
  H140     1.0000 0.34950  0.73580  0.90740  Biso   1.000  H
  C153     1.0000 0.87620  0.74300  0.49760  Biso   1.000  C
  C154     1.0000 0.87620  0.25700  0.99760  Biso   1.000  C
  C155     1.0000 0.37620  0.24300  0.49760  Biso   1.000  C
  C156     1.0000 0.37620  0.75700  0.99760  Biso   1.000  C
  H141     1.0000 0.86300  0.65100  0.49350  Biso   1.000  H
  H142     1.0000 0.86300  0.34900  0.99350  Biso   1.000  H
  H143     1.0000 0.36300  0.15100  0.49350  Biso   1.000  H
  H144     1.0000 0.36300  0.84900  0.99350  Biso   1.000  H
  C157     1.0000 0.90160  0.80000  0.55710  Biso   1.000  C
  C158     1.0000 0.90160  0.20000  0.05710  Biso   1.000  C
  C159     1.0000 0.40160  0.30000  0.55710  Biso   1.000  C
  C160     1.0000 0.40160  0.70000  0.05710  Biso   1.000  C
  H145     1.0000 0.90270  0.74730  0.58900  Biso   1.000  H
  H146     1.0000 0.90270  0.25270  0.08900  Biso   1.000  H
  H147     1.0000 0.40270  0.24730  0.58900  Biso   1.000  H
  H148     1.0000 0.40270  0.75270  0.08900  Biso   1.000  H
  C161     1.0000 0.92570  0.93780  0.56990  Biso   1.000  C
  C162     1.0000 0.92570  0.06220  0.06990  Biso   1.000  C
  C163     1.0000 0.42570  0.43780  0.56990  Biso   1.000  C
  C164     1.0000 0.42570  0.56220  0.06990  Biso   1.000  C
  H149     1.0000 0.96510  0.93070  0.60030  Biso   1.000  H
  H150     1.0000 0.96510  0.06930  0.10030  Biso   1.000  H
  H151     1.0000 0.46510  0.43070  0.60030  Biso   1.000  H
  H152     1.0000 0.46510  0.56930  0.10030  Biso   1.000  H
  C165     1.0000 0.91910  0.00490  0.51490  Biso   1.000  C
  C166     1.0000 0.91910  0.99510  0.01490  Biso   1.000  C
  C167     1.0000 0.41910  0.50490  0.51490  Biso   1.000  C
  C168     1.0000 0.41910  0.49510  0.01490  Biso   1.000  C
  Cl1      1.0000 0.34751  0.10810  0.07852  Biso   1.000  Cl
  Cl2      1.0000 0.34751  0.89190  0.57852  Biso   1.000  Cl
  Cl3      1.0000 0.84751  0.60810  0.07852  Biso   1.000  Cl
  Cl4      1.0000 0.84751  0.39190  0.57852  Biso   1.000  Cl
  O1       1.0000 0.30960  0.00200  0.04340  Biso   1.000  O
  O2       1.0000 0.30960  0.99800  0.54340  Biso   1.000  O
  O3       1.0000 0.80960  0.50200  0.04340  Biso   1.000  O
  O4       1.0000 0.80960  0.49800  0.54340  Biso   1.000  O
  O5       1.0000 0.38650  0.12390  0.06330  Biso   1.000  O
  O6       1.0000 0.38650  0.87610  0.56330  Biso   1.000  O
  O7       1.0000 0.88650  0.62390  0.06330  Biso   1.000  O
  O8       1.0000 0.88650  0.37610  0.56330  Biso   1.000  O
  O9       1.0000 0.37500  0.05900  0.13560  Biso   1.000  O
  O10      1.0000 0.37500  0.94100  0.63560  Biso   1.000  O
  O11      1.0000 0.87500  0.55900  0.13560  Biso   1.000  O
  O12      1.0000 0.87500  0.44100  0.63560  Biso   1.000  O
  O13      1.0000 0.32490  0.22860  0.08480  Biso   1.000  O
  O14      1.0000 0.32490  0.77140  0.58480  Biso   1.000  O
  O15      1.0000 0.82490  0.72860  0.08480  Biso   1.000  O
  O16      1.0000 0.82490  0.27140  0.58480  Biso   1.000  O
  Cl5      1.0000 0.09631  0.80700  0.03806  Biso   1.000  Cl
  Cl6      1.0000 0.09631  0.19300  0.53806  Biso   1.000  Cl
  Cl7      1.0000 0.59631  0.30700  0.03806  Biso   1.000  Cl
  Cl8      1.0000 0.59631  0.69300  0.53806  Biso   1.000  Cl
  O17      1.0000 0.13760  0.75330  0.02380  Biso   1.000  O
  O18      1.0000 0.13760  0.24670  0.52380  Biso   1.000  O
  O19      1.0000 0.63760  0.25330  0.02380  Biso   1.000  O
  O20      1.0000 0.63760  0.74670  0.52380  Biso   1.000  O
  O21      1.0000 0.12190  0.86920  0.09600  Biso   1.000  O
  O22      1.0000 0.12190  0.13080  0.59600  Biso   1.000  O
  O23      1.0000 0.62190  0.36920  0.09600  Biso   1.000  O
  O24      1.0000 0.62190  0.63080  0.59600  Biso   1.000  O
  O25      1.0000 0.06010  0.69740  0.03580  Biso   1.000  O
  O26      1.0000 0.06010  0.30260  0.53580  Biso   1.000  O
  O27      1.0000 0.56010  0.19740  0.03580  Biso   1.000  O
  O28      1.0000 0.56010  0.80260  0.53580  Biso   1.000  O
  O29      1.0000 0.07100  0.91600  0.00530  Biso   1.000  O
  O30      1.0000 0.07100  0.08400  0.50530  Biso   1.000  O
  O31      1.0000 0.57100  0.41600  0.00530  Biso   1.000  O
  O32      1.0000 0.57100  0.58400  0.50530  Biso   1.000  O
  Cl9      1.0000 0.28040  0.05600  0.83018  Biso   1.000  Cl
  Cl10     1.0000 0.28040  0.94400  0.33018  Biso   1.000  Cl
  Cl11     1.0000 0.78040  0.55600  0.83018  Biso   1.000  Cl
  Cl12     1.0000 0.78040  0.44400  0.33018  Biso   1.000  Cl
  O33      1.0000 0.30310  0.07040  0.89490  Biso   1.000  O
  O34      1.0000 0.30310  0.92960  0.39490  Biso   1.000  O
  O35      1.0000 0.80310  0.57040  0.89490  Biso   1.000  O
  O36      1.0000 0.80310  0.42960  0.39490  Biso   1.000  O
  O37      1.0000 0.31830  0.99030  0.81720  Biso   1.000  O
  O38      1.0000 0.31830  0.00970  0.31720  Biso   1.000  O
  O39      1.0000 0.81830  0.49030  0.81720  Biso   1.000  O
  O40      1.0000 0.81830  0.50970  0.31720  Biso   1.000  O
  O41      1.0000 0.27190  0.19030  0.80570  Biso   1.000  O
  O42      1.0000 0.27190  0.80970  0.30570  Biso   1.000  O
  O43      1.0000 0.77190  0.69030  0.80570  Biso   1.000  O
  O44      1.0000 0.77190  0.30970  0.30570  Biso   1.000  O
  O45      1.0000 0.22960  0.98140  0.80410  Biso   1.000  O
  O46      1.0000 0.22960  0.01860  0.30410  Biso   1.000  O
  O47      1.0000 0.72960  0.48140  0.80410  Biso   1.000  O
  O48      1.0000 0.72960  0.51860  0.30410  Biso   1.000  O
  Cl13     1.0000 0.92600  0.16380  0.26100  Biso   1.000  Cl
  Cl14     1.0000 0.92600  0.83620  0.76100  Biso   1.000  Cl
  Cl15     1.0000 0.42600  0.66380  0.26100  Biso   1.000  Cl
  Cl16     1.0000 0.42600  0.33620  0.76100  Biso   1.000  Cl
  O49      1.0000 0.87830  0.19400  0.26690  Biso   1.000  O
  O50      1.0000 0.87830  0.80600  0.76690  Biso   1.000  O
  O51      1.0000 0.37830  0.69400  0.26690  Biso   1.000  O
  O52      1.0000 0.37830  0.30600  0.76690  Biso   1.000  O
  O53      1.0000 0.91690  0.04400  0.22050  Biso   1.000  O
  O54      1.0000 0.91690  0.95600  0.72050  Biso   1.000  O
  O55      1.0000 0.41690  0.54400  0.22050  Biso   1.000  O
  O56      1.0000 0.41690  0.45600  0.72050  Biso   1.000  O
  O57      1.0000 0.96560  0.10300  0.31970  Biso   1.000  O
  O58      1.0000 0.96560  0.89700  0.81970  Biso   1.000  O
  O59      1.0000 0.46560  0.60300  0.31970  Biso   1.000  O
  O60      1.0000 0.46560  0.39700  0.81970  Biso   1.000  O
  O61      1.0000 0.91270  0.28100  0.22050  Biso   1.000  O
  O62      1.0000 0.91270  0.71900  0.72050  Biso   1.000  O
  O63      1.0000 0.41270  0.78100  0.22050  Biso   1.000  O
  O64      1.0000 0.41270  0.21900  0.72050  Biso   1.000  O
  O65      1.0000 0.01410  0.82730  0.42850  Biso   1.000  O
  O66      1.0000 0.01410  0.17270  0.92850  Biso   1.000  O
  O67      1.0000 0.51410  0.32730  0.42850  Biso   1.000  O
  O68      1.0000 0.51410  0.67270  0.92850  Biso   1.000  O
  H153     1.0000 0.90820  0.99580  0.58740  Biso   1.000  H
  H154     1.0000 0.90820  0.00420  0.08740  Biso   1.000  H
  H155     1.0000 0.40820  0.49580  0.58740  Biso   1.000  H
  H156     1.0000 0.40820  0.50420  0.08740  Biso   1.000  H
