data_image0
_cell_length_a       6.417
_cell_length_b       13.976
_cell_length_c       10.49
_cell_angle_alpha    90
_cell_angle_beta     100.84
_cell_angle_gamma    90

_symmetry_space_group_name_H-M    "P 1"
_symmetry_int_tables_number       1

loop_
  _symmetry_equiv_pos_as_xyz
  'x, y, z'

loop_
  _atom_site_label
  _atom_site_occupancy
  _atom_site_fract_x
  _atom_site_fract_y
  _atom_site_fract_z
  _atom_site_thermal_displace_type
  _atom_site_B_iso_or_equiv
  _atom_site_type_symbol
  Cu1      1.0000 0.50000  0.00000  0.00000  Biso   1.000  Cu
  Cu2      1.0000 0.00000  0.50000  0.50000  Biso   1.000  Cu
  O1       1.0000 0.70410  0.89526  0.06885  Biso   1.000  O
  O2       1.0000 0.20410  0.60474  0.56885  Biso   1.000  O
  O3       1.0000 0.29590  0.10474  0.93115  Biso   1.000  O
  O4       1.0000 0.79590  0.39526  0.43115  Biso   1.000  O
  H1       1.0000 0.80000  0.86300  0.01400  Biso   1.000  H
  H2       1.0000 0.30000  0.63700  0.51400  Biso   1.000  H
  H3       1.0000 0.20000  0.13700  0.98600  Biso   1.000  H
  H4       1.0000 0.70000  0.36300  0.48600  Biso   1.000  H
  H5       1.0000 0.69800  0.83700  0.12700  Biso   1.000  H
  H6       1.0000 0.19800  0.66300  0.62700  Biso   1.000  H
  H7       1.0000 0.30200  0.16300  0.87300  Biso   1.000  H
  H8       1.0000 0.80200  0.33700  0.37300  Biso   1.000  H
  N1       1.0000 0.37920  0.99594  0.16680  Biso   1.000  N
  N2       1.0000 0.87920  0.50406  0.66680  Biso   1.000  N
  N3       1.0000 0.62080  0.00406  0.83320  Biso   1.000  N
  N4       1.0000 0.12080  0.49594  0.33320  Biso   1.000  N
  C1       1.0000 0.38960  0.07251  0.24470  Biso   1.000  C
  C2       1.0000 0.88960  0.42749  0.74470  Biso   1.000  C
  C3       1.0000 0.61040  0.92749  0.75530  Biso   1.000  C
  C4       1.0000 0.11040  0.57251  0.25530  Biso   1.000  C
  H9       1.0000 0.45250  0.12810  0.22120  Biso   1.000  H
  H10      1.0000 0.95250  0.37190  0.72120  Biso   1.000  H
  H11      1.0000 0.54750  0.87190  0.77880  Biso   1.000  H
  H12      1.0000 0.04750  0.62810  0.27880  Biso   1.000  H
  C5       1.0000 0.31010  0.07213  0.35890  Biso   1.000  C
  C6       1.0000 0.81010  0.42787  0.85890  Biso   1.000  C
  C7       1.0000 0.68990  0.92787  0.64110  Biso   1.000  C
  C8       1.0000 0.18990  0.57213  0.14110  Biso   1.000  C
  H13      1.0000 0.32080  0.12660  0.41070  Biso   1.000  H
  H14      1.0000 0.82080  0.37340  0.91070  Biso   1.000  H
  H15      1.0000 0.67920  0.87340  0.58930  Biso   1.000  H
  H16      1.0000 0.17920  0.62660  0.08930  Biso   1.000  H
  C9       1.0000 0.21450  0.98989  0.39550  Biso   1.000  C
  C10      1.0000 0.71450  0.51011  0.89550  Biso   1.000  C
  C11      1.0000 0.78550  0.01011  0.60450  Biso   1.000  C
  C12      1.0000 0.28550  0.48989  0.10450  Biso   1.000  C
  C13      1.0000 0.20410  0.91158  0.31440  Biso   1.000  C
  C14      1.0000 0.70410  0.58842  0.81440  Biso   1.000  C
  C15      1.0000 0.79590  0.08842  0.68560  Biso   1.000  C
  C16      1.0000 0.29590  0.41158  0.18560  Biso   1.000  C
  H17      1.0000 0.14030  0.85540  0.33530  Biso   1.000  H
  H18      1.0000 0.64030  0.64460  0.83530  Biso   1.000  H
  H19      1.0000 0.85970  0.14460  0.66470  Biso   1.000  H
  H20      1.0000 0.35970  0.35540  0.16470  Biso   1.000  H
  C17      1.0000 0.28830  0.91602  0.20190  Biso   1.000  C
  C18      1.0000 0.78830  0.58398  0.70190  Biso   1.000  C
  C19      1.0000 0.71170  0.08398  0.79810  Biso   1.000  C
  C20      1.0000 0.21170  0.41602  0.29810  Biso   1.000  C
  H21      1.0000 0.28160  0.86210  0.14930  Biso   1.000  H
  H22      1.0000 0.78160  0.63790  0.64930  Biso   1.000  H
  H23      1.0000 0.71840  0.13790  0.85070  Biso   1.000  H
  H24      1.0000 0.21840  0.36210  0.35070  Biso   1.000  H
  C21      1.0000 0.11840  0.98740  0.51610  Biso   1.000  C
  C22      1.0000 0.61840  0.51260  0.01610  Biso   1.000  C
  C23      1.0000 0.88160  0.01260  0.48390  Biso   1.000  C
  C24      1.0000 0.38160  0.48740  0.98390  Biso   1.000  C
  H25      1.0000 0.19160  0.03270  0.57910  Biso   1.000  H
  H26      1.0000 0.69160  0.46730  0.07910  Biso   1.000  H
  H27      1.0000 0.80840  0.96730  0.42090  Biso   1.000  H
  H28      1.0000 0.30840  0.53270  0.92090  Biso   1.000  H
  H29      1.0000 0.13600  0.92410  0.55440  Biso   1.000  H
  H30      1.0000 0.63600  0.57590  0.05440  Biso   1.000  H
  H31      1.0000 0.86400  0.07590  0.44560  Biso   1.000  H
  H32      1.0000 0.36400  0.42410  0.94560  Biso   1.000  H
  Cl1      1.0000 0.84668  0.20029  0.13502  Biso   1.000  Cl
  Cl2      1.0000 0.34668  0.29971  0.63502  Biso   1.000  Cl
  Cl3      1.0000 0.15332  0.79971  0.86498  Biso   1.000  Cl
  Cl4      1.0000 0.65332  0.70029  0.36498  Biso   1.000  Cl
  O5       1.0000 0.81710  0.09850  0.11860  Biso   1.000  O
  O6       1.0000 0.31710  0.40150  0.61860  Biso   1.000  O
  O7       1.0000 0.18290  0.90150  0.88140  Biso   1.000  O
  O8       1.0000 0.68290  0.59850  0.38140  Biso   1.000  O
  O9       1.0000 0.65320  0.24650  0.07580  Biso   1.000  O
  O10      1.0000 0.15320  0.25350  0.57580  Biso   1.000  O
  O11      1.0000 0.34680  0.75350  0.92420  Biso   1.000  O
  O12      1.0000 0.84680  0.74650  0.42420  Biso   1.000  O
  O13      1.0000 0.01330  0.23040  0.07180  Biso   1.000  O
  O14      1.0000 0.51330  0.26960  0.57180  Biso   1.000  O
  O15      1.0000 0.98670  0.76960  0.92820  Biso   1.000  O
  O16      1.0000 0.48670  0.73040  0.42820  Biso   1.000  O
  O17      1.0000 0.89590  0.22206  0.26890  Biso   1.000  O
  O18      1.0000 0.39590  0.27794  0.76890  Biso   1.000  O
  O19      1.0000 0.10410  0.77794  0.73110  Biso   1.000  O
  O20      1.0000 0.60410  0.72206  0.23110  Biso   1.000  O
