data_image0
_cell_length_a       6.8184
_cell_length_b       19.5205
_cell_length_c       11.9253
_cell_angle_alpha    90
_cell_angle_beta     95.904
_cell_angle_gamma    90

_symmetry_space_group_name_H-M    "P 1"
_symmetry_int_tables_number       1

loop_
  _symmetry_equiv_pos_as_xyz
  'x, y, z'

loop_
  _atom_site_label
  _atom_site_occupancy
  _atom_site_fract_x
  _atom_site_fract_y
  _atom_site_fract_z
  _atom_site_thermal_displace_type
  _atom_site_B_iso_or_equiv
  _atom_site_type_symbol
  Cu1      1.0000 0.30440  0.67936  0.51908  Biso   1.000  Cu
  Cu2      1.0000 0.80440  0.82064  0.01908  Biso   1.000  Cu
  Cu3      1.0000 0.69560  0.32064  0.48092  Biso   1.000  Cu
  Cu4      1.0000 0.19560  0.17936  0.98092  Biso   1.000  Cu
  S1       1.0000 0.80413  0.73200  0.51841  Biso   1.000  S
  S2       1.0000 0.30413  0.76800  0.01841  Biso   1.000  S
  S3       1.0000 0.19587  0.26800  0.48159  Biso   1.000  S
  S4       1.0000 0.69587  0.23200  0.98159  Biso   1.000  S
  O1       1.0000 0.63680  0.68762  0.47460  Biso   1.000  O
  O2       1.0000 0.13680  0.81238  0.97460  Biso   1.000  O
  O3       1.0000 0.36320  0.31238  0.52540  Biso   1.000  O
  O4       1.0000 0.86320  0.18762  0.02540  Biso   1.000  O
  O5       1.0000 0.74310  0.77811  0.60764  Biso   1.000  O
  O6       1.0000 0.24310  0.72189  0.10764  Biso   1.000  O
  O7       1.0000 0.25690  0.22189  0.39236  Biso   1.000  O
  O8       1.0000 0.75690  0.27811  0.89236  Biso   1.000  O
  O9       1.0000 0.86450  0.77405  0.42397  Biso   1.000  O
  O10      1.0000 0.36450  0.72595  0.92397  Biso   1.000  O
  O11      1.0000 0.13550  0.22595  0.57603  Biso   1.000  O
  O12      1.0000 0.63550  0.27405  0.07603  Biso   1.000  O
  O13      1.0000 0.97190  0.68967  0.56686  Biso   1.000  O
  O14      1.0000 0.47190  0.81033  0.06686  Biso   1.000  O
  O15      1.0000 0.02810  0.31033  0.43314  Biso   1.000  O
  O16      1.0000 0.52810  0.18967  0.93314  Biso   1.000  O
  O17      1.0000 0.37250  0.75028  0.63306  Biso   1.000  O
  O18      1.0000 0.87250  0.74972  0.13306  Biso   1.000  O
  O19      1.0000 0.62750  0.24972  0.36694  Biso   1.000  O
  O20      1.0000 0.12750  0.25028  0.86694  Biso   1.000  O
  O21      1.0000 0.23440  0.74443  0.39554  Biso   1.000  O
  O22      1.0000 0.73440  0.75557  0.89554  Biso   1.000  O
  O23      1.0000 0.76560  0.25557  0.60446  Biso   1.000  O
  O24      1.0000 0.26560  0.24443  0.10446  Biso   1.000  O
  O25      1.0000 0.10160  0.82673  0.72792  Biso   1.000  O
  O26      1.0000 0.60160  0.67327  0.22792  Biso   1.000  O
  O27      1.0000 0.89840  0.17327  0.27208  Biso   1.000  O
  O28      1.0000 0.39840  0.32673  0.77208  Biso   1.000  O
  O29      1.0000 0.50280  0.82698  0.31016  Biso   1.000  O
  O30      1.0000 0.00280  0.67302  0.81016  Biso   1.000  O
  O31      1.0000 0.49720  0.17302  0.68984  Biso   1.000  O
  O32      1.0000 0.99720  0.32698  0.18984  Biso   1.000  O
  C1       1.0000 0.45250  0.61209  0.73463  Biso   1.000  C
  C2       1.0000 0.95250  0.88791  0.23463  Biso   1.000  C
  C3       1.0000 0.54750  0.38791  0.26537  Biso   1.000  C
  C4       1.0000 0.04750  0.11209  0.76537  Biso   1.000  C
  C5       1.0000 0.49820  0.55744  0.80763  Biso   1.000  C
  C6       1.0000 0.99820  0.94256  0.30763  Biso   1.000  C
  C7       1.0000 0.50180  0.44256  0.19237  Biso   1.000  C
  C8       1.0000 0.00180  0.05744  0.69237  Biso   1.000  C
  C9       1.0000 0.44990  0.49219  0.76710  Biso   1.000  C
  C10      1.0000 0.94990  0.00781  0.26710  Biso   1.000  C
  C11      1.0000 0.55010  0.50781  0.23290  Biso   1.000  C
  C12      1.0000 0.05010  0.99219  0.73290  Biso   1.000  C
  C13      1.0000 0.36460  0.48296  0.65797  Biso   1.000  C
  C14      1.0000 0.86460  0.01704  0.15797  Biso   1.000  C
  C15      1.0000 0.63540  0.51704  0.34203  Biso   1.000  C
  C16      1.0000 0.13540  0.98296  0.84203  Biso   1.000  C
  C17      1.0000 0.32730  0.54007  0.58945  Biso   1.000  C
  C18      1.0000 0.82730  0.95993  0.08945  Biso   1.000  C
  C19      1.0000 0.67270  0.45993  0.41055  Biso   1.000  C
  C20      1.0000 0.17270  0.04007  0.91055  Biso   1.000  C
  C21      1.0000 0.24090  0.53772  0.47075  Biso   1.000  C
  C22      1.0000 0.74090  0.96228  0.97075  Biso   1.000  C
  C23      1.0000 0.75910  0.46228  0.52925  Biso   1.000  C
  C24      1.0000 0.25910  0.03772  0.02925  Biso   1.000  C
  C25      1.0000 0.17810  0.47815  0.41392  Biso   1.000  C
  C26      1.0000 0.67810  0.02185  0.91392  Biso   1.000  C
  C27      1.0000 0.82190  0.52185  0.58608  Biso   1.000  C
  C28      1.0000 0.32190  0.97815  0.08608  Biso   1.000  C
  C29      1.0000 0.09730  0.48334  0.30291  Biso   1.000  C
  C30      1.0000 0.59730  0.01666  0.80291  Biso   1.000  C
  C31      1.0000 0.90270  0.51666  0.69709  Biso   1.000  C
  C32      1.0000 0.40270  0.98334  0.19709  Biso   1.000  C
  C33      1.0000 0.08180  0.54671  0.24952  Biso   1.000  C
  C34      1.0000 0.58180  0.95329  0.74952  Biso   1.000  C
  C35      1.0000 0.91820  0.45329  0.75048  Biso   1.000  C
  C36      1.0000 0.41820  0.04671  0.25048  Biso   1.000  C
  C37      1.0000 0.14940  0.60348  0.31217  Biso   1.000  C
  C38      1.0000 0.64940  0.89652  0.81217  Biso   1.000  C
  C39      1.0000 0.85060  0.39652  0.68783  Biso   1.000  C
  C40      1.0000 0.35060  0.10348  0.18783  Biso   1.000  C
  C41      1.0000 0.60220  0.57134  0.92260  Biso   1.000  C
  C42      1.0000 0.10220  0.92866  0.42260  Biso   1.000  C
  C43      1.0000 0.39780  0.42866  0.07740  Biso   1.000  C
  C44      1.0000 0.89780  0.07134  0.57740  Biso   1.000  C
  C45      1.0000 0.99460  0.55610  0.13010  Biso   1.000  C
  C46      1.0000 0.49460  0.94390  0.63010  Biso   1.000  C
  C47      1.0000 0.00540  0.44390  0.86990  Biso   1.000  C
  C48      1.0000 0.50540  0.05610  0.36990  Biso   1.000  C
  N1       1.0000 0.36920  0.60386  0.62914  Biso   1.000  N
  N2       1.0000 0.86920  0.89614  0.12914  Biso   1.000  N
  N3       1.0000 0.63080  0.39614  0.37086  Biso   1.000  N
  N4       1.0000 0.13080  0.10386  0.87086  Biso   1.000  N
  N5       1.0000 0.22590  0.59930  0.41998  Biso   1.000  N
  N6       1.0000 0.72590  0.90070  0.91998  Biso   1.000  N
  N7       1.0000 0.77410  0.40070  0.58002  Biso   1.000  N
  N8       1.0000 0.27410  0.09930  0.08002  Biso   1.000  N
  H1       1.0000 0.48700  0.65460  0.75700  Biso   1.000  H
  H2       1.0000 0.98700  0.84540  0.25700  Biso   1.000  H
  H3       1.0000 0.51300  0.34540  0.24300  Biso   1.000  H
  H4       1.0000 0.01300  0.15460  0.74300  Biso   1.000  H
  H5       1.0000 0.47600  0.45580  0.81100  Biso   1.000  H
  H6       1.0000 0.97600  0.04420  0.31100  Biso   1.000  H
  H7       1.0000 0.52400  0.54420  0.18900  Biso   1.000  H
  H8       1.0000 0.02400  0.95580  0.68900  Biso   1.000  H
  H9       1.0000 0.33600  0.43710  0.62800  Biso   1.000  H
  H10      1.0000 0.83600  0.06290  0.12800  Biso   1.000  H
  H11      1.0000 0.66400  0.56290  0.37200  Biso   1.000  H
  H12      1.0000 0.16400  0.93710  0.87200  Biso   1.000  H
  H13      1.0000 0.18300  0.44130  0.44900  Biso   1.000  H
  H14      1.0000 0.68300  0.05870  0.94900  Biso   1.000  H
  H15      1.0000 0.81700  0.55870  0.55100  Biso   1.000  H
  H16      1.0000 0.31700  0.94130  0.05100  Biso   1.000  H
  H17      1.0000 0.04300  0.44290  0.25800  Biso   1.000  H
  H18      1.0000 0.54300  0.05710  0.75800  Biso   1.000  H
  H19      1.0000 0.95700  0.55710  0.74200  Biso   1.000  H
  H20      1.0000 0.45700  0.94290  0.24200  Biso   1.000  H
  H21      1.0000 0.14100  0.64650  0.28100  Biso   1.000  H
  H22      1.0000 0.64100  0.85350  0.78100  Biso   1.000  H
  H23      1.0000 0.85900  0.35350  0.71900  Biso   1.000  H
  H24      1.0000 0.35900  0.14650  0.21900  Biso   1.000  H
  H25      1.0000 0.51800  0.59820  0.96500  Biso   1.000  H
  H26      1.0000 0.01800  0.90180  0.46500  Biso   1.000  H
  H27      1.0000 0.48200  0.40180  0.03500  Biso   1.000  H
  H28      1.0000 0.98200  0.09820  0.53500  Biso   1.000  H
  H29      1.0000 0.94900  0.51700  0.09400  Biso   1.000  H
  H30      1.0000 0.44900  0.98300  0.59400  Biso   1.000  H
  H31      1.0000 0.05100  0.48300  0.90600  Biso   1.000  H
  H32      1.0000 0.55100  0.01700  0.40600  Biso   1.000  H
  H33      1.0000 0.48400  0.76790  0.63100  Biso   1.000  H
  H34      1.0000 0.98400  0.73210  0.13100  Biso   1.000  H
  H35      1.0000 0.51600  0.23210  0.36900  Biso   1.000  H
  H36      1.0000 0.01600  0.26790  0.86900  Biso   1.000  H
  H37      1.0000 0.13600  0.75870  0.40100  Biso   1.000  H
  H38      1.0000 0.63600  0.74130  0.90100  Biso   1.000  H
  H39      1.0000 0.86400  0.24130  0.59900  Biso   1.000  H
  H40      1.0000 0.36400  0.25870  0.09900  Biso   1.000  H
  H41      1.0000 0.10200  0.81810  0.78700  Biso   1.000  H
  H42      1.0000 0.60200  0.68190  0.28700  Biso   1.000  H
  H43      1.0000 0.89800  0.18190  0.21300  Biso   1.000  H
  H44      1.0000 0.39800  0.31810  0.71300  Biso   1.000  H
  H45      1.0000 0.59400  0.81410  0.33500  Biso   1.000  H
  H46      1.0000 0.09400  0.68590  0.83500  Biso   1.000  H
  H47      1.0000 0.40600  0.18590  0.66500  Biso   1.000  H
  H48      1.0000 0.90600  0.31410  0.16500  Biso   1.000  H
  H49      1.0000 0.73300  0.59510  0.90900  Biso   1.000  H
  H50      1.0000 0.23300  0.90490  0.40900  Biso   1.000  H
  H51      1.0000 0.26700  0.40490  0.09100  Biso   1.000  H
  H52      1.0000 0.76700  0.09510  0.59100  Biso   1.000  H
  H53      1.0000 0.87300  0.58410  0.12800  Biso   1.000  H
  H54      1.0000 0.37300  0.91590  0.62800  Biso   1.000  H
  H55      1.0000 0.12700  0.41590  0.87200  Biso   1.000  H
  H56      1.0000 0.62700  0.08410  0.37200  Biso   1.000  H
  H57      1.0000 0.29800  0.77240  0.65800  Biso   1.000  H
  H58      1.0000 0.79800  0.72760  0.15800  Biso   1.000  H
  H59      1.0000 0.70200  0.22760  0.34200  Biso   1.000  H
  H60      1.0000 0.20200  0.27240  0.84200  Biso   1.000  H
  H61      1.0000 0.30600  0.77230  0.37500  Biso   1.000  H
  H62      1.0000 0.80600  0.72770  0.87500  Biso   1.000  H
  H63      1.0000 0.69400  0.22770  0.62500  Biso   1.000  H
  H64      1.0000 0.19400  0.27230  0.12500  Biso   1.000  H
  H65      1.0000 0.02200  0.81410  0.70200  Biso   1.000  H
  H66      1.0000 0.52200  0.68590  0.20200  Biso   1.000  H
  H67      1.0000 0.97800  0.18590  0.29800  Biso   1.000  H
  H68      1.0000 0.47800  0.31410  0.79800  Biso   1.000  H
  H69      1.0000 0.49300  0.82010  0.25000  Biso   1.000  H
  H70      1.0000 0.99300  0.67990  0.75000  Biso   1.000  H
  H71      1.0000 0.50700  0.17990  0.75000  Biso   1.000  H
  H72      1.0000 0.00700  0.32010  0.25000  Biso   1.000  H
  H73      1.0000 0.63800  0.53090  0.96200  Biso   1.000  H
  H74      1.0000 0.13800  0.96910  0.46200  Biso   1.000  H
  H75      1.0000 0.36200  0.46910  0.03800  Biso   1.000  H
  H76      1.0000 0.86200  0.03090  0.53800  Biso   1.000  H
  H77      1.0000 0.07900  0.57960  0.08600  Biso   1.000  H
  H78      1.0000 0.57900  0.92040  0.58600  Biso   1.000  H
  H79      1.0000 0.92100  0.42040  0.91400  Biso   1.000  H
  H80      1.0000 0.42100  0.07960  0.41400  Biso   1.000  H
