data_image0
_cell_length_a       7.6233
_cell_length_b       10.8112
_cell_length_c       11.8552
_cell_angle_alpha    79.124
_cell_angle_beta     77.337
_cell_angle_gamma    70.551

_symmetry_space_group_name_H-M    "P 1"
_symmetry_int_tables_number       1

loop_
  _symmetry_equiv_pos_as_xyz
  'x, y, z'

loop_
  _atom_site_label
  _atom_site_occupancy
  _atom_site_fract_x
  _atom_site_fract_y
  _atom_site_fract_z
  _atom_site_thermal_displace_type
  _atom_site_B_iso_or_equiv
  _atom_site_type_symbol
  Cu1      1.0000 0.04077  0.34291  0.33519  Biso   1.000  Cu
  Cu2      1.0000 0.95923  0.65709  0.66481  Biso   1.000  Cu
  Mo1      1.0000 0.16809  0.37324  0.57067  Biso   1.000  Mo
  Mo2      1.0000 0.83191  0.62676  0.42933  Biso   1.000  Mo
  Mo3      1.0000 0.49895  0.45029  0.37449  Biso   1.000  Mo
  Mo4      1.0000 0.50105  0.54971  0.62551  Biso   1.000  Mo
  O1       1.0000 0.97430  0.37080  0.50560  Biso   1.000  O
  O2       1.0000 0.02570  0.62920  0.49440  Biso   1.000  O
  O3       1.0000 0.25850  0.21520  0.63470  Biso   1.000  O
  O4       1.0000 0.74150  0.78480  0.36530  Biso   1.000  O
  O5       1.0000 0.94480  0.53610  0.30990  Biso   1.000  O
  O6       1.0000 0.05520  0.46390  0.69010  Biso   1.000  O
  O7       1.0000 0.39580  0.44170  0.55260  Biso   1.000  O
  O8       1.0000 0.60420  0.55830  0.44740  Biso   1.000  O
  O9       1.0000 0.31730  0.36240  0.40070  Biso   1.000  O
  O10      1.0000 0.68270  0.63760  0.59930  Biso   1.000  O
  O11      1.0000 0.71110  0.33830  0.32550  Biso   1.000  O
  O12      1.0000 0.28890  0.66170  0.67450  Biso   1.000  O
  O13      1.0000 0.43160  0.56880  0.26130  Biso   1.000  O
  O14      1.0000 0.56840  0.43120  0.73870  Biso   1.000  O
  C1       1.0000 0.21230  0.43820  0.10410  Biso   1.000  C
  C2       1.0000 0.78770  0.56180  0.89590  Biso   1.000  C
  H1       1.0000 0.23550  0.49580  0.14650  Biso   1.000  H
  H2       1.0000 0.76450  0.50420  0.85350  Biso   1.000  H
  C3       1.0000 0.26360  0.45090  0.98580  Biso   1.000  C
  C4       1.0000 0.73640  0.54910  0.01420  Biso   1.000  C
  H3       1.0000 0.32060  0.51650  0.94630  Biso   1.000  H
  H4       1.0000 0.67940  0.48350  0.05370  Biso   1.000  H
  C5       1.0000 0.23010  0.36460  0.92380  Biso   1.000  C
  C6       1.0000 0.76990  0.63540  0.07620  Biso   1.000  C
  H5       1.0000 0.26320  0.37260  0.84120  Biso   1.000  H
  H6       1.0000 0.73680  0.62740  0.15880  Biso   1.000  H
  C7       1.0000 0.14930  0.26820  0.98230  Biso   1.000  C
  C8       1.0000 0.85070  0.73180  0.01770  Biso   1.000  C
  H7       1.0000 0.12840  0.20820  0.94140  Biso   1.000  H
  H8       1.0000 0.87160  0.79180  0.05860  Biso   1.000  H
  C9       1.0000 0.09890  0.26150  0.10450  Biso   1.000  C
  C10      1.0000 0.90110  0.73850  0.89550  Biso   1.000  C
  C11      1.0000 0.10570  0.08340  0.26670  Biso   1.000  C
  C12      1.0000 0.89430  0.91660  0.73330  Biso   1.000  C
  C13      1.0000 0.16650  0.94550  0.27050  Biso   1.000  C
  C14      1.0000 0.83350  0.05450  0.72950  Biso   1.000  C
  H9       1.0000 0.15090  0.90510  0.21030  Biso   1.000  H
  H10      1.0000 0.84910  0.09490  0.78970  Biso   1.000  H
  C15      1.0000 0.25050  0.86850  0.36480  Biso   1.000  C
  C16      1.0000 0.74950  0.13150  0.63520  Biso   1.000  C
  H11      1.0000 0.28990  0.77470  0.37060  Biso   1.000  H
  H12      1.0000 0.71010  0.22530  0.62940  Biso   1.000  H
  C17      1.0000 0.27590  0.93120  0.45020  Biso   1.000  C
  C18      1.0000 0.72410  0.06880  0.54980  Biso   1.000  C
  H13      1.0000 0.33640  0.88120  0.51360  Biso   1.000  H
  H14      1.0000 0.66360  0.11880  0.48640  Biso   1.000  H
  C19      1.0000 0.21040  0.06890  0.44000  Biso   1.000  C
  C20      1.0000 0.78960  0.93110  0.56000  Biso   1.000  C
  H15      1.0000 0.22570  0.11160  0.49870  Biso   1.000  H
  H16      1.0000 0.77430  0.88840  0.50130  Biso   1.000  H
  C21      1.0000 0.86220  0.14010  0.14230  Biso   1.000  C
  C22      1.0000 0.13780  0.85990  0.85770  Biso   1.000  C
  C23      1.0000 0.77110  0.05360  0.21480  Biso   1.000  C
  C24      1.0000 0.22890  0.94640  0.78520  Biso   1.000  C
  H17      1.0000 0.81210  0.00840  0.28580  Biso   1.000  H
  H18      1.0000 0.18790  0.99160  0.71420  Biso   1.000  H
  C25      1.0000 0.62200  0.03600  0.18100  Biso   1.000  C
  C26      1.0000 0.37800  0.96400  0.81900  Biso   1.000  C
  H19      1.0000 0.55730  0.97850  0.22920  Biso   1.000  H
  H20      1.0000 0.44270  0.02150  0.77080  Biso   1.000  H
  C27      1.0000 0.56440  0.10160  0.07670  Biso   1.000  C
  C28      1.0000 0.43560  0.89840  0.92330  Biso   1.000  C
  H21      1.0000 0.46390  0.08770  0.05070  Biso   1.000  H
  H22      1.0000 0.53610  0.91230  0.94930  Biso   1.000  H
  C29      1.0000 0.65950  0.18840  0.01150  Biso   1.000  C
  C30      1.0000 0.34050  0.81160  0.98850  Biso   1.000  C
  H23      1.0000 0.61680  0.23760  0.94210  Biso   1.000  H
  H24      1.0000 0.38320  0.76240  0.05790  Biso   1.000  H
  N1       1.0000 0.12800  0.34480  0.16440  Biso   1.000  N
  N2       1.0000 0.87200  0.65520  0.83560  Biso   1.000  N
  N3       1.0000 0.12560  0.14480  0.35000  Biso   1.000  N
  N4       1.0000 0.87440  0.85520  0.65000  Biso   1.000  N
  N5       1.0000 0.80860  0.20620  0.04180  Biso   1.000  N
  N6       1.0000 0.19140  0.79380  0.95820  Biso   1.000  N
  N7       1.0000 0.02000  0.16120  0.17120  Biso   1.000  N
  N8       1.0000 0.98000  0.83880  0.82880  Biso   1.000  N
