data_image0
_cell_length_a       12.0178
_cell_length_b       12.8451
_cell_length_c       14.644
_cell_angle_alpha    95.655
_cell_angle_beta     108.956
_cell_angle_gamma    116.063

_symmetry_space_group_name_H-M    "P 1"
_symmetry_int_tables_number       1

loop_
  _symmetry_equiv_pos_as_xyz
  'x, y, z'

loop_
  _atom_site_label
  _atom_site_occupancy
  _atom_site_fract_x
  _atom_site_fract_y
  _atom_site_fract_z
  _atom_site_thermal_displace_type
  _atom_site_B_iso_or_equiv
  _atom_site_type_symbol
  Cu1      1.0000 0.50000  0.50000  0.00000  Biso   1.000  Cu
  Cu2      1.0000 0.57690  0.28170  0.04660  Biso   1.000  Cu
  Cu3      1.0000 0.42310  0.71830  0.95340  Biso   1.000  Cu
  Cu4      1.0000 0.38390  0.84260  0.14590  Biso   1.000  Cu
  Cu5      1.0000 0.61610  0.15740  0.85410  Biso   1.000  Cu
  Cu6      1.0000 0.50000  0.00000  0.00000  Biso   1.000  Cu
  Si1      1.0000 0.00000  0.00000  0.50000  Biso   1.000  Si
  W1       1.0000 0.92566  0.94926  0.71113  Biso   1.000  W
  W2       1.0000 0.07434  0.05074  0.28887  Biso   1.000  W
  W3       1.0000 0.65936  0.90841  0.36349  Biso   1.000  W
  W4       1.0000 0.34064  0.09159  0.63651  Biso   1.000  W
  W5       1.0000 0.91386  0.19016  0.37087  Biso   1.000  W
  W6       1.0000 0.08614  0.80984  0.62913  Biso   1.000  W
  W7       1.0000 0.19112  0.23297  0.73029  Biso   1.000  W
  W8       1.0000 0.80888  0.76703  0.26971  Biso   1.000  W
  W9       1.0000 0.74235  0.71333  0.48319  Biso   1.000  W
  W10      1.0000 0.25765  0.28667  0.51681  Biso   1.000  W
  W11      1.0000 0.84939  0.14656  0.58651  Biso   1.000  W
  W12      1.0000 0.15061  0.85344  0.41349  Biso   1.000  W
  O1       1.0000 0.50500  0.38350  0.06900  Biso   1.000  O
  O2       1.0000 0.49500  0.61650  0.93100  Biso   1.000  O
  O3       1.0000 0.90100  0.05400  0.46600  Biso   1.000  O
  O4       1.0000 0.09900  0.94600  0.53400  Biso   1.000  O
  O5       1.0000 0.96400  0.91000  0.55900  Biso   1.000  O
  O6       1.0000 0.03600  0.09000  0.44100  Biso   1.000  O
  O7       1.0000 0.98500  0.05200  0.60100  Biso   1.000  O
  O8       1.0000 0.01500  0.94800  0.39900  Biso   1.000  O
  O9       1.0000 0.15900  0.12100  0.57300  Biso   1.000  O
  O10      1.0000 0.84100  0.87900  0.42700  Biso   1.000  O
  O11      1.0000 0.20200  0.80700  0.16260  Biso   1.000  O
  O12      1.0000 0.79800  0.19300  0.83740  Biso   1.000  O
  O13      1.0000 0.23200  0.30900  0.63590  Biso   1.000  O
  O14      1.0000 0.76800  0.69100  0.36410  Biso   1.000  O
  O15      1.0000 0.33200  0.05500  0.91000  Biso   1.000  O
  O16      1.0000 0.66800  0.94500  0.09000  Biso   1.000  O
  O17      1.0000 0.89200  0.21800  0.49390  Biso   1.000  O
  O18      1.0000 0.10800  0.78200  0.50610  Biso   1.000  O
  O19      1.0000 0.81500  0.42600  0.16200  Biso   1.000  O
  O20      1.0000 0.18500  0.57400  0.83800  Biso   1.000  O
  O21      1.0000 0.69000  0.01300  0.47930  Biso   1.000  O
  O22      1.0000 0.31000  0.98700  0.52070  Biso   1.000  O
  O23      1.0000 0.10300  0.75800  0.89500  Biso   1.000  O
  O24      1.0000 0.89700  0.24200  0.10500  Biso   1.000  O
  O25      1.0000 0.09400  0.10000  0.77600  Biso   1.000  O
  O26      1.0000 0.90600  0.90000  0.22400  Biso   1.000  O
  O27      1.0000 0.03800  0.42500  0.94100  Biso   1.000  O
  O28      1.0000 0.96200  0.57500  0.05900  Biso   1.000  O
  O29      1.0000 0.83800  0.03700  0.66540  Biso   1.000  O
  O30      1.0000 0.16200  0.96300  0.33460  Biso   1.000  O
  O31      1.0000 0.09800  0.48200  0.63200  Biso   1.000  O
  O32      1.0000 0.90200  0.51800  0.36800  Biso   1.000  O
  O33      1.0000 0.03100  0.24800  0.68000  Biso   1.000  O
  O34      1.0000 0.96900  0.75200  0.32000  Biso   1.000  O
  O35      1.0000 0.10000  0.29900  0.45440  Biso   1.000  O
  O36      1.0000 0.90000  0.70100  0.54560  Biso   1.000  O
  O37      1.0000 0.65000  0.79200  0.43000  Biso   1.000  O
  O38      1.0000 0.35000  0.20800  0.57000  Biso   1.000  O
  O39      1.0000 0.30000  0.16500  0.73010  Biso   1.000  O
  O40      1.0000 0.70000  0.83500  0.26990  Biso   1.000  O
  O41      1.0000 0.03800  0.88000  0.71800  Biso   1.000  O
  O42      1.0000 0.96200  0.12000  0.28200  Biso   1.000  O
  O43      1.0000 0.89400  0.92900  0.81170  Biso   1.000  O
  O44      1.0000 0.10600  0.07100  0.18830  Biso   1.000  O
  O45      1.0000 0.87600  0.28500  0.30920  Biso   1.000  O
  O46      1.0000 0.12400  0.71500  0.69080  Biso   1.000  O
  O47      1.0000 0.62100  0.58100  0.47700  Biso   1.000  O
  O48      1.0000 0.37900  0.41900  0.52300  Biso   1.000  O
  O49      1.0000 0.74100  0.05100  0.31760  Biso   1.000  O
  O50      1.0000 0.25900  0.94900  0.68240  Biso   1.000  O
  O51      1.0000 0.77100  0.20900  0.62380  Biso   1.000  O
  O52      1.0000 0.22900  0.79100  0.37620  Biso   1.000  O
  O53      1.0000 0.28000  0.34340  0.84000  Biso   1.000  O
  O54      1.0000 0.72000  0.65660  0.16000  Biso   1.000  O
  O55      1.0000 0.77900  0.81000  0.61020  Biso   1.000  O
  O56      1.0000 0.22100  0.19000  0.38980  Biso   1.000  O
  O57      1.0000 0.49140  0.86430  0.29370  Biso   1.000  O
  O58      1.0000 0.50860  0.13570  0.70630  Biso   1.000  O
  O59      1.0000 0.62300  0.16110  0.99380  Biso   1.000  O
  O60      1.0000 0.37700  0.83890  0.00620  Biso   1.000  O
  N1       1.0000 0.53700  0.19400  0.14360  Biso   1.000  N
  N2       1.0000 0.46300  0.80600  0.85640  Biso   1.000  N
  N3       1.0000 0.49700  0.07600  0.11670  Biso   1.000  N
  N4       1.0000 0.50300  0.92400  0.88330  Biso   1.000  N
  N5       1.0000 0.45800  0.01800  0.18120  Biso   1.000  N
  N6       1.0000 0.54200  0.98200  0.81880  Biso   1.000  N
  N7       1.0000 0.40000  0.54200  0.07150  Biso   1.000  N
  N8       1.0000 0.60000  0.45800  0.92850  Biso   1.000  N
  N9       1.0000 0.39100  0.64400  0.06040  Biso   1.000  N
  N10      1.0000 0.60900  0.35600  0.93960  Biso   1.000  N
  N11      1.0000 0.35000  0.67400  0.12320  Biso   1.000  N
  N12      1.0000 0.65000  0.32600  0.87680  Biso   1.000  N
  C1       1.0000 0.48500  0.10400  0.26200  Biso   1.000  C
  C2       1.0000 0.51500  0.89600  0.73800  Biso   1.000  C
  C3       1.0000 0.46900  0.09200  0.35100  Biso   1.000  C
  C4       1.0000 0.53100  0.90800  0.64900  Biso   1.000  C
  H1       1.0000 0.43410  0.01800  0.36410  Biso   1.000  H
  H2       1.0000 0.56590  0.98200  0.63590  Biso   1.000  H
  C5       1.0000 0.50700  0.19800  0.41800  Biso   1.000  C
  C6       1.0000 0.49300  0.80200  0.58200  Biso   1.000  C
  H3       1.0000 0.50200  0.19690  0.47970  Biso   1.000  H
  H4       1.0000 0.49800  0.80310  0.52030  Biso   1.000  H
  C7       1.0000 0.55200  0.30700  0.39200  Biso   1.000  C
  C8       1.0000 0.44800  0.69300  0.60800  Biso   1.000  C
  H5       1.0000 0.57020  0.37380  0.43730  Biso   1.000  H
  H6       1.0000 0.42980  0.62620  0.56270  Biso   1.000  H
  C9       1.0000 0.57400  0.32700  0.30700  Biso   1.000  C
  C10      1.0000 0.42600  0.67300  0.69300  Biso   1.000  C
  H7       1.0000 0.60670  0.40200  0.29430  Biso   1.000  H
  H8       1.0000 0.39330  0.59800  0.70570  Biso   1.000  H
  C11      1.0000 0.54000  0.21800  0.24270  Biso   1.000  C
  C12      1.0000 0.46000  0.78200  0.75730  Biso   1.000  C
  C13      1.0000 0.35500  0.51200  0.14200  Biso   1.000  C
  C14      1.0000 0.64500  0.48800  0.85800  Biso   1.000  C
  C15      1.0000 0.32500  0.59800  0.17800  Biso   1.000  C
  C16      1.0000 0.67500  0.40200  0.82200  Biso   1.000  C
  C17      1.0000 0.27700  0.59100  0.25300  Biso   1.000  C
  C18      1.0000 0.72300  0.40900  0.74700  Biso   1.000  C
  H9       1.0000 0.25360  0.64710  0.27280  Biso   1.000  H
  H10      1.0000 0.74640  0.35290  0.72720  Biso   1.000  H
  C19      1.0000 0.26500  0.49800  0.29700  Biso   1.000  C
  C20      1.0000 0.73500  0.50200  0.70300  Biso   1.000  C
  H11      1.0000 0.23830  0.49360  0.34950  Biso   1.000  H
  H12      1.0000 0.76170  0.50640  0.65050  Biso   1.000  H
  C21      1.0000 0.29200  0.41300  0.26400  Biso   1.000  C
  C22      1.0000 0.70800  0.58700  0.73600  Biso   1.000  C
  H13      1.0000 0.27970  0.35060  0.29450  Biso   1.000  H
  H14      1.0000 0.72030  0.64940  0.70550  Biso   1.000  H
  C23      1.0000 0.33900  0.41300  0.18600  Biso   1.000  C
  C24      1.0000 0.66100  0.58700  0.81400  Biso   1.000  C
  H15      1.0000 0.35820  0.35410  0.16510  Biso   1.000  H
  H16      1.0000 0.64180  0.64590  0.83490  Biso   1.000  H
