data_image0
_cell_length_a       19.628
_cell_length_b       10.439
_cell_length_c       7.357
_cell_angle_alpha    90
_cell_angle_beta     91.608
_cell_angle_gamma    90

_symmetry_space_group_name_H-M    "P 1"
_symmetry_int_tables_number       1

loop_
  _symmetry_equiv_pos_as_xyz
  'x, y, z'

loop_
  _atom_site_label
  _atom_site_occupancy
  _atom_site_fract_x
  _atom_site_fract_y
  _atom_site_fract_z
  _atom_site_thermal_displace_type
  _atom_site_B_iso_or_equiv
  _atom_site_type_symbol
  Mo1      1.0000 0.30417  0.84875  0.98660  Biso   1.000  Mo
  Mo2      1.0000 0.30417  0.65125  0.48660  Biso   1.000  Mo
  Mo3      1.0000 0.69583  0.15125  0.01340  Biso   1.000  Mo
  Mo4      1.0000 0.69583  0.34875  0.51340  Biso   1.000  Mo
  Mo5      1.0000 0.16464  0.75028  0.22506  Biso   1.000  Mo
  Mo6      1.0000 0.16464  0.74972  0.72506  Biso   1.000  Mo
  Mo7      1.0000 0.83536  0.24972  0.77494  Biso   1.000  Mo
  Mo8      1.0000 0.83536  0.25028  0.27494  Biso   1.000  Mo
  Cu1      1.0000 0.26396  0.94385  0.47081  Biso   1.000  Cu
  Cu2      1.0000 0.26396  0.55615  0.97081  Biso   1.000  Cu
  Cu3      1.0000 0.73604  0.05615  0.52919  Biso   1.000  Cu
  Cu4      1.0000 0.73604  0.44385  0.02919  Biso   1.000  Cu
  O1       1.0000 0.11330  0.62470  0.27770  Biso   1.000  O
  O2       1.0000 0.11330  0.87530  0.77770  Biso   1.000  O
  O3       1.0000 0.88670  0.37530  0.72230  Biso   1.000  O
  O4       1.0000 0.88670  0.12470  0.22230  Biso   1.000  O
  O5       1.0000 0.10970  0.86930  0.16840  Biso   1.000  O
  O6       1.0000 0.10970  0.63070  0.66840  Biso   1.000  O
  O7       1.0000 0.89030  0.13070  0.83160  Biso   1.000  O
  O8       1.0000 0.89030  0.36930  0.33160  Biso   1.000  O
  O9       1.0000 0.19060  0.69500  0.97710  Biso   1.000  O
  O10      1.0000 0.19060  0.80500  0.47710  Biso   1.000  O
  O11      1.0000 0.80940  0.30500  0.02290  Biso   1.000  O
  O12      1.0000 0.80940  0.19500  0.52290  Biso   1.000  O
  O13      1.0000 0.25180  0.87880  0.17990  Biso   1.000  O
  O14      1.0000 0.25180  0.62120  0.67990  Biso   1.000  O
  O15      1.0000 0.74820  0.12120  0.82010  Biso   1.000  O
  O16      1.0000 0.74820  0.37880  0.32010  Biso   1.000  O
  O17      1.0000 0.33540  0.68910  0.98510  Biso   1.000  O
  O18      1.0000 0.33540  0.81090  0.48510  Biso   1.000  O
  O19      1.0000 0.66460  0.31090  0.01490  Biso   1.000  O
  O20      1.0000 0.66460  0.18910  0.51490  Biso   1.000  O
  O21      1.0000 0.37250  0.94690  0.00260  Biso   1.000  O
  O22      1.0000 0.37250  0.55310  0.50260  Biso   1.000  O
  O23      1.0000 0.62750  0.05310  0.99740  Biso   1.000  O
  O24      1.0000 0.62750  0.44690  0.49740  Biso   1.000  O
  O25      1.0000 0.25510  0.88670  0.78440  Biso   1.000  O
  O26      1.0000 0.25510  0.61330  0.28440  Biso   1.000  O
  O27      1.0000 0.74490  0.11330  0.21560  Biso   1.000  O
  O28      1.0000 0.74490  0.38670  0.71560  Biso   1.000  O
  N1       1.0000 0.19950  0.09180  0.46770  Biso   1.000  N
  N2       1.0000 0.19950  0.40820  0.96770  Biso   1.000  N
  N3       1.0000 0.80050  0.90820  0.53230  Biso   1.000  N
  N4       1.0000 0.80050  0.59180  0.03230  Biso   1.000  N
  N5       1.0000 0.32990  0.08090  0.40950  Biso   1.000  N
  N6       1.0000 0.32990  0.41910  0.90950  Biso   1.000  N
  N7       1.0000 0.67010  0.91910  0.59050  Biso   1.000  N
  N8       1.0000 0.67010  0.58090  0.09050  Biso   1.000  N
  C1       1.0000 0.22840  0.20600  0.43310  Biso   1.000  C
  C2       1.0000 0.22840  0.29400  0.93310  Biso   1.000  C
  C3       1.0000 0.77160  0.79400  0.56690  Biso   1.000  C
  C4       1.0000 0.77160  0.70600  0.06690  Biso   1.000  C
  C5       1.0000 0.30130  0.19810  0.38910  Biso   1.000  C
  C6       1.0000 0.30130  0.30190  0.88910  Biso   1.000  C
  C7       1.0000 0.69870  0.80190  0.61090  Biso   1.000  C
  C8       1.0000 0.69870  0.69810  0.11090  Biso   1.000  C
  C9       1.0000 0.13240  0.08830  0.49410  Biso   1.000  C
  C10      1.0000 0.13240  0.41170  0.99410  Biso   1.000  C
  C11      1.0000 0.86760  0.91170  0.50590  Biso   1.000  C
  C12      1.0000 0.86760  0.58830  0.00590  Biso   1.000  C
  H1       1.0000 0.11160  0.00870  0.50440  Biso   1.000  H
  H2       1.0000 0.11160  0.49130  0.00440  Biso   1.000  H
  H3       1.0000 0.88840  0.99130  0.49560  Biso   1.000  H
  H4       1.0000 0.88840  0.50870  0.99560  Biso   1.000  H
  C13      1.0000 0.09190  0.19750  0.50710  Biso   1.000  C
  C14      1.0000 0.09190  0.30250  0.00710  Biso   1.000  C
  C15      1.0000 0.90810  0.80250  0.49290  Biso   1.000  C
  C16      1.0000 0.90810  0.69750  0.99290  Biso   1.000  C
  C17      1.0000 0.12380  0.31320  0.47860  Biso   1.000  C
  C18      1.0000 0.12380  0.18680  0.97860  Biso   1.000  C
  C19      1.0000 0.87620  0.68680  0.52140  Biso   1.000  C
  C20      1.0000 0.87620  0.81320  0.02140  Biso   1.000  C
  H5       1.0000 0.09920  0.38900  0.48700  Biso   1.000  H
  H6       1.0000 0.09920  0.11100  0.98700  Biso   1.000  H
  H7       1.0000 0.90080  0.61100  0.51300  Biso   1.000  H
  H8       1.0000 0.90080  0.88900  0.01300  Biso   1.000  H
  C21      1.0000 0.19170  0.31750  0.43800  Biso   1.000  C
  C22      1.0000 0.19170  0.18250  0.93800  Biso   1.000  C
  C23      1.0000 0.80830  0.68250  0.56200  Biso   1.000  C
  C24      1.0000 0.80830  0.81750  0.06200  Biso   1.000  C
  H9       1.0000 0.21250  0.39540  0.41400  Biso   1.000  H
  H10      1.0000 0.21250  0.10460  0.91400  Biso   1.000  H
  H11      1.0000 0.78750  0.60460  0.58600  Biso   1.000  H
  H12      1.0000 0.78750  0.89540  0.08600  Biso   1.000  H
  C25      1.0000 0.33900  0.30140  0.32840  Biso   1.000  C
  C26      1.0000 0.33900  0.19860  0.82840  Biso   1.000  C
  C27      1.0000 0.66100  0.69860  0.67160  Biso   1.000  C
  C28      1.0000 0.66100  0.80140  0.17160  Biso   1.000  C
  H13      1.0000 0.31860  0.38100  0.30990  Biso   1.000  H
  H14      1.0000 0.31860  0.11900  0.80990  Biso   1.000  H
  H15      1.0000 0.68140  0.61900  0.69010  Biso   1.000  H
  H16      1.0000 0.68140  0.88100  0.19010  Biso   1.000  H
  C29      1.0000 0.40760  0.28370  0.29590  Biso   1.000  C
  C30      1.0000 0.40760  0.21630  0.79590  Biso   1.000  C
  C31      1.0000 0.59240  0.71630  0.70410  Biso   1.000  C
  C32      1.0000 0.59240  0.78370  0.20410  Biso   1.000  C
  H17      1.0000 0.43450  0.35310  0.26440  Biso   1.000  H
  H18      1.0000 0.43450  0.14690  0.76440  Biso   1.000  H
  H19      1.0000 0.56550  0.64690  0.73560  Biso   1.000  H
  H20      1.0000 0.56550  0.85310  0.23560  Biso   1.000  H
  C33      1.0000 0.43610  0.16220  0.31020  Biso   1.000  C
  C34      1.0000 0.43610  0.33780  0.81020  Biso   1.000  C
  C35      1.0000 0.56390  0.83780  0.68980  Biso   1.000  C
  C36      1.0000 0.56390  0.66220  0.18980  Biso   1.000  C
  C37      1.0000 0.39490  0.06610  0.36890  Biso   1.000  C
  C38      1.0000 0.39490  0.43390  0.86890  Biso   1.000  C
  C39      1.0000 0.60510  0.93390  0.63110  Biso   1.000  C
  C40      1.0000 0.60510  0.56610  0.13110  Biso   1.000  C
  H21      1.0000 0.41370  0.98470  0.38130  Biso   1.000  H
  H22      1.0000 0.41370  0.51530  0.88130  Biso   1.000  H
  H23      1.0000 0.58630  0.01530  0.61870  Biso   1.000  H
  H24      1.0000 0.58630  0.48470  0.11870  Biso   1.000  H
  C41      1.0000 0.01710  0.18560  0.54490  Biso   1.000  C
  C42      1.0000 0.01710  0.31440  0.04490  Biso   1.000  C
  C43      1.0000 0.98290  0.81440  0.45510  Biso   1.000  C
  C44      1.0000 0.98290  0.68560  0.95510  Biso   1.000  C
  H25      1.0000 0.00560  0.09700  0.56010  Biso   1.000  H
  H26      1.0000 0.00560  0.40300  0.06010  Biso   1.000  H
  H27      1.0000 0.99440  0.90300  0.43990  Biso   1.000  H
  H28      1.0000 0.99440  0.59700  0.93990  Biso   1.000  H
  H29      1.0000 0.00720  0.23180  0.65390  Biso   1.000  H
  H30      1.0000 0.00720  0.26820  0.15390  Biso   1.000  H
  H31      1.0000 0.99280  0.76820  0.34610  Biso   1.000  H
  H32      1.0000 0.99280  0.73180  0.84610  Biso   1.000  H
  H33      1.0000 0.99080  0.22060  0.44480  Biso   1.000  H
  H34      1.0000 0.99080  0.27940  0.94480  Biso   1.000  H
  H35      1.0000 0.00920  0.77940  0.55520  Biso   1.000  H
  H36      1.0000 0.00920  0.72060  0.05520  Biso   1.000  H
  C45      1.0000 0.50870  0.13640  0.25900  Biso   1.000  C
  C46      1.0000 0.50870  0.36360  0.75900  Biso   1.000  C
  C47      1.0000 0.49130  0.86360  0.74100  Biso   1.000  C
  C48      1.0000 0.49130  0.63640  0.24100  Biso   1.000  C
  H37      1.0000 0.52950  0.21490  0.22150  Biso   1.000  H
  H38      1.0000 0.52950  0.28510  0.72150  Biso   1.000  H
  H39      1.0000 0.47050  0.78510  0.77850  Biso   1.000  H
  H40      1.0000 0.47050  0.71490  0.27850  Biso   1.000  H
  H41      1.0000 0.53360  0.10230  0.36240  Biso   1.000  H
  H42      1.0000 0.53360  0.39770  0.86240  Biso   1.000  H
  H43      1.0000 0.46640  0.89770  0.63760  Biso   1.000  H
  H44      1.0000 0.46640  0.60230  0.13760  Biso   1.000  H
  H45      1.0000 0.50910  0.07570  0.16120  Biso   1.000  H
  H46      1.0000 0.50910  0.42430  0.66120  Biso   1.000  H
  H47      1.0000 0.49090  0.92430  0.83880  Biso   1.000  H
  H48      1.0000 0.49090  0.57570  0.33880  Biso   1.000  H
