data_image0
_cell_length_a       10.8431
_cell_length_b       11.992
_cell_length_c       12.881
_cell_angle_alpha    98.541
_cell_angle_beta     113.472
_cell_angle_gamma    111.684

_symmetry_space_group_name_H-M    "P 1"
_symmetry_int_tables_number       1

loop_
  _symmetry_equiv_pos_as_xyz
  'x, y, z'

loop_
  _atom_site_label
  _atom_site_occupancy
  _atom_site_fract_x
  _atom_site_fract_y
  _atom_site_fract_z
  _atom_site_thermal_displace_type
  _atom_site_B_iso_or_equiv
  _atom_site_type_symbol
  Mo1      1.0000 0.86480  0.65045  0.11531  Biso   1.000  Mo
  Mo2      1.0000 0.13520  0.34955  0.88469  Biso   1.000  Mo
  Mo3      1.0000 0.07043  0.65469  0.98756  Biso   1.000  Mo
  Mo4      1.0000 0.92957  0.34531  0.01244  Biso   1.000  Mo
  Mo5      1.0000 0.15585  0.64244  0.31557  Biso   1.000  Mo
  Mo6      1.0000 0.84415  0.35756  0.68443  Biso   1.000  Mo
  Mo7      1.0000 0.70704  0.50620  0.79601  Biso   1.000  Mo
  Mo8      1.0000 0.29296  0.49380  0.20399  Biso   1.000  Mo
  Cu1      1.0000 0.53389  0.37942  0.94572  Biso   1.000  Cu
  Cu2      1.0000 0.46611  0.62058  0.05428  Biso   1.000  Cu
  O1       1.0000 0.66620  0.55499  0.05756  Biso   1.000  O
  O2       1.0000 0.33380  0.44501  0.94244  Biso   1.000  O
  O3       1.0000 0.89870  0.79787  0.18163  Biso   1.000  O
  O4       1.0000 0.10130  0.20213  0.81837  Biso   1.000  O
  O5       1.0000 0.93720  0.59147  0.24003  Biso   1.000  O
  O6       1.0000 0.06280  0.40853  0.75997  Biso   1.000  O
  O7       1.0000 0.17060  0.57030  0.42024  Biso   1.000  O
  O8       1.0000 0.82940  0.42970  0.57976  Biso   1.000  O
  O9       1.0000 0.23130  0.79902  0.39486  Biso   1.000  O
  O10      1.0000 0.76870  0.20098  0.60514  Biso   1.000  O
  O11      1.0000 0.32620  0.64957  0.29184  Biso   1.000  O
  O12      1.0000 0.67380  0.35043  0.70816  Biso   1.000  O
  O13      1.0000 0.66050  0.58020  0.69699  Biso   1.000  O
  O14      1.0000 0.33950  0.41980  0.30301  Biso   1.000  O
  O15      1.0000 0.55320  0.44924  0.82440  Biso   1.000  O
  O16      1.0000 0.44680  0.55076  0.17560  Biso   1.000  O
  O17      1.0000 0.17540  0.79594  0.98096  Biso   1.000  O
  O18      1.0000 0.82460  0.20406  0.01904  Biso   1.000  O
  O19      1.0000 0.92460  0.54568  0.82732  Biso   1.000  O
  O20      1.0000 0.07540  0.45432  0.17268  Biso   1.000  O
  O21      1.0000 0.18050  0.57460  0.01512  Biso   1.000  O
  O22      1.0000 0.81950  0.42540  0.98488  Biso   1.000  O
  O23      1.0000 0.85310  0.64923  0.95613  Biso   1.000  O
  O24      1.0000 0.14690  0.35077  0.04387  Biso   1.000  O
  O25      1.0000 0.07890  0.68832  0.13823  Biso   1.000  O
  O26      1.0000 0.92110  0.31168  0.86177  Biso   1.000  O
  N1       1.0000 0.51440  0.30350  0.06590  Biso   1.000  N
  N2       1.0000 0.48560  0.69650  0.93410  Biso   1.000  N
  N3       1.0000 0.39830  0.20210  0.83490  Biso   1.000  N
  N4       1.0000 0.60170  0.79790  0.16510  Biso   1.000  N
  C1       1.0000 0.57700  0.36400  0.18400  Biso   1.000  C
  C2       1.0000 0.42300  0.63600  0.81600  Biso   1.000  C
  C3       1.0000 0.53640  0.30530  0.25780  Biso   1.000  C
  C4       1.0000 0.46360  0.69470  0.74220  Biso   1.000  C
  C5       1.0000 0.42830  0.17670  0.21060  Biso   1.000  C
  C6       1.0000 0.57170  0.82330  0.78940  Biso   1.000  C
  C7       1.0000 0.36850  0.11290  0.08770  Biso   1.000  C
  C8       1.0000 0.63150  0.88710  0.91230  Biso   1.000  C
  C9       1.0000 0.41150  0.17730  0.01810  Biso   1.000  C
  C10      1.0000 0.58850  0.82270  0.98190  Biso   1.000  C
  C11      1.0000 0.34740  0.11890  0.88680  Biso   1.000  C
  C12      1.0000 0.65260  0.88110  0.11320  Biso   1.000  C
  C13      1.0000 0.24080  0.99220  0.82010  Biso   1.000  C
  C14      1.0000 0.75920  0.00780  0.17990  Biso   1.000  C
  C15      1.0000 0.17830  0.94610  0.69510  Biso   1.000  C
  C16      1.0000 0.82170  0.05390  0.30490  Biso   1.000  C
  C17      1.0000 0.23460  0.03310  0.64360  Biso   1.000  C
  C18      1.0000 0.76540  0.96690  0.35640  Biso   1.000  C
  C19      1.0000 0.34370  0.15810  0.71540  Biso   1.000  C
  C20      1.0000 0.65630  0.84190  0.28460  Biso   1.000  C
  C21      1.0000 0.37460  0.10260  0.28350  Biso   1.000  C
  C22      1.0000 0.62540  0.89740  0.71650  Biso   1.000  C
  C23      1.0000 0.44350  0.01070  0.30130  Biso   1.000  C
  C24      1.0000 0.55650  0.98930  0.69870  Biso   1.000  C
  C25      1.0000 0.19980  0.02620  0.21480  Biso   1.000  C
  C26      1.0000 0.80020  0.97380  0.78520  Biso   1.000  C
  C27      1.0000 0.42610  0.19170  0.40800  Biso   1.000  C
  C28      1.0000 0.57390  0.80830  0.59200  Biso   1.000  C
  C29      1.0000 0.05860  0.80670  0.62290  Biso   1.000  C
  C30      1.0000 0.94140  0.19330  0.37710  Biso   1.000  C
  C31      1.0000 0.97650  0.78350  0.48750  Biso   1.000  C
  C32      1.0000 0.02350  0.21650  0.51250  Biso   1.000  C
  C33      1.0000 0.93810  0.76770  0.66230  Biso   1.000  C
  C34      1.0000 0.06190  0.23230  0.33770  Biso   1.000  C
  C35      1.0000 0.13960  0.72450  0.64580  Biso   1.000  C
  C36      1.0000 0.86040  0.27550  0.35420  Biso   1.000  C
  H1       1.0000 0.64500  0.44600  0.21700  Biso   1.000  H
  H2       1.0000 0.35500  0.55400  0.78300  Biso   1.000  H
  H3       1.0000 0.58300  0.34900  0.33400  Biso   1.000  H
  H4       1.0000 0.41700  0.65100  0.66600  Biso   1.000  H
  H5       1.0000 0.29500  0.01900  0.04900  Biso   1.000  H
  H6       1.0000 0.70500  0.98100  0.95100  Biso   1.000  H
  H7       1.0000 0.21100  0.94300  0.85700  Biso   1.000  H
  H8       1.0000 0.78900  0.05700  0.14300  Biso   1.000  H
  H9       1.0000 0.20600  0.01000  0.56200  Biso   1.000  H
  H10      1.0000 0.79400  0.99000  0.43800  Biso   1.000  H
  H11      1.0000 0.38600  0.21900  0.68200  Biso   1.000  H
  H12      1.0000 0.61400  0.78100  0.31800  Biso   1.000  H
  H13      1.0000 0.39100  0.25600  0.40000  Biso   1.000  H
  H14      1.0000 0.60900  0.74400  0.60000  Biso   1.000  H
  H15      1.0000 0.53900  0.24500  0.46200  Biso   1.000  H
  H16      1.0000 0.46100  0.75500  0.53800  Biso   1.000  H
  H17      1.0000 0.39800  0.14300  0.45100  Biso   1.000  H
  H18      1.0000 0.60200  0.85700  0.54900  Biso   1.000  H
  H19      1.0000 0.42000  0.95300  0.21900  Biso   1.000  H
  H20      1.0000 0.58000  0.04700  0.78100  Biso   1.000  H
  H21      1.0000 0.39900  0.96200  0.34100  Biso   1.000  H
  H22      1.0000 0.60100  0.03800  0.65900  Biso   1.000  H
  H23      1.0000 0.55400  0.06300  0.35000  Biso   1.000  H
  H24      1.0000 0.44600  0.93700  0.65000  Biso   1.000  H
  H25      1.0000 0.04200  0.79800  0.45300  Biso   1.000  H
  H26      1.0000 0.95800  0.20200  0.54700  Biso   1.000  H
  H27      1.0000 0.93000  0.83400  0.47100  Biso   1.000  H
  H28      1.0000 0.07000  0.16600  0.52900  Biso   1.000  H
  H29      1.0000 0.91000  0.69900  0.44600  Biso   1.000  H
  H30      1.0000 0.09000  0.30100  0.55400  Biso   1.000  H
  H31      1.0000 0.87000  0.68500  0.61900  Biso   1.000  H
  H32      1.0000 0.13000  0.31500  0.38100  Biso   1.000  H
  H33      1.0000 0.98100  0.77600  0.74300  Biso   1.000  H
  H34      1.0000 0.01900  0.22400  0.25700  Biso   1.000  H
  H35      1.0000 0.88700  0.82000  0.65300  Biso   1.000  H
  H36      1.0000 0.11300  0.18000  0.34700  Biso   1.000  H
  H37      1.0000 0.07600  0.64000  0.60800  Biso   1.000  H
  H38      1.0000 0.92400  0.36000  0.39200  Biso   1.000  H
  H39      1.0000 0.22300  0.75300  0.62200  Biso   1.000  H
  H40      1.0000 0.77700  0.24700  0.37800  Biso   1.000  H
  H41      1.0000 0.18900  0.73900  0.72500  Biso   1.000  H
  H42      1.0000 0.81100  0.26100  0.27500  Biso   1.000  H
  H43      1.0000 0.16400  0.08100  0.19900  Biso   1.000  H
  H44      1.0000 0.83600  0.91900  0.80100  Biso   1.000  H
  H45      1.0000 0.16000  0.96500  0.14200  Biso   1.000  H
  H46      1.0000 0.84000  0.03500  0.85800  Biso   1.000  H
  H47      1.0000 0.16400  0.98600  0.25800  Biso   1.000  H
  H48      1.0000 0.83600  0.01400  0.74200  Biso   1.000  H
