data_image0
_cell_length_a       13.031
_cell_length_b       14.668
_cell_length_c       14.887
_cell_angle_alpha    101.44
_cell_angle_beta     112.36
_cell_angle_gamma    102.56

_symmetry_space_group_name_H-M    "P 1"
_symmetry_int_tables_number       1

loop_
  _symmetry_equiv_pos_as_xyz
  'x, y, z'

loop_
  _atom_site_label
  _atom_site_occupancy
  _atom_site_fract_x
  _atom_site_fract_y
  _atom_site_fract_z
  _atom_site_thermal_displace_type
  _atom_site_B_iso_or_equiv
  _atom_site_type_symbol
  Cu1      1.0000 0.15139  0.51974  0.28609  Biso   1.000  Cu
  Cu2      1.0000 0.84861  0.48026  0.71391  Biso   1.000  Cu
  Cu3      1.0000 0.88999  0.94835  0.17705  Biso   1.000  Cu
  Cu4      1.0000 0.11001  0.05165  0.82295  Biso   1.000  Cu
  C1       1.0000 0.11160  0.62140  0.65110  Biso   1.000  C
  C2       1.0000 0.88840  0.37860  0.34890  Biso   1.000  C
  C3       1.0000 0.92060  0.05950  0.40730  Biso   1.000  C
  C4       1.0000 0.07940  0.94050  0.59270  Biso   1.000  C
  C5       1.0000 0.98470  0.11330  0.36330  Biso   1.000  C
  C6       1.0000 0.01530  0.88670  0.63670  Biso   1.000  C
  H1       1.0000 0.03730  0.17580  0.40330  Biso   1.000  H
  H2       1.0000 0.96270  0.82420  0.59670  Biso   1.000  H
  C7       1.0000 0.84470  0.95740  0.35380  Biso   1.000  C
  C8       1.0000 0.15530  0.04260  0.64620  Biso   1.000  C
  C9       1.0000 0.16660  0.54640  0.49050  Biso   1.000  C
  C10      1.0000 0.83340  0.45360  0.50950  Biso   1.000  C
  C11      1.0000 0.06360  0.63860  0.55690  Biso   1.000  C
  C12      1.0000 0.93640  0.36140  0.44310  Biso   1.000  C
  H3       1.0000 0.01180  0.67450  0.54750  Biso   1.000  H
  H4       1.0000 0.98820  0.32550  0.45250  Biso   1.000  H
  C13      1.0000 0.29370  0.37630  0.27860  Biso   1.000  C
  C14      1.0000 0.70630  0.62370  0.72140  Biso   1.000  C
  C15      1.0000 0.93430  0.10170  0.50220  Biso   1.000  C
  C16      1.0000 0.06570  0.89830  0.49780  Biso   1.000  C
  H5       1.0000 0.98690  0.16500  0.53790  Biso   1.000  H
  H6       1.0000 0.01310  0.83500  0.46210  Biso   1.000  H
  C17      1.0000 0.87390  0.05570  0.55030  Biso   1.000  C
  C18      1.0000 0.12610  0.94430  0.44970  Biso   1.000  C
  C19      1.0000 0.03780  0.62870  0.38390  Biso   1.000  C
  C20      1.0000 0.96220  0.37130  0.61610  Biso   1.000  C
  H7       1.0000 0.98520  0.66360  0.37830  Biso   1.000  H
  H8       1.0000 0.01480  0.33640  0.62170  Biso   1.000  H
  C21      1.0000 0.02330  0.09430  0.15060  Biso   1.000  C
  C22      1.0000 0.97670  0.90570  0.84940  Biso   1.000  C
  C23      1.0000 0.18640  0.56390  0.66280  Biso   1.000  C
  C24      1.0000 0.81360  0.43610  0.33720  Biso   1.000  C
  C25      1.0000 0.03250  0.59940  0.15180  Biso   1.000  C
  C26      1.0000 0.96750  0.40060  0.84820  Biso   1.000  C
  C27      1.0000 0.08940  0.60510  0.47770  Biso   1.000  C
  C28      1.0000 0.91060  0.39490  0.52230  Biso   1.000  C
  C29      1.0000 0.80010  0.95810  0.49810  Biso   1.000  C
  C30      1.0000 0.19990  0.04190  0.50190  Biso   1.000  C
  C31      1.0000 0.26820  0.28060  0.22730  Biso   1.000  C
  C32      1.0000 0.73180  0.71940  0.77270  Biso   1.000  C
  C33      1.0000 0.99310  0.63350  0.05900  Biso   1.000  C
  C34      1.0000 0.00690  0.36650  0.94100  Biso   1.000  C
  H9       1.0000 0.06110  0.67630  0.05890  Biso   1.000  H
  H10      1.0000 0.93890  0.32370  0.94110  Biso   1.000  H
  H11      1.0000 0.95780  0.57680  0.99820  Biso   1.000  H
  H12      1.0000 0.04220  0.42320  0.00180  Biso   1.000  H
  C35      1.0000 0.07760  0.15110  0.09620  Biso   1.000  C
  C36      1.0000 0.92240  0.84890  0.90380  Biso   1.000  C
  H13      1.0000 0.12310  0.11620  0.07370  Biso   1.000  H
  H14      1.0000 0.87690  0.88380  0.92630  Biso   1.000  H
  H15      1.0000 0.01560  0.15430  0.03590  Biso   1.000  H
  H16      1.0000 0.98440  0.84570  0.96410  Biso   1.000  H
  C37      1.0000 0.75760  0.73020  0.04070  Biso   1.000  C
  C38      1.0000 0.24240  0.26980  0.95930  Biso   1.000  C
  C39      1.0000 0.08650  0.65810  0.73380  Biso   1.000  C
  C40      1.0000 0.91350  0.34190  0.26620  Biso   1.000  C
  H17      1.0000 0.03770  0.69650  0.72820  Biso   1.000  H
  H18      1.0000 0.96230  0.30350  0.27180  Biso   1.000  H
  C41      1.0000 0.23450  0.54230  0.75440  Biso   1.000  C
  C42      1.0000 0.76550  0.45770  0.24560  Biso   1.000  C
  H19      1.0000 0.28260  0.50320  0.76220  Biso   1.000  H
  H20      1.0000 0.71740  0.49680  0.23780  Biso   1.000  H
  C43      1.0000 0.20910  0.58000  0.83200  Biso   1.000  C
  C44      1.0000 0.79090  0.42000  0.16800  Biso   1.000  C
  H21      1.0000 0.24270  0.56750  0.89370  Biso   1.000  H
  H22      1.0000 0.75730  0.43250  0.10630  Biso   1.000  H
  C45      1.0000 0.79160  0.65010  0.01140  Biso   1.000  C
  C46      1.0000 0.20840  0.34990  0.98860  Biso   1.000  C
  C47      1.0000 0.82380  0.04920  0.68910  Biso   1.000  C
  C48      1.0000 0.17620  0.95080  0.31090  Biso   1.000  C
  H23      1.0000 0.83200  0.07860  0.75390  Biso   1.000  H
  H24      1.0000 0.16800  0.92140  0.24610  Biso   1.000  H
  C49      1.0000 0.88400  0.10100  0.64840  Biso   1.000  C
  C50      1.0000 0.11600  0.89900  0.35160  Biso   1.000  C
  H25      1.0000 0.93170  0.16580  0.68460  Biso   1.000  H
  H26      1.0000 0.06830  0.83420  0.31540  Biso   1.000  H
  C51      1.0000 0.13680  0.63490  0.82250  Biso   1.000  C
  C52      1.0000 0.86320  0.36510  0.17750  Biso   1.000  C
  H27      1.0000 0.12060  0.65760  0.87700  Biso   1.000  H
  H28      1.0000 0.87940  0.34240  0.12300  Biso   1.000  H
  C53      1.0000 0.73760  0.90710  0.54070  Biso   1.000  C
  C54      1.0000 0.26240  0.09290  0.45930  Biso   1.000  C
  H29      1.0000 0.68790  0.84270  0.50530  Biso   1.000  H
  H30      1.0000 0.31210  0.15730  0.49470  Biso   1.000  H
  C55      1.0000 0.35190  0.23310  0.24650  Biso   1.000  C
  C56      1.0000 0.64810  0.76690  0.75350  Biso   1.000  C
  H31      1.0000 0.33430  0.16790  0.21000  Biso   1.000  H
  H32      1.0000 0.66570  0.83210  0.79000  Biso   1.000  H
  C57      1.0000 0.40530  0.43330  0.35500  Biso   1.000  C
  C58      1.0000 0.59470  0.56670  0.64500  Biso   1.000  C
  H33      1.0000 0.42290  0.49920  0.38940  Biso   1.000  H
  H34      1.0000 0.57710  0.50080  0.61060  Biso   1.000  H
  C59      1.0000 0.75080  0.95400  0.63600  Biso   1.000  C
  C60      1.0000 0.24920  0.04600  0.36400  Biso   1.000  C
  H35      1.0000 0.70950  0.92060  0.66520  Biso   1.000  H
  H36      1.0000 0.29050  0.07940  0.33480  Biso   1.000  H
  C61      1.0000 0.48760  0.38580  0.37620  Biso   1.000  C
  C62      1.0000 0.51240  0.61420  0.62380  Biso   1.000  C
  H37      1.0000 0.56280  0.41990  0.42810  Biso   1.000  H
  H38      1.0000 0.43720  0.58010  0.57190  Biso   1.000  H
  C63      1.0000 0.71180  0.55890  0.94810  Biso   1.000  C
  C64      1.0000 0.28820  0.44110  0.05190  Biso   1.000  C
  H39      1.0000 0.73500  0.50530  0.92980  Biso   1.000  H
  H40      1.0000 0.26500  0.49470  0.07020  Biso   1.000  H
  C65      1.0000 0.46140  0.28730  0.32170  Biso   1.000  C
  C66      1.0000 0.53860  0.71270  0.67830  Biso   1.000  C
  H41      1.0000 0.52010  0.25840  0.33730  Biso   1.000  H
  H42      1.0000 0.47990  0.74160  0.66270  Biso   1.000  H
  C67      1.0000 0.64190  0.72200  0.00920  Biso   1.000  C
  C68      1.0000 0.35810  0.27800  0.99080  Biso   1.000  C
  H43      1.0000 0.61840  0.77460  0.03020  Biso   1.000  H
  H44      1.0000 0.38160  0.22540  0.96980  Biso   1.000  H
  C69      1.0000 0.59970  0.55300  0.91520  Biso   1.000  C
  C70      1.0000 0.40030  0.44700  0.08480  Biso   1.000  C
  H45      1.0000 0.54300  0.49360  0.87020  Biso   1.000  H
  H46      1.0000 0.45700  0.50640  0.12980  Biso   1.000  H
  C71      1.0000 0.56230  0.63190  0.94480  Biso   1.000  C
  C72      1.0000 0.43770  0.36810  0.05520  Biso   1.000  C
  H47      1.0000 0.48250  0.62300  0.92040  Biso   1.000  H
  H48      1.0000 0.51750  0.37700  0.07960  Biso   1.000  H
  C73      1.0000 0.36830  0.72270  0.39770  Biso   1.000  C
  C74      1.0000 0.63170  0.27730  0.60230  Biso   1.000  C
  H49      1.0000 0.32400  0.76540  0.37640  Biso   1.000  H
  H50      1.0000 0.67600  0.23460  0.62360  Biso   1.000  H
  H51      1.0000 0.44760  0.75140  0.40910  Biso   1.000  H
  H52      1.0000 0.55240  0.24860  0.59090  Biso   1.000  H
  H53      1.0000 0.36810  0.71400  0.45980  Biso   1.000  H
  H54      1.0000 0.63190  0.28600  0.54020  Biso   1.000  H
  H55      1.0000 0.67800  0.99400  0.10500  Biso   1.000  H
  H56      1.0000 0.32200  0.00600  0.89500  Biso   1.000  H
  N1       1.0000 0.97380  0.08060  0.27360  Biso   1.000  N
  N2       1.0000 0.02620  0.91940  0.72640  Biso   1.000  N
  N3       1.0000 0.03720  0.14410  0.24040  Biso   1.000  N
  N4       1.0000 0.96280  0.85590  0.75960  Biso   1.000  N
  N5       1.0000 0.85820  0.80900  0.10070  Biso   1.000  N
  N6       1.0000 0.14180  0.19100  0.89930  Biso   1.000  N
  N7       1.0000 0.94990  0.78110  0.10840  Biso   1.000  N
  N8       1.0000 0.05010  0.21890  0.89160  Biso   1.000  N
  N9       1.0000 0.90910  0.68580  0.05450  Biso   1.000  N
  N10      1.0000 0.09090  0.31420  0.94550  Biso   1.000  N
  N11      1.0000 0.06160  0.60350  0.30750  Biso   1.000  N
  N12      1.0000 0.93840  0.39650  0.69250  Biso   1.000  N
  N13      1.0000 0.00760  0.63670  0.22540  Biso   1.000  N
  N14      1.0000 0.99240  0.36330  0.77460  Biso   1.000  N
  N15      1.0000 0.20910  0.52920  0.58170  Biso   1.000  N
  N16      1.0000 0.79090  0.47080  0.41830  Biso   1.000  N
  H57      1.0000 0.25420  0.49350  0.58950  Biso   1.000  H
  H58      1.0000 0.74580  0.50650  0.41050  Biso   1.000  H
  N17      1.0000 0.19200  0.40140  0.24170  Biso   1.000  N
  N18      1.0000 0.80800  0.59860  0.75830  Biso   1.000  N
  N19      1.0000 0.10820  0.32380  0.17010  Biso   1.000  N
  N20      1.0000 0.89180  0.67620  0.82990  Biso   1.000  N
  N21      1.0000 0.15330  0.25080  0.16110  Biso   1.000  N
  N22      1.0000 0.84670  0.74920  0.83890  Biso   1.000  N
  N23      1.0000 0.79040  0.91430  0.40280  Biso   1.000  N
  N24      1.0000 0.20960  0.08570  0.59720  Biso   1.000  N
  H59      1.0000 0.74580  0.85410  0.37210  Biso   1.000  H
  H60      1.0000 0.25420  0.14590  0.62790  Biso   1.000  H
  N25      1.0000 0.70570  0.66680  0.37110  Biso   1.000  N
  N26      1.0000 0.29430  0.33320  0.62890  Biso   1.000  N
  N27      1.0000 0.26180  0.90250  0.09000  Biso   1.000  N
  N28      1.0000 0.73820  0.09750  0.91000  Biso   1.000  N
  O1       1.0000 0.82830  0.90670  0.26730  Biso   1.000  O
  O2       1.0000 0.17170  0.09330  0.73270  Biso   1.000  O
  O3       1.0000 0.96670  0.00440  0.10240  Biso   1.000  O
  O4       1.0000 0.03330  0.99560  0.89760  Biso   1.000  O
  O5       1.0000 0.19790  0.50910  0.42530  Biso   1.000  O
  O6       1.0000 0.80210  0.49090  0.57470  Biso   1.000  O
  O7       1.0000 0.09090  0.53930  0.15200  Biso   1.000  O
  O8       1.0000 0.90910  0.46070  0.84800  Biso   1.000  O
  O9       1.0000 0.20410  0.84800  0.01440  Biso   1.000  O
  O10      1.0000 0.79590  0.15200  0.98560  Biso   1.000  O
  O11      1.0000 0.29470  0.87040  0.15890  Biso   1.000  O
  O12      1.0000 0.70530  0.12960  0.84110  Biso   1.000  O
  O13      1.0000 0.65170  0.71780  0.32580  Biso   1.000  O
  O14      1.0000 0.34830  0.28220  0.67420  Biso   1.000  O
  O15      1.0000 0.64560  0.58470  0.36410  Biso   1.000  O
  O16      1.0000 0.35440  0.41530  0.63590  Biso   1.000  O
  O17      1.0000 0.81250  0.69650  0.41840  Biso   1.000  O
  O18      1.0000 0.18750  0.30350  0.58160  Biso   1.000  O
  O19      1.0000 0.71880  0.96570  0.07990  Biso   1.000  O
  O20      1.0000 0.28120  0.03430  0.92010  Biso   1.000  O
  H61      1.0000 0.71750  0.96970  0.02530  Biso   1.000  H
  H62      1.0000 0.28250  0.03030  0.97470  Biso   1.000  H
  O21      1.0000 0.32060  0.63660  0.32580  Biso   1.000  O
  O22      1.0000 0.67940  0.36340  0.67420  Biso   1.000  O
  O23      1.0000 0.28980  0.98640  0.10300  Biso   1.000  O
  O24      1.0000 0.71020  0.01360  0.89700  Biso   1.000  O
