data_image0
_cell_length_a       6.7451
_cell_length_b       7.7744
_cell_length_c       8.0605
_cell_angle_alpha    88.794
_cell_angle_beta     84.323
_cell_angle_gamma    88.052

_symmetry_space_group_name_H-M    "P 1"
_symmetry_int_tables_number       1

loop_
  _symmetry_equiv_pos_as_xyz
  'x, y, z'

loop_
  _atom_site_label
  _atom_site_occupancy
  _atom_site_fract_x
  _atom_site_fract_y
  _atom_site_fract_z
  _atom_site_thermal_displace_type
  _atom_site_B_iso_or_equiv
  _atom_site_type_symbol
  Cu1      1.0000 0.14911  0.01279  0.17231  Biso   1.000  Cu
  Cu2      1.0000 0.85089  0.98721  0.82769  Biso   1.000  Cu
  N1       1.0000 0.37800  0.15900  0.12550  Biso   1.000  N
  N2       1.0000 0.62200  0.84100  0.87450  Biso   1.000  N
  O1       1.0000 0.69130  0.15060  0.97910  Biso   1.000  O
  O2       1.0000 0.30870  0.84940  0.02090  Biso   1.000  O
  N3       1.0000 0.92560  0.85460  0.20540  Biso   1.000  N
  N4       1.0000 0.07440  0.14540  0.79460  Biso   1.000  N
  C1       1.0000 0.52200  0.08960  0.02980  Biso   1.000  C
  C2       1.0000 0.47800  0.91040  0.97020  Biso   1.000  C
  N5       1.0000 0.96330  0.20190  0.25750  Biso   1.000  N
  N6       1.0000 0.03670  0.79810  0.74250  Biso   1.000  N
  H1       1.0000 0.88060  0.22570  0.17840  Biso   1.000  H
  H2       1.0000 0.11940  0.77430  0.82160  Biso   1.000  H
  H3       1.0000 0.88830  0.15940  0.34650  Biso   1.000  H
  H4       1.0000 0.11170  0.84060  0.65350  Biso   1.000  H
  C3       1.0000 0.39760  0.33430  0.18580  Biso   1.000  C
  C4       1.0000 0.60240  0.66570  0.81420  Biso   1.000  C
  H5       1.0000 0.49960  0.39250  0.11430  Biso   1.000  H
  H6       1.0000 0.50040  0.60750  0.88570  Biso   1.000  H
  H7       1.0000 0.43890  0.32830  0.29770  Biso   1.000  H
  H8       1.0000 0.56110  0.67170  0.70230  Biso   1.000  H
  C5       1.0000 0.20210  0.43640  0.18690  Biso   1.000  C
  C6       1.0000 0.79790  0.56360  0.81310  Biso   1.000  C
  H9       1.0000 0.22450  0.55470  0.21410  Biso   1.000  H
  H10      1.0000 0.77550  0.44530  0.78590  Biso   1.000  H
  H11      1.0000 0.15890  0.43670  0.07570  Biso   1.000  H
  H12      1.0000 0.84110  0.56330  0.92430  Biso   1.000  H
  C7       1.0000 0.03850  0.36890  0.30760  Biso   1.000  C
  C8       1.0000 0.96150  0.63110  0.69240  Biso   1.000  C
  H13      1.0000 0.08720  0.35450  0.41640  Biso   1.000  H
  H14      1.0000 0.91280  0.64550  0.58360  Biso   1.000  H
  H15      1.0000 0.92870  0.45320  0.31740  Biso   1.000  H
  H16      1.0000 0.07130  0.54680  0.68260  Biso   1.000  H
  N7       1.0000 0.62070  0.72410  0.32610  Biso   1.000  N
  N8       1.0000 0.37930  0.27590  0.67390  Biso   1.000  N
  C9       1.0000 0.77790  0.80220  0.26530  Biso   1.000  C
  C10      1.0000 0.22210  0.19780  0.73470  Biso   1.000  C
  C11      1.0000 0.45590  0.81220  0.38020  Biso   1.000  C
  C12      1.0000 0.54410  0.18780  0.61980  Biso   1.000  C
  N9       1.0000 0.30460  0.87580  0.42590  Biso   1.000  N
  N10      1.0000 0.69540  0.12420  0.57410  Biso   1.000  N
