data_image0
_cell_length_a       12.326
_cell_length_b       26.1109
_cell_length_c       7.1364
_cell_angle_alpha    90
_cell_angle_beta     103.785
_cell_angle_gamma    90

_symmetry_space_group_name_H-M    "P 1"
_symmetry_int_tables_number       1

loop_
  _symmetry_equiv_pos_as_xyz
  'x, y, z'

loop_
  _atom_site_label
  _atom_site_occupancy
  _atom_site_fract_x
  _atom_site_fract_y
  _atom_site_fract_z
  _atom_site_thermal_displace_type
  _atom_site_B_iso_or_equiv
  _atom_site_type_symbol
  Cu1      1.0000 0.99135  0.88020  0.11924  Biso   1.000  Cu
  Cu2      1.0000 0.00865  0.38020  0.38076  Biso   1.000  Cu
  Cu3      1.0000 0.00865  0.11980  0.88076  Biso   1.000  Cu
  Cu4      1.0000 0.99135  0.61980  0.61924  Biso   1.000  Cu
  O1       1.0000 0.84310  0.90882  0.11440  Biso   1.000  O
  O2       1.0000 0.15690  0.40882  0.38560  Biso   1.000  O
  O3       1.0000 0.15690  0.09118  0.88560  Biso   1.000  O
  O4       1.0000 0.84310  0.59118  0.61440  Biso   1.000  O
  O5       1.0000 0.12851  0.85752  0.03950  Biso   1.000  O
  O6       1.0000 0.87149  0.35752  0.46050  Biso   1.000  O
  O7       1.0000 0.87149  0.14248  0.96050  Biso   1.000  O
  O8       1.0000 0.12851  0.64248  0.53950  Biso   1.000  O
  O9       1.0000 0.65100  0.87812  0.50550  Biso   1.000  O
  O10      1.0000 0.34900  0.37812  0.99450  Biso   1.000  O
  O11      1.0000 0.34900  0.12188  0.49450  Biso   1.000  O
  O12      1.0000 0.65100  0.62188  0.00550  Biso   1.000  O
  H1       1.0000 0.71700  0.87150  0.51400  Biso   1.000  H
  H2       1.0000 0.28300  0.37150  0.98600  Biso   1.000  H
  H3       1.0000 0.28300  0.12850  0.48600  Biso   1.000  H
  H4       1.0000 0.71700  0.62850  0.01400  Biso   1.000  H
  O13      1.0000 0.07240  0.84779  0.44700  Biso   1.000  O
  O14      1.0000 0.92760  0.34779  0.05300  Biso   1.000  O
  O15      1.0000 0.92760  0.15221  0.55300  Biso   1.000  O
  O16      1.0000 0.07240  0.65221  0.94700  Biso   1.000  O
  H5       1.0000 0.03340  0.86010  0.51380  Biso   1.000  H
  H6       1.0000 0.96660  0.36010  0.98620  Biso   1.000  H
  H7       1.0000 0.96660  0.13990  0.48620  Biso   1.000  H
  H8       1.0000 0.03340  0.63990  0.01380  Biso   1.000  H
  O17      1.0000 0.02160  0.87699  0.75240  Biso   1.000  O
  O18      1.0000 0.97840  0.37699  0.74760  Biso   1.000  O
  O19      1.0000 0.97840  0.12301  0.24760  Biso   1.000  O
  O20      1.0000 0.02160  0.62301  0.25240  Biso   1.000  O
  O21      1.0000 0.83570  0.87702  0.39990  Biso   1.000  O
  O22      1.0000 0.16430  0.37702  0.10010  Biso   1.000  O
  O23      1.0000 0.16430  0.12298  0.60010  Biso   1.000  O
  O24      1.0000 0.83570  0.62298  0.89990  Biso   1.000  O
  N1       1.0000 0.91860  0.81354  0.03450  Biso   1.000  N
  N2       1.0000 0.08140  0.31354  0.46550  Biso   1.000  N
  N3       1.0000 0.08140  0.18646  0.96550  Biso   1.000  N
  N4       1.0000 0.91860  0.68646  0.53450  Biso   1.000  N
  N5       1.0000 0.88920  0.73225  0.97730  Biso   1.000  N
  N6       1.0000 0.11080  0.23225  0.52270  Biso   1.000  N
  N7       1.0000 0.11080  0.26775  0.02270  Biso   1.000  N
  N8       1.0000 0.88920  0.76775  0.47730  Biso   1.000  N
  H9       1.0000 0.90130  0.69980  0.97660  Biso   1.000  H
  H10      1.0000 0.09870  0.19980  0.52340  Biso   1.000  H
  H11      1.0000 0.09870  0.30020  0.02340  Biso   1.000  H
  H12      1.0000 0.90130  0.80020  0.47660  Biso   1.000  H
  N9       1.0000 0.06200  0.94594  0.21600  Biso   1.000  N
  N10      1.0000 0.93800  0.44594  0.28400  Biso   1.000  N
  N11      1.0000 0.93800  0.05406  0.78400  Biso   1.000  N
  N12      1.0000 0.06200  0.55406  0.71600  Biso   1.000  N
  N13      1.0000 0.08660  0.02592  0.30190  Biso   1.000  N
  N14      1.0000 0.91340  0.52592  0.19810  Biso   1.000  N
  N15      1.0000 0.91340  0.97408  0.69810  Biso   1.000  N
  N16      1.0000 0.08660  0.47408  0.80190  Biso   1.000  N
  H13      1.0000 0.07180  0.05740  0.32170  Biso   1.000  H
  H14      1.0000 0.92820  0.55740  0.17830  Biso   1.000  H
  H15      1.0000 0.92820  0.94260  0.67830  Biso   1.000  H
  H16      1.0000 0.07180  0.44260  0.82170  Biso   1.000  H
  C1       1.0000 0.49990  0.93383  0.95960  Biso   1.000  C
  C2       1.0000 0.50010  0.43383  0.54040  Biso   1.000  C
  C3       1.0000 0.50010  0.06617  0.04040  Biso   1.000  C
  C4       1.0000 0.49990  0.56617  0.45960  Biso   1.000  C
  C5       1.0000 0.44070  0.95140  0.75970  Biso   1.000  C
  C6       1.0000 0.55930  0.45140  0.74030  Biso   1.000  C
  C7       1.0000 0.55930  0.04860  0.24030  Biso   1.000  C
  C8       1.0000 0.44070  0.54860  0.25970  Biso   1.000  C
  H17      1.0000 0.49510  0.95860  0.68690  Biso   1.000  H
  H18      1.0000 0.50490  0.45860  0.81310  Biso   1.000  H
  H19      1.0000 0.50490  0.04140  0.31310  Biso   1.000  H
  H20      1.0000 0.49510  0.54140  0.18690  Biso   1.000  H
  H21      1.0000 0.39850  0.98180  0.76860  Biso   1.000  H
  H22      1.0000 0.60150  0.48180  0.73140  Biso   1.000  H
  H23      1.0000 0.60150  0.01820  0.23140  Biso   1.000  H
  H24      1.0000 0.39850  0.51820  0.26860  Biso   1.000  H
  H25      1.0000 0.39120  0.92490  0.69650  Biso   1.000  H
  H26      1.0000 0.60880  0.42490  0.80350  Biso   1.000  H
  H27      1.0000 0.60880  0.07510  0.30350  Biso   1.000  H
  H28      1.0000 0.39120  0.57510  0.19650  Biso   1.000  H
  C9       1.0000 0.61360  0.92580  0.01160  Biso   1.000  C
  C10      1.0000 0.38640  0.42580  0.48840  Biso   1.000  C
  C11      1.0000 0.38640  0.07420  0.98840  Biso   1.000  C
  C12      1.0000 0.61360  0.57420  0.51160  Biso   1.000  C
  H29      1.0000 0.65560  0.93280  0.92220  Biso   1.000  H
  H30      1.0000 0.34440  0.43280  0.57780  Biso   1.000  H
  H31      1.0000 0.34440  0.06720  0.07780  Biso   1.000  H
  H32      1.0000 0.65560  0.56720  0.42220  Biso   1.000  H
  C13      1.0000 0.79220  0.75607  0.89550  Biso   1.000  C
  C14      1.0000 0.20780  0.25607  0.60450  Biso   1.000  C
  C15      1.0000 0.20780  0.24393  0.10450  Biso   1.000  C
  C16      1.0000 0.79220  0.74393  0.39550  Biso   1.000  C
  H33      1.0000 0.72610  0.74080  0.82880  Biso   1.000  H
  H34      1.0000 0.27390  0.24080  0.67120  Biso   1.000  H
  H35      1.0000 0.27390  0.25920  0.17120  Biso   1.000  H
  H36      1.0000 0.72610  0.75920  0.32880  Biso   1.000  H
  C17      1.0000 0.01260  0.99019  0.22740  Biso   1.000  C
  C18      1.0000 0.98740  0.49019  0.27260  Biso   1.000  C
  C19      1.0000 0.98740  0.00981  0.77260  Biso   1.000  C
  C20      1.0000 0.01260  0.50981  0.72740  Biso   1.000  C
  H37      1.0000 0.93600  0.99560  0.18840  Biso   1.000  H
  H38      1.0000 0.06400  0.49560  0.31160  Biso   1.000  H
  H39      1.0000 0.06400  0.00440  0.81160  Biso   1.000  H
  H40      1.0000 0.93600  0.50440  0.68840  Biso   1.000  H
  C21      1.0000 0.19630  0.83854  0.76220  Biso   1.000  C
  C22      1.0000 0.80370  0.33854  0.73780  Biso   1.000  C
  C23      1.0000 0.80370  0.16146  0.23780  Biso   1.000  C
  C24      1.0000 0.19630  0.66146  0.26220  Biso   1.000  C
  C25      1.0000 0.66810  0.90741  0.19350  Biso   1.000  C
  C26      1.0000 0.33190  0.40741  0.30650  Biso   1.000  C
  C27      1.0000 0.33190  0.09259  0.80650  Biso   1.000  C
  C28      1.0000 0.66810  0.59259  0.69350  Biso   1.000  C
  C29      1.0000 0.49040  0.90568  0.27700  Biso   1.000  C
  C30      1.0000 0.50960  0.40568  0.22300  Biso   1.000  C
  C31      1.0000 0.50960  0.09432  0.72300  Biso   1.000  C
  C32      1.0000 0.49040  0.59432  0.77700  Biso   1.000  C
  H41      1.0000 0.44780  0.89910  0.36580  Biso   1.000  H
  H42      1.0000 0.55220  0.39910  0.13420  Biso   1.000  H
  H43      1.0000 0.55220  0.10090  0.63420  Biso   1.000  H
  H44      1.0000 0.44780  0.60090  0.86580  Biso   1.000  H
  C33      1.0000 0.30230  0.82437  0.86990  Biso   1.000  C
  C34      1.0000 0.69770  0.32437  0.63010  Biso   1.000  C
  C35      1.0000 0.69770  0.17563  0.13010  Biso   1.000  C
  C36      1.0000 0.30230  0.67563  0.36990  Biso   1.000  C
  H45      1.0000 0.31700  0.82540  0.00380  Biso   1.000  H
  H46      1.0000 0.68300  0.32540  0.49620  Biso   1.000  H
  H47      1.0000 0.68300  0.17460  0.99620  Biso   1.000  H
  H48      1.0000 0.31700  0.67460  0.50380  Biso   1.000  H
  C37      1.0000 0.81090  0.80624  0.93020  Biso   1.000  C
  C38      1.0000 0.18910  0.30624  0.56980  Biso   1.000  C
  C39      1.0000 0.18910  0.19376  0.06980  Biso   1.000  C
  C40      1.0000 0.81090  0.69376  0.43020  Biso   1.000  C
  H49      1.0000 0.75870  0.83210  0.88950  Biso   1.000  H
  H50      1.0000 0.24130  0.33210  0.61050  Biso   1.000  H
  H51      1.0000 0.24130  0.16790  0.11050  Biso   1.000  H
  H52      1.0000 0.75870  0.66790  0.38950  Biso   1.000  H
  C41      1.0000 0.17390  0.83521  0.56020  Biso   1.000  C
  C42      1.0000 0.82610  0.33521  0.93980  Biso   1.000  C
  C43      1.0000 0.82610  0.16479  0.43980  Biso   1.000  C
  C44      1.0000 0.17390  0.66479  0.06020  Biso   1.000  C
  C45      1.0000 0.44020  0.92395  0.09630  Biso   1.000  C
  C46      1.0000 0.55980  0.42395  0.40370  Biso   1.000  C
  C47      1.0000 0.55980  0.07605  0.90370  Biso   1.000  C
  C48      1.0000 0.44020  0.57605  0.59630  Biso   1.000  C
  H53      1.0000 0.36360  0.92990  0.06560  Biso   1.000  H
  H54      1.0000 0.63640  0.42990  0.43440  Biso   1.000  H
  H55      1.0000 0.63640  0.07010  0.93440  Biso   1.000  H
  H56      1.0000 0.36360  0.57010  0.56560  Biso   1.000  H
  C49      1.0000 0.50220  0.79700  0.89980  Biso   1.000  C
  C50      1.0000 0.49780  0.29700  0.60020  Biso   1.000  C
  C51      1.0000 0.49780  0.20300  0.10020  Biso   1.000  C
  C52      1.0000 0.50220  0.70300  0.39980  Biso   1.000  C
  H57      1.0000 0.52100  0.76230  0.87620  Biso   1.000  H
  H58      1.0000 0.47900  0.26230  0.62380  Biso   1.000  H
  H59      1.0000 0.47900  0.23770  0.12380  Biso   1.000  H
  H60      1.0000 0.52100  0.73770  0.37620  Biso   1.000  H
  H61      1.0000 0.50520  0.80130  0.03450  Biso   1.000  H
  H62      1.0000 0.49480  0.30130  0.46550  Biso   1.000  H
  H63      1.0000 0.49480  0.19870  0.96550  Biso   1.000  H
  H64      1.0000 0.50520  0.69870  0.53450  Biso   1.000  H
  H65      1.0000 0.55440  0.81990  0.86290  Biso   1.000  H
  H66      1.0000 0.44560  0.31990  0.63710  Biso   1.000  H
  H67      1.0000 0.44560  0.18010  0.13710  Biso   1.000  H
  H68      1.0000 0.55440  0.68010  0.36290  Biso   1.000  H
  C53      1.0000 0.25540  0.81820  0.47260  Biso   1.000  C
  C54      1.0000 0.74460  0.31820  0.02740  Biso   1.000  C
  C55      1.0000 0.74460  0.18180  0.52740  Biso   1.000  C
  C56      1.0000 0.25540  0.68180  0.97260  Biso   1.000  C
  H69      1.0000 0.23990  0.81490  0.33910  Biso   1.000  H
  H70      1.0000 0.76010  0.31490  0.16090  Biso   1.000  H
  H71      1.0000 0.76010  0.18510  0.66090  Biso   1.000  H
  H72      1.0000 0.23990  0.68510  0.83910  Biso   1.000  H
  C57      1.0000 0.17390  0.95504  0.28820  Biso   1.000  C
  C58      1.0000 0.82610  0.45504  0.21180  Biso   1.000  C
  C59      1.0000 0.82610  0.04496  0.71180  Biso   1.000  C
  C60      1.0000 0.17390  0.54496  0.78820  Biso   1.000  C
  H73      1.0000 0.23020  0.93070  0.29840  Biso   1.000  H
  H74      1.0000 0.76980  0.43070  0.20160  Biso   1.000  H
  H75      1.0000 0.76980  0.06930  0.70160  Biso   1.000  H
  H76      1.0000 0.23020  0.56930  0.79840  Biso   1.000  H
  C61      1.0000 0.38570  0.80881  0.78300  Biso   1.000  C
  C62      1.0000 0.61430  0.30881  0.71700  Biso   1.000  C
  C63      1.0000 0.61430  0.19119  0.21700  Biso   1.000  C
  C64      1.0000 0.38570  0.69119  0.28300  Biso   1.000  C
  C65      1.0000 0.18970  0.00425  0.34180  Biso   1.000  C
  C66      1.0000 0.81030  0.50425  0.15820  Biso   1.000  C
  C67      1.0000 0.81030  0.99575  0.65820  Biso   1.000  C
  C68      1.0000 0.18970  0.49575  0.84180  Biso   1.000  C
  H77      1.0000 0.25740  0.02030  0.39490  Biso   1.000  H
  H78      1.0000 0.74260  0.52030  0.10510  Biso   1.000  H
  H79      1.0000 0.74260  0.97970  0.60510  Biso   1.000  H
  H80      1.0000 0.25740  0.47970  0.89490  Biso   1.000  H
  C69      1.0000 0.79110  0.89724  0.23940  Biso   1.000  C
  C70      1.0000 0.20890  0.39724  0.26060  Biso   1.000  C
  C71      1.0000 0.20890  0.10276  0.76060  Biso   1.000  C
  C72      1.0000 0.79110  0.60276  0.73940  Biso   1.000  C
  C73      1.0000 0.35970  0.80609  0.58310  Biso   1.000  C
  C74      1.0000 0.64030  0.30609  0.91690  Biso   1.000  C
  C75      1.0000 0.64030  0.19391  0.41690  Biso   1.000  C
  C76      1.0000 0.35970  0.69391  0.08310  Biso   1.000  C
  H81      1.0000 0.41470  0.79570  0.52170  Biso   1.000  H
  H82      1.0000 0.58530  0.29570  0.97830  Biso   1.000  H
  H83      1.0000 0.58530  0.20430  0.47830  Biso   1.000  H
  H84      1.0000 0.41470  0.70430  0.02170  Biso   1.000  H
  C77      1.0000 0.96300  0.76772  0.05980  Biso   1.000  C
  C78      1.0000 0.03700  0.26772  0.44020  Biso   1.000  C
  C79      1.0000 0.03700  0.23228  0.94020  Biso   1.000  C
  C80      1.0000 0.96300  0.73228  0.55980  Biso   1.000  C
  H85      1.0000 0.03610  0.76090  0.12600  Biso   1.000  H
  H86      1.0000 0.96390  0.26090  0.37400  Biso   1.000  H
  H87      1.0000 0.96390  0.23910  0.87400  Biso   1.000  H
  H88      1.0000 0.03610  0.73910  0.62600  Biso   1.000  H
  C81      1.0000 0.60490  0.89682  0.32650  Biso   1.000  C
  C82      1.0000 0.39510  0.39682  0.17350  Biso   1.000  C
  C83      1.0000 0.39510  0.10318  0.67350  Biso   1.000  C
  C84      1.0000 0.60490  0.60318  0.82650  Biso   1.000  C
  C85      1.0000 0.11060  0.85893  0.85680  Biso   1.000  C
  C86      1.0000 0.88940  0.35893  0.64320  Biso   1.000  C
  C87      1.0000 0.88940  0.14107  0.14320  Biso   1.000  C
  C88      1.0000 0.11060  0.64107  0.35680  Biso   1.000  C
