data_image0
_cell_length_a       10.561
_cell_length_b       6.927
_cell_length_c       15.51
_cell_angle_alpha    90
_cell_angle_beta     106.827
_cell_angle_gamma    90

_symmetry_space_group_name_H-M    "P 1"
_symmetry_int_tables_number       1

loop_
  _symmetry_equiv_pos_as_xyz
  'x, y, z'

loop_
  _atom_site_label
  _atom_site_occupancy
  _atom_site_fract_x
  _atom_site_fract_y
  _atom_site_fract_z
  _atom_site_thermal_displace_type
  _atom_site_B_iso_or_equiv
  _atom_site_type_symbol
  C1       1.0000 0.02571  0.20260  0.63749  Biso   1.000  C
  C2       1.0000 0.97429  0.70260  0.36251  Biso   1.000  C
  H1       1.0000 0.02670  0.20700  0.69760  Biso   1.000  H
  H2       1.0000 0.97330  0.70700  0.30240  Biso   1.000  H
  C3       1.0000 0.90446  0.20170  0.57118  Biso   1.000  C
  C4       1.0000 0.09554  0.70170  0.42882  Biso   1.000  C
  H3       1.0000 0.82610  0.20490  0.58720  Biso   1.000  H
  H4       1.0000 0.17390  0.70490  0.41280  Biso   1.000  H
  C5       1.0000 0.90089  0.19600  0.48259  Biso   1.000  C
  C6       1.0000 0.09911  0.69600  0.51741  Biso   1.000  C
  H5       1.0000 0.82030  0.19490  0.43780  Biso   1.000  H
  H6       1.0000 0.17970  0.69490  0.56220  Biso   1.000  H
  C7       1.0000 0.02002  0.19170  0.45982  Biso   1.000  C
  C8       1.0000 0.97998  0.69170  0.54018  Biso   1.000  C
  C9       1.0000 0.02790  0.18130  0.36935  Biso   1.000  C
  C10      1.0000 0.97210  0.68130  0.63065  Biso   1.000  C
  H7       1.0000 0.95070  0.18370  0.32160  Biso   1.000  H
  H8       1.0000 0.04930  0.68370  0.67840  Biso   1.000  H
  C11      1.0000 0.14620  0.16800  0.35253  Biso   1.000  C
  C12      1.0000 0.85380  0.66800  0.64747  Biso   1.000  C
  H9       1.0000 0.14860  0.16050  0.29320  Biso   1.000  H
  H10      1.0000 0.85140  0.66050  0.70680  Biso   1.000  H
  C13      1.0000 0.26770  0.16520  0.42360  Biso   1.000  C
  C14      1.0000 0.73230  0.66520  0.57640  Biso   1.000  C
  C15      1.0000 0.39370  0.15050  0.41162  Biso   1.000  C
  C16      1.0000 0.60630  0.65050  0.58838  Biso   1.000  C
  H11      1.0000 0.40320  0.14270  0.35400  Biso   1.000  H
  H12      1.0000 0.59680  0.64270  0.64600  Biso   1.000  H
  C17      1.0000 0.50180  0.14770  0.48461  Biso   1.000  C
  C18      1.0000 0.49820  0.64770  0.51539  Biso   1.000  C
  H13      1.0000 0.58560  0.13530  0.47700  Biso   1.000  H
  H14      1.0000 0.41440  0.63530  0.52300  Biso   1.000  H
  C19      1.0000 0.48780  0.16360  0.57124  Biso   1.000  C
  C20      1.0000 0.51220  0.66360  0.42876  Biso   1.000  C
  H15      1.0000 0.56330  0.16470  0.62040  Biso   1.000  H
  H16      1.0000 0.43670  0.66470  0.37960  Biso   1.000  H
  C21      1.0000 0.26214  0.17850  0.51284  Biso   1.000  C
  C22      1.0000 0.73786  0.67850  0.48716  Biso   1.000  C
  C23      1.0000 0.13697  0.19040  0.53033  Biso   1.000  C
  C24      1.0000 0.86303  0.69040  0.46967  Biso   1.000  C
  C25      1.0000 0.33908  0.23230  0.88004  Biso   1.000  C
  C26      1.0000 0.66092  0.73230  0.11996  Biso   1.000  C
  C27      1.0000 0.47957  0.17760  0.88273  Biso   1.000  C
  C28      1.0000 0.52043  0.67760  0.11727  Biso   1.000  C
  H17      1.0000 0.48780  0.03740  0.89100  Biso   1.000  H
  H18      1.0000 0.51220  0.53740  0.10900  Biso   1.000  H
  C29      1.0000 0.58189  0.27040  0.96115  Biso   1.000  C
  C30      1.0000 0.41811  0.77040  0.03885  Biso   1.000  C
  H19      1.0000 0.56150  0.23760  0.01640  Biso   1.000  H
  H20      1.0000 0.43850  0.73760  0.98360  Biso   1.000  H
  H21      1.0000 0.57520  0.40960  0.95420  Biso   1.000  H
  H22      1.0000 0.42480  0.90960  0.04580  Biso   1.000  H
  C31      1.0000 0.72350  0.21040  0.97005  Biso   1.000  C
  C32      1.0000 0.27650  0.71040  0.02995  Biso   1.000  C
  H23      1.0000 0.73000  0.07060  0.97150  Biso   1.000  H
  H24      1.0000 0.27000  0.57060  0.02850  Biso   1.000  H
  H25      1.0000 0.74900  0.25630  0.91840  Biso   1.000  H
  H26      1.0000 0.25100  0.75630  0.08160  Biso   1.000  H
  C33      1.0000 0.81580  0.29370  0.05558  Biso   1.000  C
  C34      1.0000 0.18420  0.79370  0.94442  Biso   1.000  C
  H27      1.0000 0.80820  0.43330  0.05410  Biso   1.000  H
  H28      1.0000 0.19180  0.93330  0.94590  Biso   1.000  H
  H29      1.0000 0.78990  0.24730  0.10710  Biso   1.000  H
  H30      1.0000 0.21010  0.74730  0.89290  Biso   1.000  H
  N1       1.0000 0.13956  0.19760  0.61804  Biso   1.000  N
  N2       1.0000 0.86044  0.69760  0.38196  Biso   1.000  N
  N3       1.0000 0.37084  0.17690  0.58538  Biso   1.000  N
  N4       1.0000 0.62916  0.67690  0.41462  Biso   1.000  N
  N5       1.0000 0.49760  0.22250  0.79329  Biso   1.000  N
  N6       1.0000 0.50240  0.72250  0.20671  Biso   1.000  N
  N7       1.0000 0.95567  0.23830  0.06598  Biso   1.000  N
  N8       1.0000 0.04433  0.73830  0.93402  Biso   1.000  N
  N9       1.0000 0.37511  0.69830  0.73627  Biso   1.000  N
  N10      1.0000 0.62489  0.19830  0.26373  Biso   1.000  N
  O1       1.0000 0.25537  0.25000  0.80315  Biso   1.000  O
  O2       1.0000 0.74463  0.75000  0.19685  Biso   1.000  O
  O3       1.0000 0.30975  0.25280  0.95053  Biso   1.000  O
  O4       1.0000 0.69025  0.75280  0.04947  Biso   1.000  O
  O5       1.0000 0.36080  0.56970  0.67864  Biso   1.000  O
  O6       1.0000 0.63920  0.06970  0.32136  Biso   1.000  O
  O7       1.0000 0.30680  0.84310  0.72130  Biso   1.000  O
  O8       1.0000 0.69320  0.34310  0.27870  Biso   1.000  O
  O9       1.0000 0.45820  0.67530  0.80854  Biso   1.000  O
  O10      1.0000 0.54180  0.17530  0.19146  Biso   1.000  O
  Cu1      1.0000 0.32220  0.20682  0.70202  Biso   1.000  Cu
  Cu2      1.0000 0.67780  0.70682  0.29798  Biso   1.000  Cu
  H31      1.0000 0.56140  0.15400  0.78610  Biso   1.000  H
  H32      1.0000 0.43860  0.65400  0.21390  Biso   1.000  H
  H33      1.0000 0.97800  0.25500  0.01790  Biso   1.000  H
  H34      1.0000 0.02200  0.75500  0.98210  Biso   1.000  H
  H35      1.0000 0.97200  0.11850  0.07970  Biso   1.000  H
  H36      1.0000 0.02800  0.61850  0.92030  Biso   1.000  H
  H37      1.0000 0.99500  0.29300  0.11610  Biso   1.000  H
  H38      1.0000 0.00500  0.79300  0.88390  Biso   1.000  H
  H39      1.0000 0.52900  0.33400  0.78730  Biso   1.000  H
  H40      1.0000 0.47100  0.83400  0.21270  Biso   1.000  H
  N11      1.0000 0.80192  0.07830  0.76811  Biso   1.000  N
  N12      1.0000 0.19808  0.57830  0.23189  Biso   1.000  N
  O11      1.0000 0.78220  0.24520  0.74449  Biso   1.000  O
  O12      1.0000 0.21780  0.74520  0.25551  Biso   1.000  O
  O13      1.0000 0.70754  0.96400  0.75553  Biso   1.000  O
  O14      1.0000 0.29246  0.46400  0.24447  Biso   1.000  O
  O15      1.0000 0.91758  0.02150  0.80507  Biso   1.000  O
  O16      1.0000 0.08242  0.52150  0.19493  Biso   1.000  O
  O17      1.0000 0.04478  0.33950  0.91393  Biso   1.000  O
  O18      1.0000 0.95522  0.83950  0.08607  Biso   1.000  O
  H41      1.0000 0.12750  0.30300  0.92500  Biso   1.000  H
  H42      1.0000 0.87250  0.80300  0.07500  Biso   1.000  H
  H43      1.0000 0.00100  0.25500  0.87210  Biso   1.000  H
  H44      1.0000 0.99900  0.75500  0.12790  Biso   1.000  H
  O19      1.0000 0.23390  0.15550  0.11154  Biso   1.000  O
  O20      1.0000 0.76610  0.65550  0.88846  Biso   1.000  O
  H45      1.0000 0.30900  0.16300  0.09600  Biso   1.000  H
  H46      1.0000 0.69100  0.66300  0.90400  Biso   1.000  H
  H47      1.0000 0.24000  0.20800  0.16560  Biso   1.000  H
  H48      1.0000 0.76000  0.70800  0.83440  Biso   1.000  H
