data_image0
_cell_length_a       12.205
_cell_length_b       13.448
_cell_length_c       17.308
_cell_angle_alpha    90
_cell_angle_beta     106.93
_cell_angle_gamma    90

_symmetry_space_group_name_H-M    "P 1"
_symmetry_int_tables_number       1

loop_
  _symmetry_equiv_pos_as_xyz
  'x, y, z'

loop_
  _atom_site_label
  _atom_site_occupancy
  _atom_site_fract_x
  _atom_site_fract_y
  _atom_site_fract_z
  _atom_site_thermal_displace_type
  _atom_site_B_iso_or_equiv
  _atom_site_type_symbol
  C1       1.0000 0.62523  0.99495  0.67620  Biso   1.000  C
  C2       1.0000 0.12523  0.49495  0.67620  Biso   1.000  C
  C3       1.0000 0.62523  0.00505  0.17620  Biso   1.000  C
  C4       1.0000 0.12523  0.50505  0.17620  Biso   1.000  C
  C5       1.0000 0.37477  0.00505  0.32380  Biso   1.000  C
  C6       1.0000 0.87477  0.50505  0.32380  Biso   1.000  C
  C7       1.0000 0.37477  0.99495  0.82380  Biso   1.000  C
  C8       1.0000 0.87477  0.49495  0.82380  Biso   1.000  C
  H1       1.0000 0.63280  0.06280  0.66870  Biso   1.000  H
  H2       1.0000 0.13280  0.56280  0.66870  Biso   1.000  H
  H3       1.0000 0.63280  0.93720  0.16870  Biso   1.000  H
  H4       1.0000 0.13280  0.43720  0.16870  Biso   1.000  H
  H5       1.0000 0.36720  0.93720  0.33130  Biso   1.000  H
  H6       1.0000 0.86720  0.43720  0.33130  Biso   1.000  H
  H7       1.0000 0.36720  0.06280  0.83130  Biso   1.000  H
  H8       1.0000 0.86720  0.56280  0.83130  Biso   1.000  H
  C9       1.0000 0.67692  0.95521  0.75151  Biso   1.000  C
  C10      1.0000 0.17692  0.45521  0.75151  Biso   1.000  C
  C11      1.0000 0.67692  0.04479  0.25151  Biso   1.000  C
  C12      1.0000 0.17692  0.54479  0.25151  Biso   1.000  C
  C13      1.0000 0.32308  0.04479  0.24849  Biso   1.000  C
  C14      1.0000 0.82308  0.54479  0.24849  Biso   1.000  C
  C15      1.0000 0.32308  0.95521  0.74849  Biso   1.000  C
  C16      1.0000 0.82308  0.45521  0.74849  Biso   1.000  C
  H9       1.0000 0.71680  0.99600  0.79380  Biso   1.000  H
  H10      1.0000 0.21680  0.49600  0.79380  Biso   1.000  H
  H11      1.0000 0.71680  0.00400  0.29380  Biso   1.000  H
  H12      1.0000 0.21680  0.50400  0.29380  Biso   1.000  H
  H13      1.0000 0.28320  0.00400  0.20620  Biso   1.000  H
  H14      1.0000 0.78320  0.50400  0.20620  Biso   1.000  H
  H15      1.0000 0.28320  0.99600  0.70620  Biso   1.000  H
  H16      1.0000 0.78320  0.49600  0.70620  Biso   1.000  H
  C17      1.0000 0.66879  0.85440  0.76351  Biso   1.000  C
  C18      1.0000 0.16879  0.35440  0.76351  Biso   1.000  C
  C19      1.0000 0.66879  0.14560  0.26351  Biso   1.000  C
  C20      1.0000 0.16879  0.64560  0.26351  Biso   1.000  C
  C21      1.0000 0.33121  0.14560  0.23649  Biso   1.000  C
  C22      1.0000 0.83121  0.64560  0.23649  Biso   1.000  C
  C23      1.0000 0.33121  0.85440  0.73649  Biso   1.000  C
  C24      1.0000 0.83121  0.35440  0.73649  Biso   1.000  C
  C25      1.0000 0.60431  0.79837  0.69952  Biso   1.000  C
  C26      1.0000 0.10431  0.29837  0.69952  Biso   1.000  C
  C27      1.0000 0.60431  0.20163  0.19952  Biso   1.000  C
  C28      1.0000 0.10431  0.70163  0.19952  Biso   1.000  C
  C29      1.0000 0.39569  0.20163  0.30048  Biso   1.000  C
  C30      1.0000 0.89569  0.70163  0.30048  Biso   1.000  C
  C31      1.0000 0.39569  0.79837  0.80048  Biso   1.000  C
  C32      1.0000 0.89569  0.29837  0.80048  Biso   1.000  C
  H17      1.0000 0.59520  0.73050  0.70590  Biso   1.000  H
  H18      1.0000 0.09520  0.23050  0.70590  Biso   1.000  H
  H19      1.0000 0.59520  0.26950  0.20590  Biso   1.000  H
  H20      1.0000 0.09520  0.76950  0.20590  Biso   1.000  H
  H21      1.0000 0.40480  0.26950  0.29410  Biso   1.000  H
  H22      1.0000 0.90480  0.76950  0.29410  Biso   1.000  H
  H23      1.0000 0.40480  0.73050  0.79410  Biso   1.000  H
  H24      1.0000 0.90480  0.23050  0.79410  Biso   1.000  H
  C33      1.0000 0.55351  0.84315  0.62625  Biso   1.000  C
  C34      1.0000 0.05351  0.34315  0.62625  Biso   1.000  C
  C35      1.0000 0.55351  0.15685  0.12625  Biso   1.000  C
  C36      1.0000 0.05351  0.65685  0.12625  Biso   1.000  C
  C37      1.0000 0.44649  0.15685  0.37375  Biso   1.000  C
  C38      1.0000 0.94649  0.65685  0.37375  Biso   1.000  C
  C39      1.0000 0.44649  0.84315  0.87375  Biso   1.000  C
  C40      1.0000 0.94649  0.34315  0.87375  Biso   1.000  C
  H25      1.0000 0.50980  0.80440  0.58390  Biso   1.000  H
  H26      1.0000 0.00980  0.30440  0.58390  Biso   1.000  H
  H27      1.0000 0.50980  0.19560  0.08390  Biso   1.000  H
  H28      1.0000 0.00980  0.69560  0.08390  Biso   1.000  H
  H29      1.0000 0.49020  0.19560  0.41610  Biso   1.000  H
  H30      1.0000 0.99020  0.69560  0.41610  Biso   1.000  H
  H31      1.0000 0.49020  0.80440  0.91610  Biso   1.000  H
  H32      1.0000 0.99020  0.30440  0.91610  Biso   1.000  H
  C41      1.0000 0.73269  0.80616  0.84354  Biso   1.000  C
  C42      1.0000 0.23269  0.30616  0.84354  Biso   1.000  C
  C43      1.0000 0.73269  0.19384  0.34354  Biso   1.000  C
  C44      1.0000 0.23269  0.69384  0.34354  Biso   1.000  C
  C45      1.0000 0.26731  0.19384  0.15646  Biso   1.000  C
  C46      1.0000 0.76731  0.69384  0.15646  Biso   1.000  C
  C47      1.0000 0.26731  0.80616  0.65646  Biso   1.000  C
  C48      1.0000 0.76731  0.30616  0.65646  Biso   1.000  C
  C49      1.0000 0.54613  0.80842  0.42300  Biso   1.000  C
  C50      1.0000 0.04613  0.30842  0.42300  Biso   1.000  C
  C51      1.0000 0.54613  0.19158  0.92300  Biso   1.000  C
  C52      1.0000 0.04613  0.69158  0.92300  Biso   1.000  C
  C53      1.0000 0.45387  0.19158  0.57700  Biso   1.000  C
  C54      1.0000 0.95387  0.69158  0.57700  Biso   1.000  C
  C55      1.0000 0.45387  0.80842  0.07700  Biso   1.000  C
  C56      1.0000 0.95387  0.30842  0.07700  Biso   1.000  C
  H33      1.0000 0.47450  0.78190  0.41960  Biso   1.000  H
  H34      1.0000 0.97450  0.28190  0.41960  Biso   1.000  H
  H35      1.0000 0.47450  0.21810  0.91960  Biso   1.000  H
  H36      1.0000 0.97450  0.71810  0.91960  Biso   1.000  H
  H37      1.0000 0.52550  0.21810  0.58040  Biso   1.000  H
  H38      1.0000 0.02550  0.71810  0.58040  Biso   1.000  H
  H39      1.0000 0.52550  0.78190  0.08040  Biso   1.000  H
  H40      1.0000 0.02550  0.28190  0.08040  Biso   1.000  H
  C57      1.0000 0.69214  0.90579  0.44915  Biso   1.000  C
  C58      1.0000 0.19214  0.40579  0.44915  Biso   1.000  C
  C59      1.0000 0.69214  0.09421  0.94915  Biso   1.000  C
  C60      1.0000 0.19214  0.59421  0.94915  Biso   1.000  C
  C61      1.0000 0.30786  0.09421  0.55085  Biso   1.000  C
  C62      1.0000 0.80786  0.59421  0.55085  Biso   1.000  C
  C63      1.0000 0.30786  0.90579  0.05085  Biso   1.000  C
  C64      1.0000 0.80786  0.40579  0.05085  Biso   1.000  C
  H41      1.0000 0.74020  0.95990  0.46720  Biso   1.000  H
  H42      1.0000 0.24020  0.45990  0.46720  Biso   1.000  H
  H43      1.0000 0.74020  0.04010  0.96720  Biso   1.000  H
  H44      1.0000 0.24020  0.54010  0.96720  Biso   1.000  H
  H45      1.0000 0.25980  0.04010  0.53280  Biso   1.000  H
  H46      1.0000 0.75980  0.54010  0.53280  Biso   1.000  H
  H47      1.0000 0.25980  0.95990  0.03280  Biso   1.000  H
  H48      1.0000 0.75980  0.45990  0.03280  Biso   1.000  H
  C65      1.0000 0.71863  0.82443  0.41276  Biso   1.000  C
  C66      1.0000 0.21863  0.32443  0.41276  Biso   1.000  C
  C67      1.0000 0.71863  0.17557  0.91276  Biso   1.000  C
  C68      1.0000 0.21863  0.67557  0.91276  Biso   1.000  C
  C69      1.0000 0.28137  0.17557  0.58724  Biso   1.000  C
  C70      1.0000 0.78137  0.67557  0.58724  Biso   1.000  C
  C71      1.0000 0.28137  0.82443  0.08724  Biso   1.000  C
  C72      1.0000 0.78137  0.32443  0.08724  Biso   1.000  C
  H49      1.0000 0.78730  0.81230  0.40130  Biso   1.000  H
  H50      1.0000 0.28730  0.31230  0.40130  Biso   1.000  H
  H51      1.0000 0.78730  0.18770  0.90130  Biso   1.000  H
  H52      1.0000 0.28730  0.68770  0.90130  Biso   1.000  H
  H53      1.0000 0.21270  0.18770  0.59870  Biso   1.000  H
  H54      1.0000 0.71270  0.68770  0.59870  Biso   1.000  H
  H55      1.0000 0.21270  0.81230  0.09870  Biso   1.000  H
  H56      1.0000 0.71270  0.31230  0.09870  Biso   1.000  H
  C73      1.0000 0.61575  0.66588  0.35573  Biso   1.000  C
  C74      1.0000 0.11575  0.16588  0.35573  Biso   1.000  C
  C75      1.0000 0.61575  0.33412  0.85573  Biso   1.000  C
  C76      1.0000 0.11575  0.83412  0.85573  Biso   1.000  C
  C77      1.0000 0.38425  0.33412  0.64427  Biso   1.000  C
  C78      1.0000 0.88425  0.83412  0.64427  Biso   1.000  C
  C79      1.0000 0.38425  0.66588  0.14427  Biso   1.000  C
  C80      1.0000 0.88425  0.16588  0.14427  Biso   1.000  C
  H57      1.0000 0.56810  0.62270  0.37720  Biso   1.000  H
  H58      1.0000 0.06810  0.12270  0.37720  Biso   1.000  H
  H59      1.0000 0.56810  0.37730  0.87720  Biso   1.000  H
  H60      1.0000 0.06810  0.87730  0.87720  Biso   1.000  H
  H61      1.0000 0.43190  0.37730  0.62280  Biso   1.000  H
  H62      1.0000 0.93190  0.87730  0.62280  Biso   1.000  H
  H63      1.0000 0.43190  0.62270  0.12280  Biso   1.000  H
  H64      1.0000 0.93190  0.12270  0.12280  Biso   1.000  H
  H65      1.0000 0.69130  0.63610  0.36810  Biso   1.000  H
  H66      1.0000 0.19130  0.13610  0.36810  Biso   1.000  H
  H67      1.0000 0.69130  0.36390  0.86810  Biso   1.000  H
  H68      1.0000 0.19130  0.86390  0.86810  Biso   1.000  H
  H69      1.0000 0.30870  0.36390  0.63190  Biso   1.000  H
  H70      1.0000 0.80870  0.86390  0.63190  Biso   1.000  H
  H71      1.0000 0.30870  0.63610  0.13190  Biso   1.000  H
  H72      1.0000 0.80870  0.13610  0.13190  Biso   1.000  H
  C81      1.0000 0.56488  0.67216  0.26391  Biso   1.000  C
  C82      1.0000 0.06488  0.17216  0.26391  Biso   1.000  C
  C83      1.0000 0.56488  0.32784  0.76391  Biso   1.000  C
  C84      1.0000 0.06488  0.82784  0.76391  Biso   1.000  C
  C85      1.0000 0.43512  0.32784  0.73609  Biso   1.000  C
  C86      1.0000 0.93512  0.82784  0.73609  Biso   1.000  C
  C87      1.0000 0.43512  0.67216  0.23609  Biso   1.000  C
  C88      1.0000 0.93512  0.17216  0.23609  Biso   1.000  C
  H73      1.0000 0.59220  0.73240  0.24490  Biso   1.000  H
  H74      1.0000 0.09220  0.23240  0.24490  Biso   1.000  H
  H75      1.0000 0.59220  0.26760  0.74490  Biso   1.000  H
  H76      1.0000 0.09220  0.76760  0.74490  Biso   1.000  H
  H77      1.0000 0.40780  0.26760  0.75510  Biso   1.000  H
  H78      1.0000 0.90780  0.76760  0.75510  Biso   1.000  H
  H79      1.0000 0.40780  0.73240  0.25510  Biso   1.000  H
  H80      1.0000 0.90780  0.23240  0.25510  Biso   1.000  H
  H81      1.0000 0.59230  0.61620  0.23940  Biso   1.000  H
  H82      1.0000 0.09230  0.11620  0.23940  Biso   1.000  H
  H83      1.0000 0.59230  0.38380  0.73940  Biso   1.000  H
  H84      1.0000 0.09230  0.88380  0.73940  Biso   1.000  H
  H85      1.0000 0.40770  0.38380  0.76060  Biso   1.000  H
  H86      1.0000 0.90770  0.88380  0.76060  Biso   1.000  H
  H87      1.0000 0.40770  0.61620  0.26060  Biso   1.000  H
  H88      1.0000 0.90770  0.11620  0.26060  Biso   1.000  H
  N1       1.0000 0.56489  0.94084  0.61369  Biso   1.000  N
  N2       1.0000 0.06489  0.44084  0.61369  Biso   1.000  N
  N3       1.0000 0.56489  0.05916  0.11369  Biso   1.000  N
  N4       1.0000 0.06489  0.55916  0.11369  Biso   1.000  N
  N5       1.0000 0.43511  0.05916  0.38631  Biso   1.000  N
  N6       1.0000 0.93511  0.55916  0.38631  Biso   1.000  N
  N7       1.0000 0.43511  0.94084  0.88631  Biso   1.000  N
  N8       1.0000 0.93511  0.44084  0.88631  Biso   1.000  N
  N9       1.0000 0.58307  0.89622  0.45542  Biso   1.000  N
  N10      1.0000 0.08307  0.39622  0.45542  Biso   1.000  N
  N11      1.0000 0.58307  0.10378  0.95542  Biso   1.000  N
  N12      1.0000 0.08307  0.60378  0.95542  Biso   1.000  N
  N13      1.0000 0.41693  0.10378  0.54458  Biso   1.000  N
  N14      1.0000 0.91693  0.60378  0.54458  Biso   1.000  N
  N15      1.0000 0.41693  0.89622  0.04458  Biso   1.000  N
  N16      1.0000 0.91693  0.39622  0.04458  Biso   1.000  N
  N17      1.0000 0.62522  0.76303  0.39594  Biso   1.000  N
  N18      1.0000 0.12522  0.26303  0.39594  Biso   1.000  N
  N19      1.0000 0.62522  0.23697  0.89594  Biso   1.000  N
  N20      1.0000 0.12522  0.73697  0.89594  Biso   1.000  N
  N21      1.0000 0.37478  0.23697  0.60406  Biso   1.000  N
  N22      1.0000 0.87478  0.73697  0.60406  Biso   1.000  N
  N23      1.0000 0.37478  0.76303  0.10406  Biso   1.000  N
  N24      1.0000 0.87478  0.26303  0.10406  Biso   1.000  N
  O1       1.0000 0.74073  0.71311  0.84347  Biso   1.000  O
  O2       1.0000 0.24073  0.21311  0.84347  Biso   1.000  O
  O3       1.0000 0.74073  0.28689  0.34347  Biso   1.000  O
  O4       1.0000 0.24073  0.78689  0.34347  Biso   1.000  O
  O5       1.0000 0.25927  0.28689  0.15653  Biso   1.000  O
  O6       1.0000 0.75927  0.78689  0.15653  Biso   1.000  O
  O7       1.0000 0.25927  0.71311  0.65653  Biso   1.000  O
  O8       1.0000 0.75927  0.21311  0.65653  Biso   1.000  O
  O9       1.0000 0.77488  0.86206  0.90188  Biso   1.000  O
  O10      1.0000 0.27488  0.36206  0.90188  Biso   1.000  O
  O11      1.0000 0.77488  0.13794  0.40188  Biso   1.000  O
  O12      1.0000 0.27488  0.63794  0.40188  Biso   1.000  O
  O13      1.0000 0.22512  0.13794  0.09812  Biso   1.000  O
  O14      1.0000 0.72512  0.63794  0.09812  Biso   1.000  O
  O15      1.0000 0.22512  0.86206  0.59812  Biso   1.000  O
  O16      1.0000 0.72512  0.36206  0.59812  Biso   1.000  O
  O17      1.0000 0.65861  0.11406  0.51891  Biso   1.000  O
  O18      1.0000 0.15861  0.61406  0.51891  Biso   1.000  O
  O19      1.0000 0.65861  0.88594  0.01891  Biso   1.000  O
  O20      1.0000 0.15861  0.38594  0.01891  Biso   1.000  O
  O21      1.0000 0.34139  0.88594  0.48109  Biso   1.000  O
  O22      1.0000 0.84139  0.38594  0.48109  Biso   1.000  O
  O23      1.0000 0.34139  0.11406  0.98109  Biso   1.000  O
  O24      1.0000 0.84139  0.61406  0.98109  Biso   1.000  O
  O25      1.0000 0.56857  0.57144  0.82937  Biso   1.000  O
  O26      1.0000 0.06857  0.07144  0.82937  Biso   1.000  O
  O27      1.0000 0.56857  0.42856  0.32937  Biso   1.000  O
  O28      1.0000 0.06857  0.92856  0.32937  Biso   1.000  O
  O29      1.0000 0.43143  0.42856  0.17063  Biso   1.000  O
  O30      1.0000 0.93143  0.92856  0.17063  Biso   1.000  O
  O31      1.0000 0.43143  0.57144  0.67063  Biso   1.000  O
  O32      1.0000 0.93143  0.07144  0.67063  Biso   1.000  O
  O33      1.0000 0.97959  0.90432  0.02390  Biso   1.000  O
  O34      1.0000 0.47959  0.40432  0.02390  Biso   1.000  O
  O35      1.0000 0.97959  0.09568  0.52390  Biso   1.000  O
  O36      1.0000 0.47959  0.59568  0.52390  Biso   1.000  O
  O37      1.0000 0.02041  0.09568  0.97610  Biso   1.000  O
  O38      1.0000 0.52041  0.59568  0.97610  Biso   1.000  O
  O39      1.0000 0.02041  0.90432  0.47610  Biso   1.000  O
  O40      1.0000 0.52041  0.40432  0.47610  Biso   1.000  O
  Cu1      1.0000 0.50000  0.00000  0.50000  Biso   1.000  Cu
  Cu2      1.0000 0.00000  0.50000  0.50000  Biso   1.000  Cu
  Cu3      1.0000 0.50000  0.00000  0.00000  Biso   1.000  Cu
  Cu4      1.0000 0.00000  0.50000  0.00000  Biso   1.000  Cu
  H89      1.0000 0.69140  0.15050  0.55880  Biso   1.000  H
  H90      1.0000 0.19140  0.65050  0.55880  Biso   1.000  H
  H91      1.0000 0.69140  0.84950  0.05880  Biso   1.000  H
  H92      1.0000 0.19140  0.34950  0.05880  Biso   1.000  H
  H93      1.0000 0.30860  0.84950  0.44120  Biso   1.000  H
  H94      1.0000 0.80860  0.34950  0.44120  Biso   1.000  H
  H95      1.0000 0.30860  0.15050  0.94120  Biso   1.000  H
  H96      1.0000 0.80860  0.65050  0.94120  Biso   1.000  H
  H97      1.0000 0.69260  0.12770  0.48550  Biso   1.000  H
  H98      1.0000 0.19260  0.62770  0.48550  Biso   1.000  H
  H99      1.0000 0.69260  0.87230  0.98550  Biso   1.000  H
  H100     1.0000 0.19260  0.37230  0.98550  Biso   1.000  H
  H101     1.0000 0.30740  0.87230  0.51450  Biso   1.000  H
  H102     1.0000 0.80740  0.37230  0.51450  Biso   1.000  H
  H103     1.0000 0.30740  0.12770  0.01450  Biso   1.000  H
  H104     1.0000 0.80740  0.62770  0.01450  Biso   1.000  H
  H105     1.0000 0.62780  0.61040  0.83420  Biso   1.000  H
  H106     1.0000 0.12780  0.11040  0.83420  Biso   1.000  H
  H107     1.0000 0.62780  0.38960  0.33420  Biso   1.000  H
  H108     1.0000 0.12780  0.88960  0.33420  Biso   1.000  H
  H109     1.0000 0.37220  0.38960  0.16580  Biso   1.000  H
  H110     1.0000 0.87220  0.88960  0.16580  Biso   1.000  H
  H111     1.0000 0.37220  0.61040  0.66580  Biso   1.000  H
  H112     1.0000 0.87220  0.11040  0.66580  Biso   1.000  H
  H113     1.0000 0.91290  0.88630  0.98560  Biso   1.000  H
  H114     1.0000 0.41290  0.38630  0.98560  Biso   1.000  H
  H115     1.0000 0.91290  0.11370  0.48560  Biso   1.000  H
  H116     1.0000 0.41290  0.61370  0.48560  Biso   1.000  H
  H117     1.0000 0.08710  0.11370  0.01440  Biso   1.000  H
  H118     1.0000 0.58710  0.61370  0.01440  Biso   1.000  H
  H119     1.0000 0.08710  0.88630  0.51440  Biso   1.000  H
  H120     1.0000 0.58710  0.38630  0.51440  Biso   1.000  H
  H121     1.0000 0.97040  0.91720  0.07210  Biso   1.000  H
  H122     1.0000 0.47040  0.41720  0.07210  Biso   1.000  H
  H123     1.0000 0.97040  0.08280  0.57210  Biso   1.000  H
  H124     1.0000 0.47040  0.58280  0.57210  Biso   1.000  H
  H125     1.0000 0.02960  0.08280  0.92790  Biso   1.000  H
  H126     1.0000 0.52960  0.58280  0.92790  Biso   1.000  H
  H127     1.0000 0.02960  0.91720  0.42790  Biso   1.000  H
  H128     1.0000 0.52960  0.41720  0.42790  Biso   1.000  H
  H129     1.0000 0.50810  0.56710  0.79650  Biso   1.000  H
  H130     1.0000 0.00810  0.06710  0.79650  Biso   1.000  H
  H131     1.0000 0.50810  0.43290  0.29650  Biso   1.000  H
  H132     1.0000 0.00810  0.93290  0.29650  Biso   1.000  H
  H133     1.0000 0.49190  0.43290  0.20350  Biso   1.000  H
  H134     1.0000 0.99190  0.93290  0.20350  Biso   1.000  H
  H135     1.0000 0.49190  0.56710  0.70350  Biso   1.000  H
  H136     1.0000 0.99190  0.06710  0.70350  Biso   1.000  H
