data_image0
_cell_length_a       10.919
_cell_length_b       11.844
_cell_length_c       12.724
_cell_angle_alpha    82.09
_cell_angle_beta     68.51
_cell_angle_gamma    73.85

_symmetry_space_group_name_H-M    "P 1"
_symmetry_int_tables_number       1

loop_
  _symmetry_equiv_pos_as_xyz
  'x, y, z'

loop_
  _atom_site_label
  _atom_site_occupancy
  _atom_site_fract_x
  _atom_site_fract_y
  _atom_site_fract_z
  _atom_site_thermal_displace_type
  _atom_site_B_iso_or_equiv
  _atom_site_type_symbol
  C1       1.0000 0.90530  0.32680  0.98187  Biso   1.000  C
  C2       1.0000 0.09470  0.67320  0.01813  Biso   1.000  C
  H1       1.0000 0.81430  0.32570  0.00560  Biso   1.000  H
  H2       1.0000 0.18570  0.67430  0.99440  Biso   1.000  H
  C3       1.0000 0.11580  0.31280  0.87930  Biso   1.000  C
  C4       1.0000 0.88420  0.68720  0.12070  Biso   1.000  C
  H3       1.0000 0.19690  0.30060  0.81820  Biso   1.000  H
  H4       1.0000 0.80310  0.69940  0.18180  Biso   1.000  H
  C5       1.0000 0.09970  0.34300  0.98340  Biso   1.000  C
  C6       1.0000 0.90030  0.65700  0.01660  Biso   1.000  C
  H5       1.0000 0.16630  0.35480  0.00680  Biso   1.000  H
  H6       1.0000 0.83370  0.64520  0.99320  Biso   1.000  H
  C7       1.0000 0.89730  0.38150  0.16730  Biso   1.000  C
  C8       1.0000 0.10270  0.61850  0.83270  Biso   1.000  C
  H7       1.0000 0.80490  0.42690  0.17900  Biso   1.000  H
  H8       1.0000 0.19510  0.57310  0.82100  Biso   1.000  H
  H9       1.0000 0.94410  0.42980  0.18650  Biso   1.000  H
  H10      1.0000 0.05590  0.57020  0.81350  Biso   1.000  H
  C9       1.0000 0.89490  0.27200  0.24529  Biso   1.000  C
  C10      1.0000 0.10510  0.72800  0.75471  Biso   1.000  C
  H11      1.0000 0.83330  0.29460  0.32060  Biso   1.000  H
  H12      1.0000 0.16670  0.70540  0.67940  Biso   1.000  H
  H13      1.0000 0.85930  0.21910  0.21920  Biso   1.000  H
  H14      1.0000 0.14070  0.78090  0.78080  Biso   1.000  H
  C11      1.0000 0.03260  0.20620  0.25224  Biso   1.000  C
  C12      1.0000 0.96740  0.79380  0.74776  Biso   1.000  C
  H15      1.0000 0.07190  0.26060  0.27220  Biso   1.000  H
  H16      1.0000 0.92810  0.73940  0.72780  Biso   1.000  H
  H17      1.0000 0.09220  0.17750  0.17830  Biso   1.000  H
  H18      1.0000 0.90780  0.82250  0.82170  Biso   1.000  H
  C13      1.0000 0.02690  0.10300  0.33780  Biso   1.000  C
  C14      1.0000 0.97310  0.89700  0.66220  Biso   1.000  C
  H19      1.0000 0.98170  0.05120  0.32150  Biso   1.000  H
  H20      1.0000 0.01830  0.94880  0.67850  Biso   1.000  H
  H21      1.0000 0.11860  0.05880  0.33060  Biso   1.000  H
  H22      1.0000 0.88140  0.94120  0.66940  Biso   1.000  H
  C15      1.0000 0.01090  0.16946  0.52265  Biso   1.000  C
  C16      1.0000 0.98910  0.83054  0.47735  Biso   1.000  C
  H23      1.0000 0.10320  0.16400  0.50260  Biso   1.000  H
  H24      1.0000 0.89680  0.83600  0.49740  Biso   1.000  H
  C17      1.0000 0.79580  0.20030  0.61670  Biso   1.000  C
  C18      1.0000 0.20420  0.79970  0.38330  Biso   1.000  C
  H25      1.0000 0.71220  0.22050  0.67430  Biso   1.000  H
  H26      1.0000 0.28780  0.77950  0.32570  Biso   1.000  H
  C19      1.0000 0.81680  0.16090  0.51430  Biso   1.000  C
  C20      1.0000 0.18320  0.83910  0.48570  Biso   1.000  C
  H27      1.0000 0.75130  0.14920  0.48940  Biso   1.000  H
  H28      1.0000 0.24870  0.85080  0.51060  Biso   1.000  H
  C21      1.0000 0.18960  0.34400  0.58470  Biso   1.000  C
  C22      1.0000 0.81040  0.65600  0.41530  Biso   1.000  C
  H29      1.0000 0.24840  0.26950  0.57860  Biso   1.000  H
  H30      1.0000 0.75160  0.73050  0.42140  Biso   1.000  H
  C23      1.0000 0.00930  0.48660  0.63310  Biso   1.000  C
  C24      1.0000 0.99070  0.51340  0.36690  Biso   1.000  C
  H31      1.0000 0.91980  0.52840  0.66650  Biso   1.000  H
  H32      1.0000 0.08020  0.47160  0.33350  Biso   1.000  H
  C25      1.0000 0.11290  0.53320  0.56330  Biso   1.000  C
  C26      1.0000 0.88710  0.46680  0.43670  Biso   1.000  C
  H33      1.0000 0.10750  0.61200  0.54080  Biso   1.000  H
  H34      1.0000 0.89250  0.38800  0.45920  Biso   1.000  H
  C27      1.0000 0.36520  0.45030  0.46550  Biso   1.000  C
  C28      1.0000 0.63480  0.54970  0.53450  Biso   1.000  C
  H35      1.0000 0.36460  0.49930  0.39800  Biso   1.000  H
  H36      1.0000 0.63540  0.50070  0.60200  Biso   1.000  H
  H37      1.0000 0.42160  0.37260  0.44220  Biso   1.000  H
  H38      1.0000 0.57840  0.62740  0.55780  Biso   1.000  H
  C29      1.0000 0.42540  0.50200  0.53240  Biso   1.000  C
  C30      1.0000 0.57460  0.49800  0.46760  Biso   1.000  C
  H39      1.0000 0.41670  0.45810  0.60390  Biso   1.000  H
  H40      1.0000 0.58330  0.54190  0.39610  Biso   1.000  H
  H41      1.0000 0.37500  0.58290  0.54850  Biso   1.000  H
  H42      1.0000 0.62500  0.41710  0.45150  Biso   1.000  H
  C31      1.0000 0.71840  0.17010  0.92380  Biso   1.000  C
  C32      1.0000 0.28160  0.82990  0.07620  Biso   1.000  C
  H43      1.0000 0.65240  0.23440  0.91180  Biso   1.000  H
  H44      1.0000 0.34760  0.76560  0.08820  Biso   1.000  H
  C33      1.0000 0.91150  0.04540  0.90740  Biso   1.000  C
  C34      1.0000 0.08850  0.95460  0.09260  Biso   1.000  C
  H45      1.0000 0.00370  0.00870  0.88120  Biso   1.000  H
  H46      1.0000 0.99630  0.99130  0.11880  Biso   1.000  H
  C35      1.0000 0.81590  0.00720  0.99700  Biso   1.000  C
  C36      1.0000 0.18410  0.99280  0.00300  Biso   1.000  C
  H47      1.0000 0.83010  0.94000  0.04270  Biso   1.000  H
  H48      1.0000 0.16990  0.06000  0.95730  Biso   1.000  H
  C37      1.0000 0.56060  0.07930  0.08920  Biso   1.000  C
  C38      1.0000 0.43940  0.92070  0.91080  Biso   1.000  C
  H49      1.0000 0.49660  0.15540  0.09300  Biso   1.000  H
  H50      1.0000 0.50340  0.84460  0.90700  Biso   1.000  H
  H51      1.0000 0.56790  0.05830  0.16350  Biso   1.000  H
  H52      1.0000 0.43210  0.94170  0.83650  Biso   1.000  H
  C39      1.0000 0.50790  0.98780  0.05660  Biso   1.000  C
  C40      1.0000 0.49210  0.01220  0.94340  Biso   1.000  C
  H53      1.0000 0.57000  0.91130  0.05700  Biso   1.000  H
  H54      1.0000 0.43000  0.08870  0.94300  Biso   1.000  H
  H55      1.0000 0.42050  0.98430  0.11330  Biso   1.000  H
  H56      1.0000 0.57950  0.01570  0.88670  Biso   1.000  H
  N1       1.0000 0.99410  0.30277  0.87789  Biso   1.000  N
  N2       1.0000 0.00590  0.69723  0.12211  Biso   1.000  N
  N3       1.0000 0.96550  0.35258  0.04746  Biso   1.000  N
  N4       1.0000 0.03450  0.64742  0.95254  Biso   1.000  N
  N5       1.0000 0.95370  0.14180  0.45507  Biso   1.000  N
  N6       1.0000 0.04630  0.85820  0.54493  Biso   1.000  N
  N7       1.0000 0.91878  0.20535  0.62104  Biso   1.000  N
  N8       1.0000 0.08122  0.79465  0.37896  Biso   1.000  N
  N9       1.0000 0.05900  0.36701  0.64607  Biso   1.000  N
  N10      1.0000 0.94100  0.63299  0.35393  Biso   1.000  N
  N11      1.0000 0.22690  0.44188  0.53228  Biso   1.000  N
  N12      1.0000 0.77310  0.55812  0.46772  Biso   1.000  N
  N13      1.0000 0.84913  0.14810  0.86134  Biso   1.000  N
  N14      1.0000 0.15087  0.85190  0.13866  Biso   1.000  N
  N15      1.0000 0.69400  0.08704  0.00695  Biso   1.000  N
  N16      1.0000 0.30600  0.91296  0.99305  Biso   1.000  N
  O1       1.0000 0.74590  0.40999  0.78781  Biso   1.000  O
  O2       1.0000 0.25410  0.59001  0.21219  Biso   1.000  O
  O3       1.0000 0.57510  0.35255  0.15320  Biso   1.000  O
  O4       1.0000 0.42490  0.64745  0.84680  Biso   1.000  O
  O5       1.0000 0.57200  0.19050  0.33580  Biso   1.000  O
  O6       1.0000 0.42800  0.80950  0.66420  Biso   1.000  O
  O7       1.0000 0.51970  0.85280  0.32720  Biso   1.000  O
  O8       1.0000 0.48030  0.14720  0.67280  Biso   1.000  O
  O9       1.0000 0.36100  0.07110  0.42410  Biso   1.000  O
  O10      1.0000 0.63900  0.92890  0.57590  Biso   1.000  O
  O11      1.0000 0.64970  0.60910  0.91650  Biso   1.000  O
  O12      1.0000 0.35030  0.39090  0.08350  Biso   1.000  O
  Cl1      1.0000 0.54377  0.62904  0.18493  Biso   1.000  Cl
  Cl2      1.0000 0.45623  0.37096  0.81507  Biso   1.000  Cl
  Cl3      1.0000 0.21789  0.06222  0.69441  Biso   1.000  Cl
  Cl4      1.0000 0.78211  0.93778  0.30559  Biso   1.000  Cl
  Cu1      1.0000 0.95152  0.25754  0.75054  Biso   1.000  Cu
  Cu2      1.0000 0.04848  0.74246  0.24946  Biso   1.000  Cu
  H57      1.0000 0.73000  0.45100  0.82500  Biso   1.000  H
  H58      1.0000 0.27000  0.54900  0.17500  Biso   1.000  H
  H59      1.0000 0.68100  0.40200  0.78700  Biso   1.000  H
  H60      1.0000 0.31900  0.59800  0.21300  Biso   1.000  H
  H61      1.0000 0.56800  0.31400  0.21800  Biso   1.000  H
  H62      1.0000 0.43200  0.68600  0.78200  Biso   1.000  H
  H63      1.0000 0.57000  0.42400  0.17300  Biso   1.000  H
  H64      1.0000 0.43000  0.57600  0.82700  Biso   1.000  H
  H65      1.0000 0.63500  0.13600  0.32100  Biso   1.000  H
  H66      1.0000 0.36500  0.86400  0.67900  Biso   1.000  H
  H67      1.0000 0.51300  0.16800  0.36400  Biso   1.000  H
  H68      1.0000 0.48700  0.83200  0.63600  Biso   1.000  H
  H69      1.0000 0.58800  0.87100  0.30700  Biso   1.000  H
  H70      1.0000 0.41200  0.12900  0.69300  Biso   1.000  H
  H71      1.0000 0.53500  0.80500  0.27800  Biso   1.000  H
  H72      1.0000 0.46500  0.19500  0.72200  Biso   1.000  H
  H73      1.0000 0.39100  0.01400  0.40500  Biso   1.000  H
  H74      1.0000 0.60900  0.98600  0.59500  Biso   1.000  H
  H75      1.0000 0.33900  0.05700  0.49700  Biso   1.000  H
  H76      1.0000 0.66100  0.94300  0.50300  Biso   1.000  H
  H77      1.0000 0.61600  0.60600  0.98700  Biso   1.000  H
  H78      1.0000 0.38400  0.39400  0.01300  Biso   1.000  H
  H79      1.0000 0.58300  0.62800  0.90400  Biso   1.000  H
  H80      1.0000 0.41700  0.37200  0.09600  Biso   1.000  H
