data_image0
_cell_length_a       8.1383
_cell_length_b       11.648
_cell_length_c       16.78
_cell_angle_alpha    73.49
_cell_angle_beta     88.78
_cell_angle_gamma    82.06

_symmetry_space_group_name_H-M    "P 1"
_symmetry_int_tables_number       1

loop_
  _symmetry_equiv_pos_as_xyz
  'x, y, z'

loop_
  _atom_site_label
  _atom_site_occupancy
  _atom_site_fract_x
  _atom_site_fract_y
  _atom_site_fract_z
  _atom_site_thermal_displace_type
  _atom_site_B_iso_or_equiv
  _atom_site_type_symbol
  C1       1.0000 0.27100  0.62720  0.03540  Biso   1.000  C
  C2       1.0000 0.72900  0.37280  0.96460  Biso   1.000  C
  H1       1.0000 0.21020  0.70240  0.01070  Biso   1.000  H
  H2       1.0000 0.78980  0.29760  0.98930  Biso   1.000  H
  C3       1.0000 0.34400  0.43530  0.07930  Biso   1.000  C
  C4       1.0000 0.65600  0.56470  0.92070  Biso   1.000  C
  H3       1.0000 0.34210  0.35250  0.09090  Biso   1.000  H
  H4       1.0000 0.65790  0.64750  0.90910  Biso   1.000  H
  C5       1.0000 0.47100  0.48910  0.09900  Biso   1.000  C
  C6       1.0000 0.52900  0.51090  0.90100  Biso   1.000  C
  H5       1.0000 0.57090  0.45050  0.12600  Biso   1.000  H
  H6       1.0000 0.42910  0.54950  0.87400  Biso   1.000  H
  C7       1.0000 0.51100  0.70600  0.08230  Biso   1.000  C
  C8       1.0000 0.48900  0.29400  0.91770  Biso   1.000  C
  H7       1.0000 0.46920  0.78220  0.04250  Biso   1.000  H
  H8       1.0000 0.53080  0.21780  0.95750  Biso   1.000  H
  H9       1.0000 0.62750  0.68650  0.07180  Biso   1.000  H
  H10      1.0000 0.37250  0.31350  0.92820  Biso   1.000  H
  C9       1.0000 0.49200  0.71870  0.17010  Biso   1.000  C
  C10      1.0000 0.50800  0.28130  0.82990  Biso   1.000  C
  H11      1.0000 0.37610  0.74380  0.17950  Biso   1.000  H
  H12      1.0000 0.62390  0.25620  0.82050  Biso   1.000  H
  H13      1.0000 0.52650  0.64120  0.21020  Biso   1.000  H
  H14      1.0000 0.47350  0.35880  0.78980  Biso   1.000  H
  C11      1.0000 0.59600  0.81100  0.18260  Biso   1.000  C
  C12      1.0000 0.40400  0.18900  0.81740  Biso   1.000  C
  H15      1.0000 0.56320  0.88760  0.14060  Biso   1.000  H
  H16      1.0000 0.43680  0.11240  0.85940  Biso   1.000  H
  H17      1.0000 0.71140  0.78470  0.17390  Biso   1.000  H
  H18      1.0000 0.28860  0.21530  0.82610  Biso   1.000  H
  C13      1.0000 0.58100  0.83300  0.26820  Biso   1.000  C
  C14      1.0000 0.41900  0.16700  0.73180  Biso   1.000  C
  H19      1.0000 0.64470  0.89650  0.27000  Biso   1.000  H
  H20      1.0000 0.35530  0.10350  0.73000  Biso   1.000  H
  H21      1.0000 0.46540  0.85970  0.27750  Biso   1.000  H
  H22      1.0000 0.53460  0.14030  0.72250  Biso   1.000  H
  C15      1.0000 0.79700  0.68700  0.36170  Biso   1.000  C
  C16      1.0000 0.20300  0.31300  0.63830  Biso   1.000  C
  H23      1.0000 0.88560  0.72920  0.34110  Biso   1.000  H
  H24      1.0000 0.11440  0.27080  0.65890  Biso   1.000  H
  C17      1.0000 0.65400  0.55300  0.43260  Biso   1.000  C
  C18      1.0000 0.34600  0.44700  0.56740  Biso   1.000  C
  H25      1.0000 0.62550  0.48400  0.47080  Biso   1.000  H
  H26      1.0000 0.37450  0.51600  0.52920  Biso   1.000  H
  C19      1.0000 0.54700  0.63800  0.37940  Biso   1.000  C
  C20      1.0000 0.45300  0.36200  0.62060  Biso   1.000  C
  H27      1.0000 0.43370  0.63900  0.37430  Biso   1.000  H
  H28      1.0000 0.56630  0.36100  0.62570  Biso   1.000  H
  C21      1.0000 0.09500  0.66000  0.83040  Biso   1.000  C
  C22      1.0000 0.90500  0.34000  0.16960  Biso   1.000  C
  H29      1.0000 0.07990  0.73050  0.84650  Biso   1.000  H
  H30      1.0000 0.92010  0.26950  0.15350  Biso   1.000  H
  C23      1.0000 0.10600  0.47500  0.83080  Biso   1.000  C
  C24      1.0000 0.89400  0.52500  0.16920  Biso   1.000  C
  H31      1.0000 0.09840  0.39260  0.84800  Biso   1.000  H
  H32      1.0000 0.90160  0.60740  0.15200  Biso   1.000  H
  C25      1.0000 0.15300  0.53700  0.75440  Biso   1.000  C
  C26      1.0000 0.84700  0.46300  0.24560  Biso   1.000  C
  H33      1.0000 0.18360  0.50530  0.71040  Biso   1.000  H
  H34      1.0000 0.81640  0.49470  0.28960  Biso   1.000  H
  C27      1.0000 0.17500  0.75400  0.68150  Biso   1.000  C
  C28      1.0000 0.82500  0.24600  0.31850  Biso   1.000  C
  H35      1.0000 0.14790  0.82980  0.69550  Biso   1.000  H
  H36      1.0000 0.85210  0.17020  0.30450  Biso   1.000  H
  H37      1.0000 0.10110  0.75630  0.63620  Biso   1.000  H
  H38      1.0000 0.89890  0.24370  0.36380  Biso   1.000  H
  C29      1.0000 0.35500  0.74300  0.65230  Biso   1.000  C
  C30      1.0000 0.64500  0.25700  0.34770  Biso   1.000  C
  H39      1.0000 0.38730  0.66210  0.64760  Biso   1.000  H
  H40      1.0000 0.61270  0.33790  0.35240  Biso   1.000  H
  H41      1.0000 0.36070  0.79930  0.59750  Biso   1.000  H
  H42      1.0000 0.63930  0.20070  0.40250  Biso   1.000  H
  C31      1.0000 0.47600  0.76800  0.70980  Biso   1.000  C
  C32      1.0000 0.52400  0.23200  0.29020  Biso   1.000  C
  H43      1.0000 0.47840  0.70660  0.76270  Biso   1.000  H
  H44      1.0000 0.52160  0.29340  0.23730  Biso   1.000  H
  H45      1.0000 0.43550  0.84540  0.71970  Biso   1.000  H
  H46      1.0000 0.56450  0.15460  0.28030  Biso   1.000  H
  C33      1.0000 0.65100  0.77200  0.67750  Biso   1.000  C
  C34      1.0000 0.34900  0.22800  0.32250  Biso   1.000  C
  H47      1.0000 0.64970  0.83870  0.62740  Biso   1.000  H
  H48      1.0000 0.35030  0.16130  0.37260  Biso   1.000  H
  H49      1.0000 0.72020  0.78710  0.71860  Biso   1.000  H
  H50      1.0000 0.27980  0.21290  0.28140  Biso   1.000  H
  C35      1.0000 0.80300  0.65500  0.58810  Biso   1.000  C
  C36      1.0000 0.19700  0.34500  0.41190  Biso   1.000  C
  H51      1.0000 0.81280  0.72260  0.54320  Biso   1.000  H
  H52      1.0000 0.18720  0.27740  0.45680  Biso   1.000  H
  C37      1.0000 0.82300  0.47300  0.66650  Biso   1.000  C
  C38      1.0000 0.17700  0.52700  0.33350  Biso   1.000  C
  H53      1.0000 0.85040  0.38920  0.68580  Biso   1.000  H
  H54      1.0000 0.14960  0.61080  0.31420  Biso   1.000  H
  C39      1.0000 0.73700  0.54300  0.70920  Biso   1.000  C
  C40      1.0000 0.26300  0.45700  0.29080  Biso   1.000  C
  H55      1.0000 0.69470  0.51800  0.76220  Biso   1.000  H
  H56      1.0000 0.30530  0.48200  0.23780  Biso   1.000  H
  N1       1.0000 0.21900  0.52360  0.03960  Biso   1.000  N
  N2       1.0000 0.78100  0.47640  0.96040  Biso   1.000  N
  N3       1.0000 0.42100  0.61150  0.07070  Biso   1.000  N
  N4       1.0000 0.57900  0.38850  0.92930  Biso   1.000  N
  N5       1.0000 0.64000  0.72290  0.33470  Biso   1.000  N
  N6       1.0000 0.36000  0.27710  0.66530  Biso   1.000  N
  N7       1.0000 0.81100  0.58390  0.42150  Biso   1.000  N
  N8       1.0000 0.18900  0.41610  0.57850  Biso   1.000  N
  N9       1.0000 0.07100  0.55260  0.87900  Biso   1.000  N
  N10      1.0000 0.92900  0.44740  0.12100  Biso   1.000  N
  N11      1.0000 0.14500  0.65330  0.75440  Biso   1.000  N
  N12      1.0000 0.85500  0.34670  0.24560  Biso   1.000  N
  N13      1.0000 0.72500  0.65940  0.65880  Biso   1.000  N
  N14      1.0000 0.27500  0.34060  0.34120  Biso   1.000  N
  N15      1.0000 0.86400  0.54360  0.59070  Biso   1.000  N
  N16      1.0000 0.13600  0.45640  0.40930  Biso   1.000  N
  O1       1.0000 0.06100  0.95840  0.79120  Biso   1.000  O
  O2       1.0000 0.93900  0.04160  0.20880  Biso   1.000  O
  O3       1.0000 0.79500  0.00790  0.72300  Biso   1.000  O
  O4       1.0000 0.20500  0.99210  0.27700  Biso   1.000  O
  O5       1.0000 0.03300  0.07640  0.64690  Biso   1.000  O
  O6       1.0000 0.96700  0.92360  0.35310  Biso   1.000  O
  O7       1.0000 0.92800  0.16440  0.75390  Biso   1.000  O
  O8       1.0000 0.07200  0.83560  0.24610  Biso   1.000  O
  O9       1.0000 0.09800  0.28530  0.01510  Biso   1.000  O
  O10      1.0000 0.90200  0.71470  0.98490  Biso   1.000  O
  O11      1.0000 0.99600  0.15270  0.91070  Biso   1.000  O
  O12      1.0000 0.00400  0.84730  0.08930  Biso   1.000  O
  O13      1.0000 0.34600  0.88260  0.88380  Biso   1.000  O
  O14      1.0000 0.65400  0.11740  0.11620  Biso   1.000  O
  O15      1.0000 0.68200  0.88700  0.87400  Biso   1.000  O
  O16      1.0000 0.31800  0.11300  0.12600  Biso   1.000  O
  O17      1.0000 0.24500  0.98400  0.01410  Biso   1.000  O
  O18      1.0000 0.75500  0.01600  0.98590  Biso   1.000  O
  O19      1.0000 0.65000  0.08800  0.55990  Biso   1.000  O
  O20      1.0000 0.35000  0.91200  0.44010  Biso   1.000  O
  O21      1.0000 0.31100  0.06600  0.54900  Biso   1.000  O
  O22      1.0000 0.68900  0.93400  0.45100  Biso   1.000  O
  O23      1.0000 0.12700  0.71190  0.46630  Biso   1.000  O
  O24      1.0000 0.87300  0.28810  0.53370  Biso   1.000  O
  S1       1.0000 0.95560  0.05130  0.72950  Biso   1.000  S
  S2       1.0000 0.04440  0.94870  0.27050  Biso   1.000  S
  Cu1      1.0000 0.00000  0.50000  0.00000  Biso   1.000  Cu
  Cu2      1.0000 0.00000  0.50000  0.50000  Biso   1.000  Cu
  H57      1.0000 0.15000  0.24000  0.05000  Biso   1.000  H
  H58      1.0000 0.85000  0.76000  0.95000  Biso   1.000  H
  H59      1.0000 0.07000  0.25000  0.98300  Biso   1.000  H
  H60      1.0000 0.93000  0.75000  0.01700  Biso   1.000  H
  H61      1.0000 0.08000  0.11000  0.92000  Biso   1.000  H
  H62      1.0000 0.92000  0.89000  0.08000  Biso   1.000  H
  H63      1.0000 0.99000  0.16000  0.86000  Biso   1.000  H
  H64      1.0000 0.01000  0.84000  0.14000  Biso   1.000  H
  H65      1.0000 0.32000  0.91000  0.92200  Biso   1.000  H
  H66      1.0000 0.68000  0.09000  0.07800  Biso   1.000  H
  H67      1.0000 0.28000  0.89000  0.85000  Biso   1.000  H
  H68      1.0000 0.72000  0.11000  0.15000  Biso   1.000  H
  H69      1.0000 0.57000  0.88000  0.86000  Biso   1.000  H
  H70      1.0000 0.43000  0.12000  0.14000  Biso   1.000  H
  H71      1.0000 0.71000  0.93000  0.82200  Biso   1.000  H
  H72      1.0000 0.29000  0.07000  0.17800  Biso   1.000  H
  H73      1.0000 0.28000  0.03000  0.05000  Biso   1.000  H
  H74      1.0000 0.72000  0.97000  0.95000  Biso   1.000  H
  H75      1.0000 0.17000  0.94000  0.04200  Biso   1.000  H
  H76      1.0000 0.83000  0.06000  0.95800  Biso   1.000  H
  H77      1.0000 0.70000  0.05000  0.60800  Biso   1.000  H
  H78      1.0000 0.30000  0.95000  0.39200  Biso   1.000  H
  H79      1.0000 0.55000  0.06000  0.56000  Biso   1.000  H
  H80      1.0000 0.45000  0.94000  0.44000  Biso   1.000  H
  H81      1.0000 0.22000  0.06000  0.58000  Biso   1.000  H
  H82      1.0000 0.78000  0.94000  0.42000  Biso   1.000  H
  H83      1.0000 0.29000  0.02000  0.52000  Biso   1.000  H
  H84      1.0000 0.71000  0.98000  0.48000  Biso   1.000  H
  H85      1.0000 0.06000  0.78000  0.44200  Biso   1.000  H
  H86      1.0000 0.94000  0.22000  0.55800  Biso   1.000  H
  H87      1.0000 0.20000  0.75000  0.48000  Biso   1.000  H
  H88      1.0000 0.80000  0.25000  0.52000  Biso   1.000  H
