data_image0
_cell_length_a       20.509
_cell_length_b       9.3405
_cell_length_c       15.239
_cell_angle_alpha    90
_cell_angle_beta     101.27
_cell_angle_gamma    90

_symmetry_space_group_name_H-M    "P 1"
_symmetry_int_tables_number       1

loop_
  _symmetry_equiv_pos_as_xyz
  'x, y, z'

loop_
  _atom_site_label
  _atom_site_occupancy
  _atom_site_fract_x
  _atom_site_fract_y
  _atom_site_fract_z
  _atom_site_thermal_displace_type
  _atom_site_B_iso_or_equiv
  _atom_site_type_symbol
  C1       1.0000 0.08936  0.24130  0.89605  Biso   1.000  C
  C2       1.0000 0.58936  0.74130  0.89605  Biso   1.000  C
  C3       1.0000 0.08936  0.75870  0.39605  Biso   1.000  C
  C4       1.0000 0.58936  0.25870  0.39605  Biso   1.000  C
  C5       1.0000 0.91064  0.75870  0.10395  Biso   1.000  C
  C6       1.0000 0.41064  0.25870  0.10395  Biso   1.000  C
  C7       1.0000 0.91064  0.24130  0.60395  Biso   1.000  C
  C8       1.0000 0.41064  0.74130  0.60395  Biso   1.000  C
  H1       1.0000 0.09360  0.31760  0.85840  Biso   1.000  H
  H2       1.0000 0.59360  0.81760  0.85840  Biso   1.000  H
  H3       1.0000 0.09360  0.68240  0.35840  Biso   1.000  H
  H4       1.0000 0.59360  0.18240  0.35840  Biso   1.000  H
  H5       1.0000 0.90640  0.68240  0.14160  Biso   1.000  H
  H6       1.0000 0.40640  0.18240  0.14160  Biso   1.000  H
  H7       1.0000 0.90640  0.31760  0.64160  Biso   1.000  H
  H8       1.0000 0.40640  0.81760  0.64160  Biso   1.000  H
  C9       1.0000 0.06037  0.04140  0.94589  Biso   1.000  C
  C10      1.0000 0.56037  0.54140  0.94589  Biso   1.000  C
  C11      1.0000 0.06037  0.95860  0.44589  Biso   1.000  C
  C12      1.0000 0.56037  0.45860  0.44589  Biso   1.000  C
  C13      1.0000 0.93963  0.95860  0.05411  Biso   1.000  C
  C14      1.0000 0.43963  0.45860  0.05411  Biso   1.000  C
  C15      1.0000 0.93963  0.04140  0.55411  Biso   1.000  C
  C16      1.0000 0.43963  0.54140  0.55411  Biso   1.000  C
  H9       1.0000 0.04030  0.95280  0.94890  Biso   1.000  H
  H10      1.0000 0.54030  0.45280  0.94890  Biso   1.000  H
  H11      1.0000 0.04030  0.04720  0.44890  Biso   1.000  H
  H12      1.0000 0.54030  0.54720  0.44890  Biso   1.000  H
  H13      1.0000 0.95970  0.04720  0.05110  Biso   1.000  H
  H14      1.0000 0.45970  0.54720  0.05110  Biso   1.000  H
  H15      1.0000 0.95970  0.95280  0.55110  Biso   1.000  H
  H16      1.0000 0.45970  0.45280  0.55110  Biso   1.000  H
  C17      1.0000 0.10253  0.10550  0.01400  Biso   1.000  C
  C18      1.0000 0.60253  0.60550  0.01400  Biso   1.000  C
  C19      1.0000 0.10253  0.89450  0.51400  Biso   1.000  C
  C20      1.0000 0.60253  0.39450  0.51400  Biso   1.000  C
  C21      1.0000 0.89747  0.89450  0.98600  Biso   1.000  C
  C22      1.0000 0.39747  0.39450  0.98600  Biso   1.000  C
  C23      1.0000 0.89747  0.10550  0.48600  Biso   1.000  C
  C24      1.0000 0.39747  0.60550  0.48600  Biso   1.000  C
  H17      1.0000 0.11650  0.06960  0.07150  Biso   1.000  H
  H18      1.0000 0.61650  0.56960  0.07150  Biso   1.000  H
  H19      1.0000 0.11650  0.93040  0.57150  Biso   1.000  H
  H20      1.0000 0.61650  0.43040  0.57150  Biso   1.000  H
  H21      1.0000 0.88350  0.93040  0.92850  Biso   1.000  H
  H22      1.0000 0.38350  0.43040  0.92850  Biso   1.000  H
  H23      1.0000 0.88350  0.06960  0.42850  Biso   1.000  H
  H24      1.0000 0.38350  0.56960  0.42850  Biso   1.000  H
  C25      1.0000 0.16953  0.33430  0.02810  Biso   1.000  C
  C26      1.0000 0.66953  0.83430  0.02810  Biso   1.000  C
  C27      1.0000 0.16953  0.66570  0.52810  Biso   1.000  C
  C28      1.0000 0.66953  0.16570  0.52810  Biso   1.000  C
  C29      1.0000 0.83047  0.66570  0.97190  Biso   1.000  C
  C30      1.0000 0.33047  0.16570  0.97190  Biso   1.000  C
  C31      1.0000 0.83047  0.33430  0.47190  Biso   1.000  C
  C32      1.0000 0.33047  0.83430  0.47190  Biso   1.000  C
  H25      1.0000 0.15860  0.35960  0.08530  Biso   1.000  H
  H26      1.0000 0.65860  0.85960  0.08530  Biso   1.000  H
  H27      1.0000 0.15860  0.64040  0.58530  Biso   1.000  H
  H28      1.0000 0.65860  0.14040  0.58530  Biso   1.000  H
  H29      1.0000 0.84140  0.64040  0.91470  Biso   1.000  H
  H30      1.0000 0.34140  0.14040  0.91470  Biso   1.000  H
  H31      1.0000 0.84140  0.35960  0.41470  Biso   1.000  H
  H32      1.0000 0.34140  0.85960  0.41470  Biso   1.000  H
  H33      1.0000 0.16810  0.42090  0.99270  Biso   1.000  H
  H34      1.0000 0.66810  0.92090  0.99270  Biso   1.000  H
  H35      1.0000 0.16810  0.57910  0.49270  Biso   1.000  H
  H36      1.0000 0.66810  0.07910  0.49270  Biso   1.000  H
  H37      1.0000 0.83190  0.57910  0.00730  Biso   1.000  H
  H38      1.0000 0.33190  0.07910  0.00730  Biso   1.000  H
  H39      1.0000 0.83190  0.42090  0.50730  Biso   1.000  H
  H40      1.0000 0.33190  0.92090  0.50730  Biso   1.000  H
  C33      1.0000 0.23931  0.27160  0.04342  Biso   1.000  C
  C34      1.0000 0.73931  0.77160  0.04342  Biso   1.000  C
  C35      1.0000 0.23931  0.72840  0.54342  Biso   1.000  C
  C36      1.0000 0.73931  0.22840  0.54342  Biso   1.000  C
  C37      1.0000 0.76069  0.72840  0.95658  Biso   1.000  C
  C38      1.0000 0.26069  0.22840  0.95658  Biso   1.000  C
  C39      1.0000 0.76069  0.27160  0.45658  Biso   1.000  C
  C40      1.0000 0.26069  0.77160  0.45658  Biso   1.000  C
  H41      1.0000 0.24110  0.18810  0.08170  Biso   1.000  H
  H42      1.0000 0.74110  0.68810  0.08170  Biso   1.000  H
  H43      1.0000 0.24110  0.81190  0.58170  Biso   1.000  H
  H44      1.0000 0.74110  0.31190  0.58170  Biso   1.000  H
  H45      1.0000 0.75890  0.81190  0.91830  Biso   1.000  H
  H46      1.0000 0.25890  0.31190  0.91830  Biso   1.000  H
  H47      1.0000 0.75890  0.18810  0.41830  Biso   1.000  H
  H48      1.0000 0.25890  0.68810  0.41830  Biso   1.000  H
  H49      1.0000 0.27050  0.34160  0.07440  Biso   1.000  H
  H50      1.0000 0.77050  0.84160  0.07440  Biso   1.000  H
  H51      1.0000 0.27050  0.65840  0.57440  Biso   1.000  H
  H52      1.0000 0.77050  0.15840  0.57440  Biso   1.000  H
  H53      1.0000 0.72950  0.65840  0.92560  Biso   1.000  H
  H54      1.0000 0.22950  0.15840  0.92560  Biso   1.000  H
  H55      1.0000 0.72950  0.34160  0.42560  Biso   1.000  H
  H56      1.0000 0.22950  0.84160  0.42560  Biso   1.000  H
  C41      1.0000 0.10385  0.19790  0.65040  Biso   1.000  C
  C42      1.0000 0.60385  0.69790  0.65040  Biso   1.000  C
  C43      1.0000 0.10385  0.80210  0.15040  Biso   1.000  C
  C44      1.0000 0.60385  0.30210  0.15040  Biso   1.000  C
  C45      1.0000 0.89615  0.80210  0.34960  Biso   1.000  C
  C46      1.0000 0.39615  0.30210  0.34960  Biso   1.000  C
  C47      1.0000 0.89615  0.19790  0.84960  Biso   1.000  C
  C48      1.0000 0.39615  0.69790  0.84960  Biso   1.000  C
  H57      1.0000 0.07480  0.26120  0.61550  Biso   1.000  H
  H58      1.0000 0.57480  0.76120  0.61550  Biso   1.000  H
  H59      1.0000 0.07480  0.73880  0.11550  Biso   1.000  H
  H60      1.0000 0.57480  0.23880  0.11550  Biso   1.000  H
  H61      1.0000 0.92520  0.73880  0.38450  Biso   1.000  H
  H62      1.0000 0.42520  0.23880  0.38450  Biso   1.000  H
  H63      1.0000 0.92520  0.26120  0.88450  Biso   1.000  H
  H64      1.0000 0.42520  0.76120  0.88450  Biso   1.000  H
  C49      1.0000 0.14376  0.03160  0.74352  Biso   1.000  C
  C50      1.0000 0.64376  0.53160  0.74352  Biso   1.000  C
  C51      1.0000 0.14376  0.96840  0.24352  Biso   1.000  C
  C52      1.0000 0.64376  0.46840  0.24352  Biso   1.000  C
  C53      1.0000 0.85624  0.96840  0.25648  Biso   1.000  C
  C54      1.0000 0.35624  0.46840  0.25648  Biso   1.000  C
  C55      1.0000 0.85624  0.03160  0.75648  Biso   1.000  C
  C56      1.0000 0.35624  0.53160  0.75648  Biso   1.000  C
  H65      1.0000 0.14660  0.95850  0.78550  Biso   1.000  H
  H66      1.0000 0.64660  0.45850  0.78550  Biso   1.000  H
  H67      1.0000 0.14660  0.04150  0.28550  Biso   1.000  H
  H68      1.0000 0.64660  0.54150  0.28550  Biso   1.000  H
  H69      1.0000 0.85340  0.04150  0.21450  Biso   1.000  H
  H70      1.0000 0.35340  0.54150  0.21450  Biso   1.000  H
  H71      1.0000 0.85340  0.95850  0.71450  Biso   1.000  H
  H72      1.0000 0.35340  0.45850  0.71450  Biso   1.000  H
  C57      1.0000 0.19534  0.08360  0.70920  Biso   1.000  C
  C58      1.0000 0.69534  0.58360  0.70920  Biso   1.000  C
  C59      1.0000 0.19534  0.91640  0.20920  Biso   1.000  C
  C60      1.0000 0.69534  0.41640  0.20920  Biso   1.000  C
  C61      1.0000 0.80466  0.91640  0.29080  Biso   1.000  C
  C62      1.0000 0.30466  0.41640  0.29080  Biso   1.000  C
  C63      1.0000 0.80466  0.08360  0.79080  Biso   1.000  C
  C64      1.0000 0.30466  0.58360  0.79080  Biso   1.000  C
  H73      1.0000 0.23940  0.05350  0.72280  Biso   1.000  H
  H74      1.0000 0.73940  0.55350  0.72280  Biso   1.000  H
  H75      1.0000 0.23940  0.94650  0.22280  Biso   1.000  H
  H76      1.0000 0.73940  0.44650  0.22280  Biso   1.000  H
  H77      1.0000 0.76060  0.94650  0.27720  Biso   1.000  H
  H78      1.0000 0.26060  0.44650  0.27720  Biso   1.000  H
  H79      1.0000 0.76060  0.05350  0.77720  Biso   1.000  H
  H80      1.0000 0.26060  0.55350  0.77720  Biso   1.000  H
  C65      1.0000 0.20580  0.28160  0.59870  Biso   1.000  C
  C66      1.0000 0.70580  0.78160  0.59870  Biso   1.000  C
  C67      1.0000 0.20580  0.71840  0.09870  Biso   1.000  C
  C68      1.0000 0.70580  0.21840  0.09870  Biso   1.000  C
  C69      1.0000 0.79420  0.71840  0.40130  Biso   1.000  C
  C70      1.0000 0.29420  0.21840  0.40130  Biso   1.000  C
  C71      1.0000 0.79420  0.28160  0.90130  Biso   1.000  C
  C72      1.0000 0.29420  0.78160  0.90130  Biso   1.000  C
  H81      1.0000 0.24390  0.32220  0.63870  Biso   1.000  H
  H82      1.0000 0.74390  0.82220  0.63870  Biso   1.000  H
  H83      1.0000 0.24390  0.67780  0.13870  Biso   1.000  H
  H84      1.0000 0.74390  0.17780  0.13870  Biso   1.000  H
  H85      1.0000 0.75610  0.67780  0.36130  Biso   1.000  H
  H86      1.0000 0.25610  0.17780  0.36130  Biso   1.000  H
  H87      1.0000 0.75610  0.32220  0.86130  Biso   1.000  H
  H88      1.0000 0.25610  0.82220  0.86130  Biso   1.000  H
  H89      1.0000 0.17730  0.36000  0.57310  Biso   1.000  H
  H90      1.0000 0.67730  0.86000  0.57310  Biso   1.000  H
  H91      1.0000 0.17730  0.64000  0.07310  Biso   1.000  H
  H92      1.0000 0.67730  0.14000  0.07310  Biso   1.000  H
  H93      1.0000 0.82270  0.64000  0.42690  Biso   1.000  H
  H94      1.0000 0.32270  0.14000  0.42690  Biso   1.000  H
  H95      1.0000 0.82270  0.36000  0.92690  Biso   1.000  H
  H96      1.0000 0.32270  0.86000  0.92690  Biso   1.000  H
  C73      1.0000 0.22939  0.20200  0.52440  Biso   1.000  C
  C74      1.0000 0.72939  0.70200  0.52440  Biso   1.000  C
  C75      1.0000 0.22939  0.79800  0.02440  Biso   1.000  C
  C76      1.0000 0.72939  0.29800  0.02440  Biso   1.000  C
  C77      1.0000 0.77061  0.79800  0.47560  Biso   1.000  C
  C78      1.0000 0.27061  0.29800  0.47560  Biso   1.000  C
  C79      1.0000 0.77061  0.20200  0.97560  Biso   1.000  C
  C80      1.0000 0.27061  0.70200  0.97560  Biso   1.000  C
  H97      1.0000 0.19120  0.16640  0.48220  Biso   1.000  H
  H98      1.0000 0.69120  0.66640  0.48220  Biso   1.000  H
  H99      1.0000 0.19120  0.83360  0.98220  Biso   1.000  H
  H100     1.0000 0.69120  0.33360  0.98220  Biso   1.000  H
  H101     1.0000 0.80880  0.83360  0.51780  Biso   1.000  H
  H102     1.0000 0.30880  0.33360  0.51780  Biso   1.000  H
  H103     1.0000 0.80880  0.16640  0.01780  Biso   1.000  H
  H104     1.0000 0.30880  0.66640  0.01780  Biso   1.000  H
  H105     1.0000 0.25590  0.12040  0.54930  Biso   1.000  H
  H106     1.0000 0.75590  0.62040  0.54930  Biso   1.000  H
  H107     1.0000 0.25590  0.87960  0.04930  Biso   1.000  H
  H108     1.0000 0.75590  0.37960  0.04930  Biso   1.000  H
  H109     1.0000 0.74410  0.87960  0.45070  Biso   1.000  H
  H110     1.0000 0.24410  0.37960  0.45070  Biso   1.000  H
  H111     1.0000 0.74410  0.12040  0.95070  Biso   1.000  H
  H112     1.0000 0.24410  0.62040  0.95070  Biso   1.000  H
  N1       1.0000 0.05190  0.12720  0.87202  Biso   1.000  N
  N2       1.0000 0.55190  0.62720  0.87202  Biso   1.000  N
  N3       1.0000 0.05190  0.87280  0.37202  Biso   1.000  N
  N4       1.0000 0.55190  0.37280  0.37202  Biso   1.000  N
  N5       1.0000 0.94810  0.87280  0.12798  Biso   1.000  N
  N6       1.0000 0.44810  0.37280  0.12798  Biso   1.000  N
  N7       1.0000 0.94810  0.12720  0.62798  Biso   1.000  N
  N8       1.0000 0.44810  0.62720  0.62798  Biso   1.000  N
  N9       1.0000 0.12040  0.23240  0.98193  Biso   1.000  N
  N10      1.0000 0.62040  0.73240  0.98193  Biso   1.000  N
  N11      1.0000 0.12040  0.76760  0.48193  Biso   1.000  N
  N12      1.0000 0.62040  0.26760  0.48193  Biso   1.000  N
  N13      1.0000 0.87960  0.76760  0.01807  Biso   1.000  N
  N14      1.0000 0.37960  0.26760  0.01807  Biso   1.000  N
  N15      1.0000 0.87960  0.23240  0.51807  Biso   1.000  N
  N16      1.0000 0.37960  0.73240  0.51807  Biso   1.000  N
  N17      1.0000 0.08631  0.10450  0.70611  Biso   1.000  N
  N18      1.0000 0.58631  0.60450  0.70611  Biso   1.000  N
  N19      1.0000 0.08631  0.89550  0.20611  Biso   1.000  N
  N20      1.0000 0.58631  0.39550  0.20611  Biso   1.000  N
  N21      1.0000 0.91369  0.89550  0.29389  Biso   1.000  N
  N22      1.0000 0.41369  0.39550  0.29389  Biso   1.000  N
  N23      1.0000 0.91369  0.10450  0.79389  Biso   1.000  N
  N24      1.0000 0.41369  0.60450  0.79389  Biso   1.000  N
  N25      1.0000 0.16913  0.18990  0.65047  Biso   1.000  N
  N26      1.0000 0.66913  0.68990  0.65047  Biso   1.000  N
  N27      1.0000 0.16913  0.81010  0.15047  Biso   1.000  N
  N28      1.0000 0.66913  0.31010  0.15047  Biso   1.000  N
  N29      1.0000 0.83087  0.81010  0.34953  Biso   1.000  N
  N30      1.0000 0.33087  0.31010  0.34953  Biso   1.000  N
  N31      1.0000 0.83087  0.18990  0.84953  Biso   1.000  N
  N32      1.0000 0.33087  0.68990  0.84953  Biso   1.000  N
  N33      1.0000 0.11960  0.59010  0.76720  Biso   1.000  N
  N34      1.0000 0.61960  0.09010  0.76720  Biso   1.000  N
  N35      1.0000 0.11960  0.40990  0.26720  Biso   1.000  N
  N36      1.0000 0.61960  0.90990  0.26720  Biso   1.000  N
  N37      1.0000 0.88040  0.40990  0.23280  Biso   1.000  N
  N38      1.0000 0.38040  0.90990  0.23280  Biso   1.000  N
  N39      1.0000 0.88040  0.59010  0.73280  Biso   1.000  N
  N40      1.0000 0.38040  0.09010  0.73280  Biso   1.000  N
  O1       1.0000 0.14740  0.48080  0.75060  Biso   1.000  O
  O2       1.0000 0.64740  0.98080  0.75060  Biso   1.000  O
  O3       1.0000 0.14740  0.51920  0.25060  Biso   1.000  O
  O4       1.0000 0.64740  0.01920  0.25060  Biso   1.000  O
  O5       1.0000 0.85260  0.51920  0.24940  Biso   1.000  O
  O6       1.0000 0.35260  0.01920  0.24940  Biso   1.000  O
  O7       1.0000 0.85260  0.48080  0.74940  Biso   1.000  O
  O8       1.0000 0.35260  0.98080  0.74940  Biso   1.000  O
  O9       1.0000 0.15270  0.49540  0.79980  Biso   1.000  O
  O10      1.0000 0.65270  0.99540  0.79980  Biso   1.000  O
  O11      1.0000 0.15270  0.50460  0.29980  Biso   1.000  O
  O12      1.0000 0.65270  0.00460  0.29980  Biso   1.000  O
  O13      1.0000 0.84730  0.50460  0.20020  Biso   1.000  O
  O14      1.0000 0.34730  0.00460  0.20020  Biso   1.000  O
  O15      1.0000 0.84730  0.49540  0.70020  Biso   1.000  O
  O16      1.0000 0.34730  0.99540  0.70020  Biso   1.000  O
  O17      1.0000 0.09400  0.67600  0.70690  Biso   1.000  O
  O18      1.0000 0.59400  0.17600  0.70690  Biso   1.000  O
  O19      1.0000 0.09400  0.32400  0.20690  Biso   1.000  O
  O20      1.0000 0.59400  0.82400  0.20690  Biso   1.000  O
  O21      1.0000 0.90600  0.32400  0.29310  Biso   1.000  O
  O22      1.0000 0.40600  0.82400  0.29310  Biso   1.000  O
  O23      1.0000 0.90600  0.67600  0.79310  Biso   1.000  O
  O24      1.0000 0.40600  0.17600  0.79310  Biso   1.000  O
  O25      1.0000 0.12900  0.70120  0.75370  Biso   1.000  O
  O26      1.0000 0.62900  0.20120  0.75370  Biso   1.000  O
  O27      1.0000 0.12900  0.29880  0.25370  Biso   1.000  O
  O28      1.0000 0.62900  0.79880  0.25370  Biso   1.000  O
  O29      1.0000 0.87100  0.29880  0.24630  Biso   1.000  O
  O30      1.0000 0.37100  0.79880  0.24630  Biso   1.000  O
  O31      1.0000 0.87100  0.70120  0.74630  Biso   1.000  O
  O32      1.0000 0.37100  0.20120  0.74630  Biso   1.000  O
  O33      1.0000 0.05050  0.52050  0.75240  Biso   1.000  O
  O34      1.0000 0.55050  0.02050  0.75240  Biso   1.000  O
  O35      1.0000 0.05050  0.47950  0.25240  Biso   1.000  O
  O36      1.0000 0.55050  0.97950  0.25240  Biso   1.000  O
  O37      1.0000 0.94950  0.47950  0.24760  Biso   1.000  O
  O38      1.0000 0.44950  0.97950  0.24760  Biso   1.000  O
  O39      1.0000 0.94950  0.52050  0.74760  Biso   1.000  O
  O40      1.0000 0.44950  0.02050  0.74760  Biso   1.000  O
  O41      1.0000 0.12620  0.64670  0.84090  Biso   1.000  O
  O42      1.0000 0.62620  0.14670  0.84090  Biso   1.000  O
  O43      1.0000 0.12620  0.35330  0.34090  Biso   1.000  O
  O44      1.0000 0.62620  0.85330  0.34090  Biso   1.000  O
  O45      1.0000 0.87380  0.35330  0.15910  Biso   1.000  O
  O46      1.0000 0.37380  0.85330  0.15910  Biso   1.000  O
  O47      1.0000 0.87380  0.64670  0.65910  Biso   1.000  O
  O48      1.0000 0.37380  0.14670  0.65910  Biso   1.000  O
  O49      1.0000 0.00000  0.85630  0.75000  Biso   1.000  O
  O50      1.0000 0.50000  0.35630  0.75000  Biso   1.000  O
  O51      1.0000 0.00000  0.14370  0.25000  Biso   1.000  O
  O52      1.0000 0.50000  0.64370  0.25000  Biso   1.000  O
  O53      1.0000 0.97460  0.62140  0.54130  Biso   1.000  O
  O54      1.0000 0.47460  0.12140  0.54130  Biso   1.000  O
  O55      1.0000 0.97460  0.37860  0.04130  Biso   1.000  O
  O56      1.0000 0.47460  0.87860  0.04130  Biso   1.000  O
  O57      1.0000 0.02540  0.37860  0.45870  Biso   1.000  O
  O58      1.0000 0.52540  0.87860  0.45870  Biso   1.000  O
  O59      1.0000 0.02540  0.62140  0.95870  Biso   1.000  O
  O60      1.0000 0.52540  0.12140  0.95870  Biso   1.000  O
  Cu1      1.0000 0.00000  0.09299  0.75000  Biso   1.000  Cu
  Cu2      1.0000 0.50000  0.59299  0.75000  Biso   1.000  Cu
  Cu3      1.0000 0.00000  0.90701  0.25000  Biso   1.000  Cu
  Cu4      1.0000 0.50000  0.40701  0.25000  Biso   1.000  Cu
  H113     1.0000 0.99590  0.54500  0.54000  Biso   1.000  H
  H114     1.0000 0.49590  0.04500  0.54000  Biso   1.000  H
  H115     1.0000 0.99590  0.45500  0.04000  Biso   1.000  H
  H116     1.0000 0.49590  0.95500  0.04000  Biso   1.000  H
  H117     1.0000 0.00410  0.45500  0.46000  Biso   1.000  H
  H118     1.0000 0.50410  0.95500  0.46000  Biso   1.000  H
  H119     1.0000 0.00410  0.54500  0.96000  Biso   1.000  H
  H120     1.0000 0.50410  0.04500  0.96000  Biso   1.000  H
  H121     1.0000 0.94160  0.59600  0.52700  Biso   1.000  H
  H122     1.0000 0.44160  0.09600  0.52700  Biso   1.000  H
  H123     1.0000 0.94160  0.40400  0.02700  Biso   1.000  H
  H124     1.0000 0.44160  0.90400  0.02700  Biso   1.000  H
  H125     1.0000 0.05840  0.40400  0.47300  Biso   1.000  H
  H126     1.0000 0.55840  0.90400  0.47300  Biso   1.000  H
  H127     1.0000 0.05840  0.59600  0.97300  Biso   1.000  H
  H128     1.0000 0.55840  0.09600  0.97300  Biso   1.000  H
