data_image0
_cell_length_a       9.156
_cell_length_b       13.418
_cell_length_c       14.231
_cell_angle_alpha    113.905
_cell_angle_beta     92.825
_cell_angle_gamma    102.589

_symmetry_space_group_name_H-M    "P 1"
_symmetry_int_tables_number       1

loop_
  _symmetry_equiv_pos_as_xyz
  'x, y, z'

loop_
  _atom_site_label
  _atom_site_occupancy
  _atom_site_fract_x
  _atom_site_fract_y
  _atom_site_fract_z
  _atom_site_thermal_displace_type
  _atom_site_B_iso_or_equiv
  _atom_site_type_symbol
  Cu1      1.0000 0.32958  0.29693  0.99358  Biso   1.000  Cu
  Cu2      1.0000 0.67042  0.70307  0.00642  Biso   1.000  Cu
  Cu3      1.0000 0.21751  0.42978  0.37721  Biso   1.000  Cu
  Cu4      1.0000 0.78249  0.57022  0.62279  Biso   1.000  Cu
  O1       1.0000 0.19160  0.37537  0.08347  Biso   1.000  O
  O2       1.0000 0.80840  0.62463  0.91653  Biso   1.000  O
  O3       1.0000 0.32660  0.22803  0.11921  Biso   1.000  O
  O4       1.0000 0.67340  0.77197  0.88079  Biso   1.000  O
  O5       1.0000 0.15030  0.44061  0.24803  Biso   1.000  O
  O6       1.0000 0.84970  0.55939  0.75197  Biso   1.000  O
  O7       1.0000 0.27030  0.29368  0.28155  Biso   1.000  O
  O8       1.0000 0.72970  0.70632  0.71845  Biso   1.000  O
  O9       1.0000 0.15784  0.17401  0.89900  Biso   1.000  O
  O10      1.0000 0.84216  0.82599  0.10100  Biso   1.000  O
  O11      1.0000 0.11770  0.00371  0.76558  Biso   1.000  O
  O12      1.0000 0.88230  0.99629  0.23442  Biso   1.000  O
  O13      1.0000 0.45389  0.20569  0.90555  Biso   1.000  O
  O14      1.0000 0.54611  0.79431  0.09445  Biso   1.000  O
  O15      1.0000 0.42110  0.04370  0.76489  Biso   1.000  O
  O16      1.0000 0.57890  0.95630  0.23511  Biso   1.000  O
  O17      1.0000 0.16120  0.56850  0.46621  Biso   1.000  O
  O18      1.0000 0.83880  0.43150  0.53379  Biso   1.000  O
  O19      1.0000 0.01025  0.64145  0.57856  Biso   1.000  O
  O20      1.0000 0.98975  0.35855  0.42144  Biso   1.000  O
  O21      1.0000 0.31852  0.42083  0.49864  Biso   1.000  O
  O22      1.0000 0.68148  0.57917  0.50136  Biso   1.000  O
  O23      1.0000 0.53226  0.46697  0.60470  Biso   1.000  O
  O24      1.0000 0.46774  0.53303  0.39530  Biso   1.000  O
  O25      1.0000 0.50551  0.42543  0.07710  Biso   1.000  O
  O26      1.0000 0.49449  0.57457  0.92290  Biso   1.000  O
  O27      1.0000 0.65005  0.59215  0.09855  Biso   1.000  O
  O28      1.0000 0.34995  0.40785  0.90145  Biso   1.000  O
  C1       1.0000 0.20030  0.37658  0.17207  Biso   1.000  C
  C2       1.0000 0.79970  0.62342  0.82793  Biso   1.000  C
  C3       1.0000 0.27420  0.29081  0.19079  Biso   1.000  C
  C4       1.0000 0.72580  0.70919  0.80921  Biso   1.000  C
  C5       1.0000 0.19980  0.09340  0.83112  Biso   1.000  C
  C6       1.0000 0.80020  0.90660  0.16888  Biso   1.000  C
  C7       1.0000 0.37380  0.11460  0.83370  Biso   1.000  C
  C8       1.0000 0.62620  0.88540  0.16630  Biso   1.000  C
  C9       1.0000 0.04900  0.56042  0.51306  Biso   1.000  C
  C10      1.0000 0.95100  0.43958  0.48694  Biso   1.000  C
  C11      1.0000 0.45760  0.46800  0.52996  Biso   1.000  C
  C12      1.0000 0.54240  0.53200  0.47004  Biso   1.000  C
  C13      1.0000 0.54470  0.50480  0.05013  Biso   1.000  C
  C14      1.0000 0.45530  0.49520  0.94987  Biso   1.000  C
  O29      1.0000 0.81830  0.88739  0.65831  Biso   1.000  O
  O30      1.0000 0.18170  0.11261  0.34169  Biso   1.000  O
  H1       1.0000 0.78400  0.83900  0.68300  Biso   1.000  H
  H2       1.0000 0.21600  0.16100  0.31700  Biso   1.000  H
  H3       1.0000 0.89600  0.92000  0.69900  Biso   1.000  H
  H4       1.0000 0.10400  0.08000  0.30100  Biso   1.000  H
  O31      1.0000 0.71130  0.07666  0.72840  Biso   1.000  O
  O32      1.0000 0.28870  0.92334  0.27160  Biso   1.000  O
  H5       1.0000 0.61400  0.06400  0.74100  Biso   1.000  H
  H6       1.0000 0.38600  0.93600  0.25900  Biso   1.000  H
  H7       1.0000 0.73600  0.03100  0.71900  Biso   1.000  H
  H8       1.0000 0.26400  0.96900  0.28100  Biso   1.000  H
  N1       1.0000 0.86280  0.21110  0.92720  Biso   1.000  N
  N2       1.0000 0.13720  0.78890  0.07280  Biso   1.000  N
  H9       1.0000 0.81240  0.16300  0.86230  Biso   1.000  H
  H10      1.0000 0.18760  0.83700  0.13770  Biso   1.000  H
  H11      1.0000 0.96220  0.21090  0.92760  Biso   1.000  H
  H12      1.0000 0.03780  0.78910  0.07240  Biso   1.000  H
  C15      1.0000 0.84940  0.32750  0.95020  Biso   1.000  C
  C16      1.0000 0.15060  0.67250  0.04980  Biso   1.000  C
  H13      1.0000 0.90030  0.38000  0.02180  Biso   1.000  H
  H14      1.0000 0.09970  0.62000  0.97820  Biso   1.000  H
  H15      1.0000 0.74120  0.32760  0.94570  Biso   1.000  H
  H16      1.0000 0.25880  0.67240  0.05430  Biso   1.000  H
  C17      1.0000 0.92060  0.36700  0.87400  Biso   1.000  C
  C18      1.0000 0.07940  0.63300  0.12600  Biso   1.000  C
  H17      1.0000 0.91090  0.44330  0.89000  Biso   1.000  H
  H18      1.0000 0.08910  0.55670  0.11000  Biso   1.000  H
  H19      1.0000 0.02800  0.36790  0.87920  Biso   1.000  H
  H20      1.0000 0.97200  0.63210  0.12080  Biso   1.000  H
  H21      1.0000 0.86920  0.31560  0.80320  Biso   1.000  H
  H22      1.0000 0.13080  0.68440  0.19680  Biso   1.000  H
  C19      1.0000 0.80160  0.16940  0.00280  Biso   1.000  C
  C20      1.0000 0.19840  0.83060  0.99720  Biso   1.000  C
  H23      1.0000 0.69460  0.17220  0.00510  Biso   1.000  H
  H24      1.0000 0.30540  0.82780  0.99490  Biso   1.000  H
  H25      1.0000 0.85990  0.21860  0.07320  Biso   1.000  H
  H26      1.0000 0.14010  0.78140  0.92680  Biso   1.000  H
  C21      1.0000 0.81140  0.05000  0.97230  Biso   1.000  C
  C22      1.0000 0.18860  0.95000  0.02770  Biso   1.000  C
  H27      1.0000 0.77060  0.02360  0.02300  Biso   1.000  H
  H28      1.0000 0.22940  0.97640  0.97700  Biso   1.000  H
  H29      1.0000 0.75250  0.00120  0.90310  Biso   1.000  H
  H30      1.0000 0.24750  0.99880  0.09690  Biso   1.000  H
  H31      1.0000 0.91750  0.04750  0.97100  Biso   1.000  H
  H32      1.0000 0.08250  0.95250  0.02900  Biso   1.000  H
  N3       1.0000 0.74220  0.17160  0.37650  Biso   1.000  N
  N4       1.0000 0.25780  0.82840  0.62350  Biso   1.000  N
  H33      1.0000 0.74840  0.10570  0.32450  Biso   1.000  H
  H34      1.0000 0.25160  0.89430  0.67550  Biso   1.000  H
  H35      1.0000 0.83310  0.22260  0.38970  Biso   1.000  H
  H36      1.0000 0.16690  0.77740  0.61030  Biso   1.000  H
  C23      1.0000 0.62020  0.21430  0.33420  Biso   1.000  C
  C24      1.0000 0.37980  0.78570  0.66580  Biso   1.000  C
  H37      1.0000 0.51910  0.16210  0.32160  Biso   1.000  H
  H38      1.0000 0.48090  0.83790  0.67840  Biso   1.000  H
  H39      1.0000 0.61810  0.28980  0.38640  Biso   1.000  H
  H40      1.0000 0.38190  0.71020  0.61360  Biso   1.000  H
  C25      1.0000 0.65530  0.22080  0.23590  Biso   1.000  C
  C26      1.0000 0.34470  0.77920  0.76410  Biso   1.000  C
  H41      1.0000 0.57800  0.24770  0.21000  Biso   1.000  H
  H42      1.0000 0.42200  0.75230  0.79000  Biso   1.000  H
  H43      1.0000 0.75490  0.27330  0.24880  Biso   1.000  H
  H44      1.0000 0.24510  0.72670  0.75120  Biso   1.000  H
  H45      1.0000 0.65600  0.14570  0.18410  Biso   1.000  H
  H46      1.0000 0.34400  0.85430  0.81590  Biso   1.000  H
  C27      1.0000 0.72290  0.15220  0.46940  Biso   1.000  C
  C28      1.0000 0.27710  0.84780  0.53060  Biso   1.000  C
  H47      1.0000 0.62100  0.10170  0.45900  Biso   1.000  H
  H48      1.0000 0.37900  0.89830  0.54100  Biso   1.000  H
  H49      1.0000 0.72880  0.22500  0.52920  Biso   1.000  H
  H50      1.0000 0.27120  0.77500  0.47080  Biso   1.000  H
  C29      1.0000 0.83790  0.10120  0.49430  Biso   1.000  C
  C30      1.0000 0.16210  0.89880  0.50570  Biso   1.000  C
  H51      1.0000 0.81990  0.09000  0.55700  Biso   1.000  H
  H52      1.0000 0.18010  0.91000  0.44300  Biso   1.000  H
  H53      1.0000 0.83110  0.02820  0.43600  Biso   1.000  H
  H54      1.0000 0.16890  0.97180  0.56400  Biso   1.000  H
  H55      1.0000 0.93900  0.15150  0.50630  Biso   1.000  H
  H56      1.0000 0.06100  0.84850  0.49370  Biso   1.000  H
  N5       1.0000 0.67150  0.64772  0.31032  Biso   1.000  N
  N6       1.0000 0.32850  0.35228  0.68968  Biso   1.000  N
  H57      1.0000 0.61010  0.59930  0.33050  Biso   1.000  H
  H58      1.0000 0.38990  0.40070  0.66950  Biso   1.000  H
  H59      1.0000 0.64980  0.61880  0.23980  Biso   1.000  H
  H60      1.0000 0.35020  0.38120  0.76020  Biso   1.000  H
  C31      1.0000 0.63050  0.75740  0.35500  Biso   1.000  C
  C32      1.0000 0.36950  0.24260  0.64500  Biso   1.000  C
  H61      1.0000 0.64440  0.78730  0.43180  Biso   1.000  H
  H62      1.0000 0.35560  0.21270  0.56820  Biso   1.000  H
  H63      1.0000 0.69860  0.81260  0.33640  Biso   1.000  H
  H64      1.0000 0.30140  0.18740  0.66360  Biso   1.000  H
  C33      1.0000 0.47180  0.74360  0.31540  Biso   1.000  C
  C34      1.0000 0.52820  0.25640  0.68460  Biso   1.000  C
  H65      1.0000 0.44740  0.81670  0.34570  Biso   1.000  H
  H66      1.0000 0.55260  0.18330  0.65430  Biso   1.000  H
  H67      1.0000 0.45840  0.71510  0.23940  Biso   1.000  H
  H68      1.0000 0.54160  0.28490  0.76060  Biso   1.000  H
  H69      1.0000 0.40420  0.68990  0.33460  Biso   1.000  H
  H70      1.0000 0.59580  0.31010  0.66540  Biso   1.000  H
  C35      1.0000 0.82970  0.64830  0.33730  Biso   1.000  C
  C36      1.0000 0.17030  0.35170  0.66270  Biso   1.000  C
  H71      1.0000 0.85660  0.67940  0.41370  Biso   1.000  H
  H72      1.0000 0.14340  0.32060  0.58630  Biso   1.000  H
  H73      1.0000 0.89900  0.69680  0.31240  Biso   1.000  H
  H74      1.0000 0.10100  0.30320  0.68760  Biso   1.000  H
  C37      1.0000 0.84640  0.53090  0.28790  Biso   1.000  C
  C38      1.0000 0.15360  0.46910  0.71210  Biso   1.000  C
  H75      1.0000 0.95140  0.53120  0.30570  Biso   1.000  H
  H76      1.0000 0.04860  0.46880  0.69430  Biso   1.000  H
  H77      1.0000 0.77840  0.48340  0.31330  Biso   1.000  H
  H78      1.0000 0.22160  0.51660  0.68670  Biso   1.000  H
  H79      1.0000 0.82060  0.50070  0.21220  Biso   1.000  H
  H80      1.0000 0.17940  0.49930  0.78780  Biso   1.000  H
