data_image0
_cell_length_a       9.1705
_cell_length_b       13.4229
_cell_length_c       14.2702
_cell_angle_alpha    113.96
_cell_angle_beta     92.38
_cell_angle_gamma    102.744

_symmetry_space_group_name_H-M    "P 1"
_symmetry_int_tables_number       1

loop_
  _symmetry_equiv_pos_as_xyz
  'x, y, z'

loop_
  _atom_site_label
  _atom_site_occupancy
  _atom_site_fract_x
  _atom_site_fract_y
  _atom_site_fract_z
  _atom_site_thermal_displace_type
  _atom_site_B_iso_or_equiv
  _atom_site_type_symbol
  Cu1      1.0000 0.32932  0.29715  0.99400  Biso   1.000  Cu
  Cu2      1.0000 0.67068  0.70285  0.00600  Biso   1.000  Cu
  Cu3      1.0000 0.21833  0.42991  0.37749  Biso   1.000  Cu
  Cu4      1.0000 0.78167  0.57009  0.62251  Biso   1.000  Cu
  O1       1.0000 0.19241  0.37595  0.08501  Biso   1.000  O
  O2       1.0000 0.80759  0.62405  0.91499  Biso   1.000  O
  O3       1.0000 0.32570  0.22806  0.11931  Biso   1.000  O
  O4       1.0000 0.67430  0.77194  0.88069  Biso   1.000  O
  O5       1.0000 0.15232  0.44149  0.24929  Biso   1.000  O
  O6       1.0000 0.84768  0.55851  0.75071  Biso   1.000  O
  O7       1.0000 0.26980  0.29370  0.28144  Biso   1.000  O
  O8       1.0000 0.73020  0.70630  0.71856  Biso   1.000  O
  O9       1.0000 0.15809  0.17455  0.89989  Biso   1.000  O
  O10      1.0000 0.84191  0.82545  0.10011  Biso   1.000  O
  O11      1.0000 0.11780  0.00504  0.76639  Biso   1.000  O
  O12      1.0000 0.88220  0.99496  0.23361  Biso   1.000  O
  O13      1.0000 0.45271  0.20556  0.90590  Biso   1.000  O
  O14      1.0000 0.54729  0.79444  0.09410  Biso   1.000  O
  O15      1.0000 0.42030  0.04388  0.76546  Biso   1.000  O
  O16      1.0000 0.57970  0.95612  0.23454  Biso   1.000  O
  O17      1.0000 0.16207  0.56835  0.46676  Biso   1.000  O
  O18      1.0000 0.83793  0.43165  0.53324  Biso   1.000  O
  O19      1.0000 0.01066  0.64138  0.57853  Biso   1.000  O
  O20      1.0000 0.98934  0.35862  0.42147  Biso   1.000  O
  O21      1.0000 0.31874  0.42104  0.49841  Biso   1.000  O
  O22      1.0000 0.68126  0.57896  0.50159  Biso   1.000  O
  O23      1.0000 0.53046  0.46711  0.60428  Biso   1.000  O
  O24      1.0000 0.46954  0.53289  0.39572  Biso   1.000  O
  O25      1.0000 0.50549  0.42546  0.07626  Biso   1.000  O
  O26      1.0000 0.49451  0.57454  0.92374  Biso   1.000  O
  O27      1.0000 0.65018  0.59132  0.09746  Biso   1.000  O
  O28      1.0000 0.34982  0.40868  0.90254  Biso   1.000  O
  C1       1.0000 0.20120  0.37720  0.17348  Biso   1.000  C
  C2       1.0000 0.79880  0.62280  0.82652  Biso   1.000  C
  C3       1.0000 0.27390  0.29120  0.19128  Biso   1.000  C
  C4       1.0000 0.72610  0.70880  0.80872  Biso   1.000  C
  C5       1.0000 0.19990  0.09440  0.83203  Biso   1.000  C
  C6       1.0000 0.80010  0.90560  0.16797  Biso   1.000  C
  C7       1.0000 0.37290  0.11470  0.83390  Biso   1.000  C
  C8       1.0000 0.62710  0.88530  0.16610  Biso   1.000  C
  C9       1.0000 0.04890  0.55980  0.51316  Biso   1.000  C
  C10      1.0000 0.95110  0.44020  0.48684  Biso   1.000  C
  C11      1.0000 0.45680  0.46800  0.52949  Biso   1.000  C
  C12      1.0000 0.54320  0.53200  0.47051  Biso   1.000  C
  C13      1.0000 0.54540  0.50470  0.04987  Biso   1.000  C
  C14      1.0000 0.45460  0.49530  0.95013  Biso   1.000  C
  O29      1.0000 0.81870  0.88788  0.65961  Biso   1.000  O
  O30      1.0000 0.18130  0.11212  0.34039  Biso   1.000  O
  H1       1.0000 0.79000  0.83500  0.68500  Biso   1.000  H
  H2       1.0000 0.21000  0.16500  0.31500  Biso   1.000  H
  H3       1.0000 0.88500  0.93200  0.71400  Biso   1.000  H
  H4       1.0000 0.11500  0.06800  0.28600  Biso   1.000  H
  O31      1.0000 0.71110  0.07681  0.72950  Biso   1.000  O
  O32      1.0000 0.28890  0.92319  0.27050  Biso   1.000  O
  H5       1.0000 0.59700  0.06200  0.73100  Biso   1.000  H
  H6       1.0000 0.40300  0.93800  0.26900  Biso   1.000  H
  H7       1.0000 0.74500  0.01200  0.71900  Biso   1.000  H
  H8       1.0000 0.25500  0.98800  0.28100  Biso   1.000  H
  N1       1.0000 0.86160  0.20980  0.92810  Biso   1.000  N
  N2       1.0000 0.13840  0.79020  0.07190  Biso   1.000  N
  H9       1.0000 0.81090  0.16190  0.86370  Biso   1.000  H
  H10      1.0000 0.18910  0.83810  0.13630  Biso   1.000  H
  H11      1.0000 0.96050  0.20910  0.92770  Biso   1.000  H
  H12      1.0000 0.03950  0.79090  0.07230  Biso   1.000  H
  C15      1.0000 0.84900  0.32720  0.95150  Biso   1.000  C
  C16      1.0000 0.15100  0.67280  0.04850  Biso   1.000  C
  H13      1.0000 0.74120  0.32780  0.94810  Biso   1.000  H
  H14      1.0000 0.25880  0.67220  0.05190  Biso   1.000  H
  H15      1.0000 0.90050  0.37950  0.02250  Biso   1.000  H
  H16      1.0000 0.09950  0.62050  0.97750  Biso   1.000  H
  C17      1.0000 0.91870  0.36610  0.87580  Biso   1.000  C
  C18      1.0000 0.08130  0.63390  0.12420  Biso   1.000  C
  H17      1.0000 0.90950  0.44260  0.89220  Biso   1.000  H
  H18      1.0000 0.09050  0.55740  0.10780  Biso   1.000  H
  H19      1.0000 0.02580  0.36650  0.87990  Biso   1.000  H
  H20      1.0000 0.97420  0.63350  0.12010  Biso   1.000  H
  H21      1.0000 0.86670  0.31490  0.80560  Biso   1.000  H
  H22      1.0000 0.13330  0.68510  0.19440  Biso   1.000  H
  C19      1.0000 0.80090  0.16880  0.00330  Biso   1.000  C
  C20      1.0000 0.19910  0.83120  0.99670  Biso   1.000  C
  H23      1.0000 0.85710  0.21980  0.07340  Biso   1.000  H
  H24      1.0000 0.14290  0.78020  0.92660  Biso   1.000  H
  H25      1.0000 0.69350  0.17020  0.00470  Biso   1.000  H
  H26      1.0000 0.30650  0.82980  0.99530  Biso   1.000  H
  C21      1.0000 0.81270  0.05480  0.97740  Biso   1.000  C
  C22      1.0000 0.18730  0.94520  0.02260  Biso   1.000  C
  H27      1.0000 0.77140  0.03000  0.02890  Biso   1.000  H
  H28      1.0000 0.22860  0.97000  0.97110  Biso   1.000  H
  H29      1.0000 0.75560  0.00390  0.90850  Biso   1.000  H
  H30      1.0000 0.24440  0.99610  0.09150  Biso   1.000  H
  H31      1.0000 0.91910  0.05350  0.97720  Biso   1.000  H
  H32      1.0000 0.08090  0.94650  0.02280  Biso   1.000  H
  N3       1.0000 0.74190  0.17100  0.37740  Biso   1.000  N
  N4       1.0000 0.25810  0.82900  0.62260  Biso   1.000  N
  H33      1.0000 0.74680  0.10520  0.32470  Biso   1.000  H
  H34      1.0000 0.25320  0.89480  0.67530  Biso   1.000  H
  H35      1.0000 0.83210  0.22220  0.38940  Biso   1.000  H
  H36      1.0000 0.16790  0.77780  0.61060  Biso   1.000  H
  C23      1.0000 0.61910  0.21310  0.34120  Biso   1.000  C
  C24      1.0000 0.38090  0.78690  0.65880  Biso   1.000  C
  H37      1.0000 0.51880  0.16060  0.33040  Biso   1.000  H
  H38      1.0000 0.48120  0.83940  0.66960  Biso   1.000  H
  H39      1.0000 0.61800  0.28850  0.39430  Biso   1.000  H
  H40      1.0000 0.38200  0.71150  0.60570  Biso   1.000  H
  C25      1.0000 0.65110  0.22020  0.24150  Biso   1.000  C
  C26      1.0000 0.34890  0.77980  0.75850  Biso   1.000  C
  H41      1.0000 0.57290  0.24720  0.21730  Biso   1.000  H
  H42      1.0000 0.42710  0.75280  0.78270  Biso   1.000  H
  H43      1.0000 0.75010  0.27270  0.25290  Biso   1.000  H
  H44      1.0000 0.24990  0.72730  0.74710  Biso   1.000  H
  H45      1.0000 0.65120  0.14520  0.18910  Biso   1.000  H
  H46      1.0000 0.34880  0.85480  0.81090  Biso   1.000  H
  C27      1.0000 0.72400  0.15150  0.46990  Biso   1.000  C
  C28      1.0000 0.27600  0.84850  0.53010  Biso   1.000  C
  H47      1.0000 0.62260  0.10100  0.46050  Biso   1.000  H
  H48      1.0000 0.37740  0.89900  0.53950  Biso   1.000  H
  H49      1.0000 0.73050  0.22420  0.52990  Biso   1.000  H
  H50      1.0000 0.26950  0.77580  0.47010  Biso   1.000  H
  C29      1.0000 0.84160  0.09950  0.49260  Biso   1.000  C
  C30      1.0000 0.15840  0.90050  0.50740  Biso   1.000  C
  H51      1.0000 0.82540  0.08790  0.55530  Biso   1.000  H
  H52      1.0000 0.17460  0.91210  0.44470  Biso   1.000  H
  H53      1.0000 0.83420  0.02680  0.43410  Biso   1.000  H
  H54      1.0000 0.16580  0.97320  0.56590  Biso   1.000  H
  H55      1.0000 0.94220  0.15000  0.50350  Biso   1.000  H
  H56      1.0000 0.05780  0.85000  0.49650  Biso   1.000  H
  N5       1.0000 0.67230  0.64537  0.30888  Biso   1.000  N
  N6       1.0000 0.32770  0.35463  0.69112  Biso   1.000  N
  H57      1.0000 0.61090  0.59730  0.32960  Biso   1.000  H
  H58      1.0000 0.38910  0.40270  0.67040  Biso   1.000  H
  H59      1.0000 0.65070  0.61590  0.23860  Biso   1.000  H
  H60      1.0000 0.34930  0.38410  0.76140  Biso   1.000  H
  C31      1.0000 0.62900  0.75560  0.35270  Biso   1.000  C
  C32      1.0000 0.37100  0.24440  0.64730  Biso   1.000  C
  H61      1.0000 0.64160  0.78620  0.42930  Biso   1.000  H
  H62      1.0000 0.35840  0.21380  0.57070  Biso   1.000  H
  H63      1.0000 0.69660  0.81080  0.33380  Biso   1.000  H
  H64      1.0000 0.30340  0.18920  0.66620  Biso   1.000  H
  C33      1.0000 0.46980  0.73950  0.31210  Biso   1.000  C
  C34      1.0000 0.53020  0.26050  0.68790  Biso   1.000  C
  H65      1.0000 0.44370  0.81200  0.34140  Biso   1.000  H
  H66      1.0000 0.55630  0.18800  0.65860  Biso   1.000  H
  H67      1.0000 0.45780  0.71020  0.23640  Biso   1.000  H
  H68      1.0000 0.54220  0.28980  0.76360  Biso   1.000  H
  H69      1.0000 0.40290  0.68570  0.33170  Biso   1.000  H
  H70      1.0000 0.59710  0.31430  0.66830  Biso   1.000  H
  C35      1.0000 0.82850  0.64450  0.33430  Biso   1.000  C
  C36      1.0000 0.17150  0.35550  0.66570  Biso   1.000  C
  H71      1.0000 0.85570  0.67590  0.41050  Biso   1.000  H
  H72      1.0000 0.14430  0.32410  0.58950  Biso   1.000  H
  H73      1.0000 0.89810  0.69240  0.30890  Biso   1.000  H
  H74      1.0000 0.10190  0.30760  0.69110  Biso   1.000  H
  C37      1.0000 0.84480  0.52860  0.28620  Biso   1.000  C
  C38      1.0000 0.15520  0.47140  0.71380  Biso   1.000  C
  H75      1.0000 0.94940  0.52880  0.30350  Biso   1.000  H
  H76      1.0000 0.05060  0.47120  0.69650  Biso   1.000  H
  H77      1.0000 0.77670  0.48150  0.31210  Biso   1.000  H
  H78      1.0000 0.22330  0.51850  0.68790  Biso   1.000  H
  H79      1.0000 0.81900  0.49800  0.21070  Biso   1.000  H
  H80      1.0000 0.18100  0.50200  0.78930  Biso   1.000  H
