data_image0
_cell_length_a       9.1887
_cell_length_b       13.4549
_cell_length_c       14.3921
_cell_angle_alpha    114.177
_cell_angle_beta     91.629
_cell_angle_gamma    102.828

_symmetry_space_group_name_H-M    "P 1"
_symmetry_int_tables_number       1

loop_
  _symmetry_equiv_pos_as_xyz
  'x, y, z'

loop_
  _atom_site_label
  _atom_site_occupancy
  _atom_site_fract_x
  _atom_site_fract_y
  _atom_site_fract_z
  _atom_site_thermal_displace_type
  _atom_site_B_iso_or_equiv
  _atom_site_type_symbol
  Cu1      1.0000 0.32934  0.29802  0.99534  Biso   1.000  Cu
  Cu2      1.0000 0.67066  0.70198  0.00466  Biso   1.000  Cu
  Cu3      1.0000 0.22039  0.43070  0.37835  Biso   1.000  Cu
  Cu4      1.0000 0.77961  0.56930  0.62165  Biso   1.000  Cu
  O1       1.0000 0.19550  0.37812  0.08868  Biso   1.000  O
  O2       1.0000 0.80450  0.62188  0.91132  Biso   1.000  O
  O3       1.0000 0.32610  0.22932  0.12025  Biso   1.000  O
  O4       1.0000 0.67390  0.77068  0.87975  Biso   1.000  O
  O5       1.0000 0.15670  0.44394  0.25233  Biso   1.000  O
  O6       1.0000 0.84330  0.55606  0.74767  Biso   1.000  O
  O7       1.0000 0.27110  0.29461  0.28130  Biso   1.000  O
  O8       1.0000 0.72890  0.70539  0.71870  Biso   1.000  O
  O9       1.0000 0.15790  0.17640  0.90331  Biso   1.000  O
  O10      1.0000 0.84210  0.82360  0.09669  Biso   1.000  O
  O11      1.0000 0.11610  0.00860  0.76960  Biso   1.000  O
  O12      1.0000 0.88390  0.99140  0.23040  Biso   1.000  O
  O13      1.0000 0.44990  0.20479  0.90570  Biso   1.000  O
  O14      1.0000 0.55010  0.79521  0.09430  Biso   1.000  O
  O15      1.0000 0.41660  0.04430  0.76650  Biso   1.000  O
  O16      1.0000 0.58340  0.95570  0.23350  Biso   1.000  O
  O17      1.0000 0.16230  0.56829  0.46750  Biso   1.000  O
  O18      1.0000 0.83770  0.43171  0.53250  Biso   1.000  O
  O19      1.0000 0.00967  0.64091  0.57856  Biso   1.000  O
  O20      1.0000 0.99033  0.35909  0.42144  Biso   1.000  O
  O21      1.0000 0.31900  0.42086  0.49791  Biso   1.000  O
  O22      1.0000 0.68100  0.57914  0.50209  Biso   1.000  O
  O23      1.0000 0.52780  0.46697  0.60304  Biso   1.000  O
  O24      1.0000 0.47220  0.53303  0.39696  Biso   1.000  O
  O25      1.0000 0.50670  0.42486  0.07472  Biso   1.000  O
  O26      1.0000 0.49330  0.57514  0.92528  Biso   1.000  O
  O27      1.0000 0.65040  0.58998  0.09449  Biso   1.000  O
  O28      1.0000 0.34960  0.41002  0.90551  Biso   1.000  O
  C1       1.0000 0.20510  0.37940  0.17580  Biso   1.000  C
  C2       1.0000 0.79490  0.62060  0.82420  Biso   1.000  C
  C3       1.0000 0.27540  0.29250  0.19260  Biso   1.000  C
  C4       1.0000 0.72460  0.70750  0.80740  Biso   1.000  C
  C5       1.0000 0.19820  0.09650  0.83440  Biso   1.000  C
  C6       1.0000 0.80180  0.90350  0.16560  Biso   1.000  C
  C7       1.0000 0.37090  0.11530  0.83460  Biso   1.000  C
  C8       1.0000 0.62910  0.88470  0.16540  Biso   1.000  C
  C9       1.0000 0.04890  0.55940  0.51344  Biso   1.000  C
  C10      1.0000 0.95110  0.44060  0.48656  Biso   1.000  C
  C11      1.0000 0.45620  0.46800  0.52885  Biso   1.000  C
  C12      1.0000 0.54380  0.53200  0.47115  Biso   1.000  C
  C13      1.0000 0.54590  0.50400  0.04829  Biso   1.000  C
  C14      1.0000 0.45410  0.49600  0.95171  Biso   1.000  C
  O29      1.0000 0.81950  0.88880  0.66120  Biso   1.000  O
  O30      1.0000 0.18050  0.11120  0.33880  Biso   1.000  O
  H1       1.0000 0.81800  0.85200  0.68800  Biso   1.000  H
  H2       1.0000 0.18200  0.14800  0.31200  Biso   1.000  H
  H3       1.0000 0.85800  0.95300  0.72700  Biso   1.000  H
  H4       1.0000 0.14200  0.04700  0.27300  Biso   1.000  H
  O31      1.0000 0.71000  0.07750  0.73220  Biso   1.000  O
  O32      1.0000 0.29000  0.92250  0.26780  Biso   1.000  O
  H5       1.0000 0.60300  0.05700  0.70800  Biso   1.000  H
  H6       1.0000 0.39700  0.94300  0.29200  Biso   1.000  H
  N1       1.0000 0.85900  0.20340  0.93070  Biso   1.000  N
  N2       1.0000 0.14100  0.79660  0.06930  Biso   1.000  N
  H7       1.0000 0.80860  0.15750  0.86860  Biso   1.000  H
  H8       1.0000 0.19140  0.84250  0.13140  Biso   1.000  H
  H9       1.0000 0.95530  0.20240  0.92840  Biso   1.000  H
  H10      1.0000 0.04470  0.79760  0.07160  Biso   1.000  H
  C15      1.0000 0.84550  0.32440  0.95770  Biso   1.000  C
  C16      1.0000 0.15450  0.67560  0.04230  Biso   1.000  C
  H11      1.0000 0.74050  0.32590  0.95720  Biso   1.000  H
  H12      1.0000 0.25950  0.67410  0.04280  Biso   1.000  H
  H13      1.0000 0.89820  0.37510  0.02590  Biso   1.000  H
  H14      1.0000 0.10180  0.62490  0.97410  Biso   1.000  H
  C17      1.0000 0.91210  0.36120  0.88090  Biso   1.000  C
  C18      1.0000 0.08790  0.63880  0.11910  Biso   1.000  C
  H15      1.0000 0.90430  0.43630  0.89710  Biso   1.000  H
  H16      1.0000 0.09570  0.56370  0.10290  Biso   1.000  H
  H17      1.0000 0.01620  0.36010  0.88220  Biso   1.000  H
  H18      1.0000 0.98380  0.63990  0.11780  Biso   1.000  H
  H19      1.0000 0.85900  0.31100  0.81370  Biso   1.000  H
  H20      1.0000 0.14100  0.68900  0.18630  Biso   1.000  H
  C19      1.0000 0.80150  0.16290  0.00350  Biso   1.000  C
  C20      1.0000 0.19850  0.83710  0.99650  Biso   1.000  C
  H21      1.0000 0.85820  0.21290  0.07060  Biso   1.000  H
  H22      1.0000 0.14180  0.78710  0.92940  Biso   1.000  H
  H23      1.0000 0.69770  0.16710  0.00730  Biso   1.000  H
  H24      1.0000 0.30230  0.83290  0.99270  Biso   1.000  H
  C21      1.0000 0.80630  0.05710  0.98320  Biso   1.000  C
  C22      1.0000 0.19370  0.94290  0.01680  Biso   1.000  C
  H25      1.0000 0.76560  0.03750  0.03590  Biso   1.000  H
  H26      1.0000 0.23440  0.96250  0.96410  Biso   1.000  H
  H27      1.0000 0.74800  0.00620  0.91790  Biso   1.000  H
  H28      1.0000 0.25200  0.99380  0.08210  Biso   1.000  H
  H29      1.0000 0.90890  0.05210  0.98140  Biso   1.000  H
  H30      1.0000 0.09110  0.94790  0.01860  Biso   1.000  H
  N3       1.0000 0.74560  0.16980  0.38020  Biso   1.000  N
  N4       1.0000 0.25440  0.83020  0.61980  Biso   1.000  N
  H31      1.0000 0.74940  0.10650  0.32720  Biso   1.000  H
  H32      1.0000 0.25060  0.89350  0.67280  Biso   1.000  H
  H33      1.0000 0.83180  0.22100  0.39010  Biso   1.000  H
  H34      1.0000 0.16820  0.77900  0.60990  Biso   1.000  H
  C23      1.0000 0.61920  0.21060  0.35360  Biso   1.000  C
  C24      1.0000 0.38080  0.78940  0.64640  Biso   1.000  C
  H35      1.0000 0.61680  0.28220  0.40870  Biso   1.000  H
  H36      1.0000 0.38320  0.71780  0.59130  Biso   1.000  H
  H37      1.0000 0.52380  0.15670  0.34370  Biso   1.000  H
  H38      1.0000 0.47620  0.84330  0.65630  Biso   1.000  H
  C25      1.0000 0.64430  0.22410  0.25690  Biso   1.000  C
  C26      1.0000 0.35570  0.77590  0.74310  Biso   1.000  C
  H39      1.0000 0.56430  0.25030  0.23800  Biso   1.000  H
  H40      1.0000 0.43570  0.74970  0.76200  Biso   1.000  H
  H41      1.0000 0.73880  0.27780  0.26770  Biso   1.000  H
  H42      1.0000 0.26120  0.72220  0.73230  Biso   1.000  H
  H43      1.0000 0.64610  0.15280  0.20290  Biso   1.000  H
  H44      1.0000 0.35390  0.84720  0.79710  Biso   1.000  H
  C27      1.0000 0.73280  0.14840  0.47200  Biso   1.000  C
  C28      1.0000 0.26720  0.85160  0.52800  Biso   1.000  C
  H45      1.0000 0.63390  0.09990  0.46530  Biso   1.000  H
  H46      1.0000 0.36610  0.90010  0.53470  Biso   1.000  H
  H47      1.0000 0.74240  0.21910  0.53180  Biso   1.000  H
  H48      1.0000 0.25760  0.78090  0.46820  Biso   1.000  H
  C29      1.0000 0.84960  0.09440  0.48780  Biso   1.000  C
  C30      1.0000 0.15040  0.90560  0.51220  Biso   1.000  C
  H49      1.0000 0.83750  0.08180  0.54850  Biso   1.000  H
  H50      1.0000 0.16250  0.91820  0.45150  Biso   1.000  H
  H51      1.0000 0.83930  0.02370  0.42940  Biso   1.000  H
  H52      1.0000 0.16070  0.97630  0.57060  Biso   1.000  H
  H53      1.0000 0.94770  0.14280  0.49580  Biso   1.000  H
  H54      1.0000 0.05230  0.85720  0.50420  Biso   1.000  H
  N5       1.0000 0.67220  0.64070  0.30496  Biso   1.000  N
  N6       1.0000 0.32780  0.35930  0.69504  Biso   1.000  N
  H55      1.0000 0.61310  0.59500  0.32680  Biso   1.000  H
  H56      1.0000 0.38690  0.40500  0.67320  Biso   1.000  H
  H57      1.0000 0.65030  0.61030  0.23690  Biso   1.000  H
  H58      1.0000 0.34970  0.38970  0.76310  Biso   1.000  H
  C31      1.0000 0.62830  0.75120  0.34730  Biso   1.000  C
  C32      1.0000 0.37170  0.24880  0.65270  Biso   1.000  C
  H59      1.0000 0.64250  0.78320  0.42180  Biso   1.000  H
  H60      1.0000 0.35750  0.21680  0.57820  Biso   1.000  H
  H61      1.0000 0.69300  0.80370  0.32650  Biso   1.000  H
  H62      1.0000 0.30700  0.19630  0.67350  Biso   1.000  H
  C33      1.0000 0.47110  0.73520  0.31040  Biso   1.000  C
  C34      1.0000 0.52890  0.26480  0.68960  Biso   1.000  C
  H63      1.0000 0.44590  0.80640  0.33830  Biso   1.000  H
  H64      1.0000 0.55410  0.19360  0.66170  Biso   1.000  H
  H65      1.0000 0.45730  0.70460  0.23670  Biso   1.000  H
  H66      1.0000 0.54270  0.29540  0.76330  Biso   1.000  H
  H67      1.0000 0.40690  0.68410  0.33190  Biso   1.000  H
  H68      1.0000 0.59310  0.31590  0.66810  Biso   1.000  H
  C35      1.0000 0.82690  0.64020  0.32850  Biso   1.000  C
  C36      1.0000 0.17310  0.35980  0.67150  Biso   1.000  C
  H69      1.0000 0.89410  0.68760  0.30360  Biso   1.000  H
  H70      1.0000 0.10590  0.31240  0.69640  Biso   1.000  H
  H71      1.0000 0.85320  0.67100  0.40230  Biso   1.000  H
  H72      1.0000 0.14680  0.32900  0.59770  Biso   1.000  H
  C37      1.0000 0.84650  0.52750  0.28150  Biso   1.000  C
  C38      1.0000 0.15350  0.47250  0.71850  Biso   1.000  C
  H73      1.0000 0.94930  0.52920  0.29800  Biso   1.000  H
  H74      1.0000 0.05070  0.47080  0.70200  Biso   1.000  H
  H75      1.0000 0.78120  0.48080  0.30690  Biso   1.000  H
  H76      1.0000 0.21880  0.51920  0.69310  Biso   1.000  H
  H77      1.0000 0.82200  0.49740  0.20830  Biso   1.000  H
  H78      1.0000 0.17800  0.50260  0.79170  Biso   1.000  H
  H79      1.0000 0.05100  0.98900  0.79100  Biso   1.000  H
  H80      1.0000 0.94900  0.01100  0.20900  Biso   1.000  H
