data_image0
_cell_length_a       11.8317
_cell_length_b       9.6534
_cell_length_c       17.3496
_cell_angle_alpha    90
_cell_angle_beta     108.042
_cell_angle_gamma    90

_symmetry_space_group_name_H-M    "P 1"
_symmetry_int_tables_number       1

loop_
  _symmetry_equiv_pos_as_xyz
  'x, y, z'

loop_
  _atom_site_label
  _atom_site_occupancy
  _atom_site_fract_x
  _atom_site_fract_y
  _atom_site_fract_z
  _atom_site_thermal_displace_type
  _atom_site_B_iso_or_equiv
  _atom_site_type_symbol
  Cu1      1.0000 0.61415  0.24969  0.99927  Biso   1.000  Cu
  Cu2      1.0000 0.38585  0.74969  0.50073  Biso   1.000  Cu
  Cu3      1.0000 0.38585  0.75031  0.00073  Biso   1.000  Cu
  Cu4      1.0000 0.61415  0.25031  0.49927  Biso   1.000  Cu
  O1       1.0000 0.72504  0.17781  0.94552  Biso   1.000  O
  O2       1.0000 0.27496  0.67781  0.55448  Biso   1.000  O
  O3       1.0000 0.27496  0.82219  0.05448  Biso   1.000  O
  O4       1.0000 0.72504  0.32219  0.44552  Biso   1.000  O
  O5       1.0000 0.75935  0.32874  0.07711  Biso   1.000  O
  O6       1.0000 0.24065  0.82874  0.42289  Biso   1.000  O
  O7       1.0000 0.24065  0.67126  0.92289  Biso   1.000  O
  O8       1.0000 0.75935  0.17126  0.57711  Biso   1.000  O
  O9       1.0000 0.91730  0.18350  0.95877  Biso   1.000  O
  O10      1.0000 0.08270  0.68350  0.54123  Biso   1.000  O
  O11      1.0000 0.08270  0.81650  0.04123  Biso   1.000  O
  O12      1.0000 0.91730  0.31650  0.45877  Biso   1.000  O
  O13      1.0000 0.95433  0.32580  0.09983  Biso   1.000  O
  O14      1.0000 0.04567  0.82580  0.40017  Biso   1.000  O
  O15      1.0000 0.04567  0.67420  0.90017  Biso   1.000  O
  O16      1.0000 0.95433  0.17420  0.59983  Biso   1.000  O
  O17      1.0000 0.51462  0.34633  0.05660  Biso   1.000  O
  O18      1.0000 0.48538  0.84633  0.44340  Biso   1.000  O
  O19      1.0000 0.48538  0.65367  0.94340  Biso   1.000  O
  O20      1.0000 0.51462  0.15367  0.55660  Biso   1.000  O
  O21      1.0000 0.43837  0.54917  0.07458  Biso   1.000  O
  O22      1.0000 0.56163  0.04917  0.42542  Biso   1.000  O
  O23      1.0000 0.56163  0.45083  0.92542  Biso   1.000  O
  O24      1.0000 0.43837  0.95083  0.57458  Biso   1.000  O
  O25      1.0000 0.38276  0.93929  0.91864  Biso   1.000  O
  O26      1.0000 0.61724  0.43929  0.58136  Biso   1.000  O
  O27      1.0000 0.61724  0.06071  0.08136  Biso   1.000  O
  O28      1.0000 0.38276  0.56071  0.41864  Biso   1.000  O
  O29      1.0000 0.48074  0.13777  0.93065  Biso   1.000  O
  O30      1.0000 0.51926  0.63777  0.56935  Biso   1.000  O
  O31      1.0000 0.51926  0.86223  0.06935  Biso   1.000  O
  O32      1.0000 0.48074  0.36223  0.43065  Biso   1.000  O
  C1       1.0000 0.83220  0.21190  0.98206  Biso   1.000  C
  C2       1.0000 0.16780  0.71190  0.51794  Biso   1.000  C
  C3       1.0000 0.16780  0.78810  0.01794  Biso   1.000  C
  C4       1.0000 0.83220  0.28810  0.48206  Biso   1.000  C
  C5       1.0000 0.85240  0.29590  0.06017  Biso   1.000  C
  C6       1.0000 0.14760  0.79590  0.43983  Biso   1.000  C
  C7       1.0000 0.14760  0.70410  0.93983  Biso   1.000  C
  C8       1.0000 0.85240  0.20410  0.56017  Biso   1.000  C
  C9       1.0000 0.48640  0.47170  0.03798  Biso   1.000  C
  C10      1.0000 0.51360  0.97170  0.46202  Biso   1.000  C
  C11      1.0000 0.51360  0.52830  0.96202  Biso   1.000  C
  C12      1.0000 0.48640  0.02830  0.53798  Biso   1.000  C
  C13      1.0000 0.46030  0.02060  0.95656  Biso   1.000  C
  C14      1.0000 0.53970  0.52060  0.54344  Biso   1.000  C
  C15      1.0000 0.53970  0.97940  0.04344  Biso   1.000  C
  C16      1.0000 0.46030  0.47940  0.45656  Biso   1.000  C
  O33      1.0000 0.71060  0.76990  0.21330  Biso   1.000  O
  O34      1.0000 0.28940  0.26990  0.28670  Biso   1.000  O
  O35      1.0000 0.28940  0.23010  0.78670  Biso   1.000  O
  O36      1.0000 0.71060  0.73010  0.71330  Biso   1.000  O
  H1       1.0000 0.67300  0.77300  0.17800  Biso   1.000  H
  H2       1.0000 0.32700  0.27300  0.32200  Biso   1.000  H
  H3       1.0000 0.32700  0.22700  0.82200  Biso   1.000  H
  H4       1.0000 0.67300  0.72700  0.67800  Biso   1.000  H
  H5       1.0000 0.77000  0.85400  0.21400  Biso   1.000  H
  H6       1.0000 0.23000  0.35400  0.28600  Biso   1.000  H
  H7       1.0000 0.23000  0.14600  0.78600  Biso   1.000  H
  H8       1.0000 0.77000  0.64600  0.71400  Biso   1.000  H
  O37      1.0000 0.06290  0.39930  0.25700  Biso   1.000  O
  O38      1.0000 0.93710  0.89930  0.24300  Biso   1.000  O
  O39      1.0000 0.93710  0.60070  0.74300  Biso   1.000  O
  O40      1.0000 0.06290  0.10070  0.75700  Biso   1.000  O
  H9       1.0000 0.02080  0.38580  0.21030  Biso   1.000  H
  H10      1.0000 0.97920  0.88580  0.28970  Biso   1.000  H
  H11      1.0000 0.97920  0.61420  0.78970  Biso   1.000  H
  H12      1.0000 0.02080  0.11420  0.71030  Biso   1.000  H
  C17      1.0000 0.01330  0.50460  0.29170  Biso   1.000  C
  C18      1.0000 0.98670  0.00460  0.20830  Biso   1.000  C
  C19      1.0000 0.98670  0.49540  0.70830  Biso   1.000  C
  C20      1.0000 0.01330  0.99540  0.79170  Biso   1.000  C
  H13      1.0000 0.07560  0.56120  0.32580  Biso   1.000  H
  H14      1.0000 0.92440  0.06120  0.17420  Biso   1.000  H
  H15      1.0000 0.92440  0.43880  0.67420  Biso   1.000  H
  H16      1.0000 0.07560  0.93880  0.82580  Biso   1.000  H
  H17      1.0000 0.96830  0.46430  0.32350  Biso   1.000  H
  H18      1.0000 0.03170  0.96430  0.17650  Biso   1.000  H
  H19      1.0000 0.03170  0.53570  0.67650  Biso   1.000  H
  H20      1.0000 0.96830  0.03570  0.82350  Biso   1.000  H
  H21      1.0000 0.96190  0.56070  0.24960  Biso   1.000  H
  H22      1.0000 0.03810  0.06070  0.25040  Biso   1.000  H
  H23      1.0000 0.03810  0.43930  0.75040  Biso   1.000  H
  H24      1.0000 0.96190  0.93930  0.74960  Biso   1.000  H
  N1       1.0000 0.64550  0.27290  0.22282  Biso   1.000  N
  N2       1.0000 0.35450  0.77290  0.27718  Biso   1.000  N
  N3       1.0000 0.35450  0.72710  0.77718  Biso   1.000  N
  N4       1.0000 0.64550  0.22710  0.72282  Biso   1.000  N
  H25      1.0000 0.62630  0.26650  0.16790  Biso   1.000  H
  H26      1.0000 0.37370  0.76650  0.33210  Biso   1.000  H
  H27      1.0000 0.37370  0.73350  0.83210  Biso   1.000  H
  H28      1.0000 0.62630  0.23350  0.66790  Biso   1.000  H
  C21      1.0000 0.66830  0.41950  0.24300  Biso   1.000  C
  C22      1.0000 0.33170  0.91950  0.25700  Biso   1.000  C
  C23      1.0000 0.33170  0.58050  0.75700  Biso   1.000  C
  C24      1.0000 0.66830  0.08050  0.74300  Biso   1.000  C
  H29      1.0000 0.59500  0.47020  0.22470  Biso   1.000  H
  H30      1.0000 0.40500  0.97020  0.27530  Biso   1.000  H
  H31      1.0000 0.40500  0.52980  0.77530  Biso   1.000  H
  H32      1.0000 0.59500  0.02980  0.72470  Biso   1.000  H
  H33      1.0000 0.72300  0.45500  0.21700  Biso   1.000  H
  H34      1.0000 0.27700  0.95500  0.28300  Biso   1.000  H
  H35      1.0000 0.27700  0.54500  0.78300  Biso   1.000  H
  H36      1.0000 0.72300  0.04500  0.71700  Biso   1.000  H
  H37      1.0000 0.70180  0.42950  0.30070  Biso   1.000  H
  H38      1.0000 0.29820  0.92950  0.19930  Biso   1.000  H
  H39      1.0000 0.29820  0.57050  0.69930  Biso   1.000  H
  H40      1.0000 0.70180  0.07050  0.80070  Biso   1.000  H
  C25      1.0000 0.75610  0.19730  0.25610  Biso   1.000  C
  C26      1.0000 0.24390  0.69730  0.24390  Biso   1.000  C
  C27      1.0000 0.24390  0.80270  0.74390  Biso   1.000  C
  C28      1.0000 0.75610  0.30270  0.75610  Biso   1.000  C
  H41      1.0000 0.78360  0.20810  0.31400  Biso   1.000  H
  H42      1.0000 0.21640  0.70810  0.18600  Biso   1.000  H
  H43      1.0000 0.21640  0.79190  0.68600  Biso   1.000  H
  H44      1.0000 0.78360  0.29190  0.81400  Biso   1.000  H
  H45      1.0000 0.81470  0.23290  0.23350  Biso   1.000  H
  H46      1.0000 0.18530  0.73290  0.26650  Biso   1.000  H
  H47      1.0000 0.18530  0.76710  0.76650  Biso   1.000  H
  H48      1.0000 0.81470  0.26710  0.73350  Biso   1.000  H
  H49      1.0000 0.74300  0.10080  0.24290  Biso   1.000  H
  H50      1.0000 0.25700  0.60080  0.25710  Biso   1.000  H
  H51      1.0000 0.25700  0.89920  0.75710  Biso   1.000  H
  H52      1.0000 0.74300  0.39920  0.74290  Biso   1.000  H
  C29      1.0000 0.54880  0.21360  0.24420  Biso   1.000  C
  C30      1.0000 0.45120  0.71360  0.25580  Biso   1.000  C
  C31      1.0000 0.45120  0.78640  0.75580  Biso   1.000  C
  C32      1.0000 0.54880  0.28640  0.74420  Biso   1.000  C
  H53      1.0000 0.51680  0.13700  0.20890  Biso   1.000  H
  H54      1.0000 0.48320  0.63700  0.29110  Biso   1.000  H
  H55      1.0000 0.48320  0.86300  0.79110  Biso   1.000  H
  H56      1.0000 0.51680  0.36300  0.70890  Biso   1.000  H
  H57      1.0000 0.48810  0.28220  0.23870  Biso   1.000  H
  H58      1.0000 0.51190  0.78220  0.26130  Biso   1.000  H
  H59      1.0000 0.51190  0.71780  0.76130  Biso   1.000  H
  H60      1.0000 0.48810  0.21780  0.73870  Biso   1.000  H
  H61      1.0000 0.57650  0.18160  0.29920  Biso   1.000  H
  H62      1.0000 0.42350  0.68160  0.20080  Biso   1.000  H
  H63      1.0000 0.42350  0.81840  0.70080  Biso   1.000  H
  H64      1.0000 0.57650  0.31840  0.79920  Biso   1.000  H
  N5       1.0000 0.15050  0.27380  0.02580  Biso   1.000  N
  N6       1.0000 0.84950  0.77380  0.47420  Biso   1.000  N
  N7       1.0000 0.84950  0.72620  0.97420  Biso   1.000  N
  N8       1.0000 0.15050  0.22620  0.52580  Biso   1.000  N
  H65      1.0000 0.07210  0.26010  0.01970  Biso   1.000  H
  H66      1.0000 0.92790  0.76010  0.48030  Biso   1.000  H
  H67      1.0000 0.92790  0.73990  0.98030  Biso   1.000  H
  H68      1.0000 0.07210  0.23990  0.51970  Biso   1.000  H
  C33      1.0000 0.21560  0.16020  0.07240  Biso   1.000  C
  C34      1.0000 0.78440  0.66020  0.42760  Biso   1.000  C
  C35      1.0000 0.78440  0.83980  0.92760  Biso   1.000  C
  C36      1.0000 0.21560  0.33980  0.57240  Biso   1.000  C
  H69      1.0000 0.20900  0.08080  0.03800  Biso   1.000  H
  H70      1.0000 0.79100  0.58080  0.46200  Biso   1.000  H
  H71      1.0000 0.79100  0.91920  0.96200  Biso   1.000  H
  H72      1.0000 0.20900  0.41920  0.53800  Biso   1.000  H
  H73      1.0000 0.18360  0.13840  0.11550  Biso   1.000  H
  H74      1.0000 0.81640  0.63840  0.38450  Biso   1.000  H
  H75      1.0000 0.81640  0.86160  0.88450  Biso   1.000  H
  H76      1.0000 0.18360  0.36160  0.61550  Biso   1.000  H
  H77      1.0000 0.29780  0.18560  0.09490  Biso   1.000  H
  H78      1.0000 0.70220  0.68560  0.40510  Biso   1.000  H
  H79      1.0000 0.70220  0.81440  0.90510  Biso   1.000  H
  H80      1.0000 0.29780  0.31440  0.59490  Biso   1.000  H
  C37      1.0000 0.16160  0.29650  0.94850  Biso   1.000  C
  C38      1.0000 0.83840  0.79650  0.55150  Biso   1.000  C
  C39      1.0000 0.83840  0.70350  0.05150  Biso   1.000  C
  C40      1.0000 0.16160  0.20350  0.44850  Biso   1.000  C
  H81      1.0000 0.23660  0.33980  0.95380  Biso   1.000  H
  H82      1.0000 0.76340  0.83980  0.54620  Biso   1.000  H
  H83      1.0000 0.76340  0.66020  0.04620  Biso   1.000  H
  H84      1.0000 0.23660  0.16020  0.45380  Biso   1.000  H
  H85      1.0000 0.09830  0.35570  0.91790  Biso   1.000  H
  H86      1.0000 0.90170  0.85570  0.58210  Biso   1.000  H
  H87      1.0000 0.90170  0.64430  0.08210  Biso   1.000  H
  H88      1.0000 0.09830  0.14430  0.41790  Biso   1.000  H
  H89      1.0000 0.15730  0.20950  0.92090  Biso   1.000  H
  H90      1.0000 0.84270  0.70950  0.57910  Biso   1.000  H
  H91      1.0000 0.84270  0.79050  0.07910  Biso   1.000  H
  H92      1.0000 0.15730  0.29050  0.42090  Biso   1.000  H
  C41      1.0000 0.18840  0.40200  0.07470  Biso   1.000  C
  C42      1.0000 0.81160  0.90200  0.42530  Biso   1.000  C
  C43      1.0000 0.81160  0.59800  0.92530  Biso   1.000  C
  C44      1.0000 0.18840  0.09800  0.57470  Biso   1.000  C
  H93      1.0000 0.17530  0.39120  0.12630  Biso   1.000  H
  H94      1.0000 0.82470  0.89120  0.37370  Biso   1.000  H
  H95      1.0000 0.82470  0.60880  0.87370  Biso   1.000  H
  H96      1.0000 0.17530  0.10880  0.62630  Biso   1.000  H
  H97      1.0000 0.14310  0.47930  0.04650  Biso   1.000  H
  H98      1.0000 0.85690  0.97930  0.45350  Biso   1.000  H
  H99      1.0000 0.85690  0.52070  0.95350  Biso   1.000  H
  H100     1.0000 0.14310  0.02070  0.54650  Biso   1.000  H
  H101     1.0000 0.27140  0.41820  0.08290  Biso   1.000  H
  H102     1.0000 0.72860  0.91820  0.41710  Biso   1.000  H
  H103     1.0000 0.72860  0.58180  0.91710  Biso   1.000  H
  H104     1.0000 0.27140  0.08180  0.58290  Biso   1.000  H
