data_image0
_cell_length_a       9.1043
_cell_length_b       9.4286
_cell_length_c       11.6225
_cell_angle_alpha    94.154
_cell_angle_beta     112.273
_cell_angle_gamma    95.734

_symmetry_space_group_name_H-M    "P 1"
_symmetry_int_tables_number       1

loop_
  _symmetry_equiv_pos_as_xyz
  'x, y, z'

loop_
  _atom_site_label
  _atom_site_occupancy
  _atom_site_fract_x
  _atom_site_fract_y
  _atom_site_fract_z
  _atom_site_thermal_displace_type
  _atom_site_B_iso_or_equiv
  _atom_site_type_symbol
  Cu1      1.0000 0.50037  0.73938  0.87259  Biso   1.000  Cu
  Cu2      1.0000 0.49963  0.26062  0.12741  Biso   1.000  Cu
  O1       1.0000 0.33961  0.77733  0.71096  Biso   1.000  O
  O2       1.0000 0.66039  0.22267  0.28904  Biso   1.000  O
  O3       1.0000 0.61267  0.67513  0.76892  Biso   1.000  O
  O4       1.0000 0.38733  0.32487  0.23108  Biso   1.000  O
  O5       1.0000 0.29890  0.75410  0.50942  Biso   1.000  O
  O6       1.0000 0.70110  0.24590  0.49058  Biso   1.000  O
  O7       1.0000 0.59870  0.67730  0.57388  Biso   1.000  O
  O8       1.0000 0.40130  0.32270  0.42612  Biso   1.000  O
  O9       1.0000 0.38230  0.83066  0.96479  Biso   1.000  O
  O10      1.0000 0.61770  0.16934  0.03521  Biso   1.000  O
  O11      1.0000 0.35780  0.03487  0.06068  Biso   1.000  O
  O12      1.0000 0.64220  0.96513  0.93932  Biso   1.000  O
  O13      1.0000 0.63775  0.65287  0.01942  Biso   1.000  O
  O14      1.0000 0.36225  0.34713  0.98058  Biso   1.000  O
  O15      1.0000 0.65852  0.47346  0.13509  Biso   1.000  O
  O16      1.0000 0.34148  0.52654  0.86491  Biso   1.000  O
  C1       1.0000 0.37900  0.74590  0.61960  Biso   1.000  C
  C2       1.0000 0.62100  0.25410  0.38040  Biso   1.000  C
  C3       1.0000 0.54530  0.69470  0.65540  Biso   1.000  C
  C4       1.0000 0.45470  0.30530  0.34460  Biso   1.000  C
  C5       1.0000 0.42450  0.96230  0.00750  Biso   1.000  C
  C6       1.0000 0.57550  0.03770  0.99250  Biso   1.000  C
  C7       1.0000 0.58540  0.53530  0.04510  Biso   1.000  C
  C8       1.0000 0.41460  0.46470  0.95490  Biso   1.000  C
  O17      1.0000 0.02170  0.88500  0.42570  Biso   1.000  O
  O18      1.0000 0.97830  0.11500  0.57430  Biso   1.000  O
  H1       1.0000 0.08500  0.80700  0.45800  Biso   1.000  H
  H2       1.0000 0.91500  0.19300  0.54200  Biso   1.000  H
  H3       1.0000 0.10500  0.96100  0.42700  Biso   1.000  H
  H4       1.0000 0.89500  0.03900  0.57300  Biso   1.000  H
  O19      1.0000 0.95500  0.79460  0.16910  Biso   1.000  O
  O20      1.0000 0.04500  0.20540  0.83090  Biso   1.000  O
  H5       1.0000 0.85800  0.75500  0.10200  Biso   1.000  H
  H6       1.0000 0.14200  0.24500  0.89800  Biso   1.000  H
  H7       1.0000 0.93400  0.81200  0.24500  Biso   1.000  H
  H8       1.0000 0.06600  0.18800  0.75500  Biso   1.000  H
  O21      1.0000 0.00000  0.00000  0.00000  Biso   1.000  O
  H9       1.0000 0.06300  0.96000  0.07200  Biso   1.000  H
  H10      1.0000 0.93700  0.04000  0.92800  Biso   1.000  H
  N1       1.0000 0.47200  0.76770  0.33710  Biso   1.000  N
  N2       1.0000 0.52800  0.23230  0.66290  Biso   1.000  N
  H11      1.0000 0.47310  0.73420  0.40880  Biso   1.000  H
  H12      1.0000 0.52690  0.26580  0.59120  Biso   1.000  H
  C9       1.0000 0.43650  0.91450  0.34000  Biso   1.000  C
  C10      1.0000 0.56350  0.08550  0.66000  Biso   1.000  C
  H13      1.0000 0.33410  0.91590  0.34550  Biso   1.000  H
  H14      1.0000 0.66590  0.08410  0.65450  Biso   1.000  H
  H15      1.0000 0.43420  0.95230  0.26500  Biso   1.000  H
  H16      1.0000 0.56580  0.04770  0.73500  Biso   1.000  H
  H17      1.0000 0.51770  0.97220  0.41150  Biso   1.000  H
  H18      1.0000 0.48230  0.02780  0.58850  Biso   1.000  H
  C11      1.0000 0.34410  0.67820  0.23170  Biso   1.000  C
  C12      1.0000 0.65590  0.32180  0.76830  Biso   1.000  C
  H19      1.0000 0.36650  0.58090  0.23080  Biso   1.000  H
  H20      1.0000 0.63350  0.41910  0.76920  Biso   1.000  H
  H21      1.0000 0.33810  0.71330  0.15480  Biso   1.000  H
  H22      1.0000 0.66190  0.28670  0.84520  Biso   1.000  H
  H23      1.0000 0.24380  0.68180  0.24040  Biso   1.000  H
  H24      1.0000 0.75620  0.31820  0.75960  Biso   1.000  H
  C13      1.0000 0.62670  0.75190  0.32930  Biso   1.000  C
  C14      1.0000 0.37330  0.24810  0.67070  Biso   1.000  C
  H25      1.0000 0.64150  0.65250  0.32820  Biso   1.000  H
  H26      1.0000 0.35850  0.34750  0.67180  Biso   1.000  H
  H27      1.0000 0.71140  0.80670  0.40060  Biso   1.000  H
  H28      1.0000 0.28860  0.19330  0.59940  Biso   1.000  H
  H29      1.0000 0.62860  0.78630  0.25400  Biso   1.000  H
  H30      1.0000 0.37140  0.21370  0.74600  Biso   1.000  H
  N3       1.0000 0.94930  0.32880  0.22940  Biso   1.000  N
  N4       1.0000 0.05070  0.67120  0.77060  Biso   1.000  N
  H31      1.0000 0.84100  0.32150  0.20430  Biso   1.000  H
  H32      1.0000 0.15900  0.67850  0.79570  Biso   1.000  H
  C15      1.0000 0.99630  0.18610  0.26290  Biso   1.000  C
  C16      1.0000 0.00370  0.81390  0.73710  Biso   1.000  C
  H33      1.0000 0.96910  0.16240  0.33200  Biso   1.000  H
  H34      1.0000 0.03090  0.83760  0.66800  Biso   1.000  H
  H35      1.0000 0.10970  0.18910  0.28620  Biso   1.000  H
  H36      1.0000 0.89030  0.81090  0.71380  Biso   1.000  H
  H37      1.0000 0.94040  0.11470  0.19230  Biso   1.000  H
  H38      1.0000 0.05960  0.88530  0.80770  Biso   1.000  H
  C17      1.0000 0.98910  0.36910  0.12310  Biso   1.000  C
  C18      1.0000 0.01090  0.63090  0.87690  Biso   1.000  C
  H39      1.0000 0.95720  0.46120  0.10300  Biso   1.000  H
  H40      1.0000 0.04280  0.53880  0.89700  Biso   1.000  H
  H41      1.0000 0.93350  0.29850  0.05170  Biso   1.000  H
  H42      1.0000 0.06650  0.70150  0.94830  Biso   1.000  H
  H43      1.0000 0.10250  0.37370  0.14550  Biso   1.000  H
  H44      1.0000 0.89750  0.62630  0.85450  Biso   1.000  H
  C19      1.0000 0.02170  0.44060  0.34000  Biso   1.000  C
  C20      1.0000 0.97830  0.55940  0.66000  Biso   1.000  C
  H45      1.0000 0.99260  0.41110  0.40670  Biso   1.000  H
  H46      1.0000 0.00740  0.58890  0.59330  Biso   1.000  H
  H47      1.0000 0.98290  0.52980  0.31740  Biso   1.000  H
  H48      1.0000 0.01710  0.47020  0.68260  Biso   1.000  H
  H49      1.0000 0.13630  0.45310  0.36710  Biso   1.000  H
  H50      1.0000 0.86370  0.54690  0.63290  Biso   1.000  H
