data_image0
_cell_length_a       16.9291
_cell_length_b       9.6931
_cell_length_c       19.2582
_cell_angle_alpha    90
_cell_angle_beta     136.812
_cell_angle_gamma    90

_symmetry_space_group_name_H-M    "P 1"
_symmetry_int_tables_number       1

loop_
  _symmetry_equiv_pos_as_xyz
  'x, y, z'

loop_
  _atom_site_label
  _atom_site_occupancy
  _atom_site_fract_x
  _atom_site_fract_y
  _atom_site_fract_z
  _atom_site_thermal_displace_type
  _atom_site_B_iso_or_equiv
  _atom_site_type_symbol
  Cu1      1.0000 0.10362  0.25262  0.52946  Biso   1.000  Cu
  Cu2      1.0000 0.89638  0.75262  0.97054  Biso   1.000  Cu
  Cu3      1.0000 0.89638  0.74738  0.47054  Biso   1.000  Cu
  Cu4      1.0000 0.10362  0.24738  0.02946  Biso   1.000  Cu
  O1       1.0000 0.25502  0.17380  0.64874  Biso   1.000  O
  O2       1.0000 0.74498  0.67380  0.85126  Biso   1.000  O
  O3       1.0000 0.74498  0.82620  0.35126  Biso   1.000  O
  O4       1.0000 0.25502  0.32620  0.14874  Biso   1.000  O
  O5       1.0000 0.18784  0.33458  0.50424  Biso   1.000  O
  O6       1.0000 0.81216  0.83458  0.99576  Biso   1.000  O
  O7       1.0000 0.81216  0.66542  0.49576  Biso   1.000  O
  O8       1.0000 0.18784  0.16542  0.00424  Biso   1.000  O
  O9       1.0000 0.43789  0.18590  0.73133  Biso   1.000  O
  O10      1.0000 0.56211  0.68590  0.76867  Biso   1.000  O
  O11      1.0000 0.56211  0.81410  0.26867  Biso   1.000  O
  O12      1.0000 0.43789  0.31410  0.23133  Biso   1.000  O
  O13      1.0000 0.36713  0.34390  0.57698  Biso   1.000  O
  O14      1.0000 0.63287  0.84390  0.92302  Biso   1.000  O
  O15      1.0000 0.63287  0.65610  0.42302  Biso   1.000  O
  O16      1.0000 0.36713  0.15610  0.07698  Biso   1.000  O
  O17      1.0000 0.03552  0.15297  0.56695  Biso   1.000  O
  O18      1.0000 0.96448  0.65297  0.93305  Biso   1.000  O
  O19      1.0000 0.96448  0.84703  0.43305  Biso   1.000  O
  O20      1.0000 0.03552  0.34703  0.06695  Biso   1.000  O
  O21      1.0000 0.96410  0.36345  0.42082  Biso   1.000  O
  O22      1.0000 0.03590  0.86345  0.07918  Biso   1.000  O
  O23      1.0000 0.03590  0.63655  0.57918  Biso   1.000  O
  O24      1.0000 0.96410  0.13655  0.92082  Biso   1.000  O
  O25      1.0000 0.97301  0.95214  0.56839  Biso   1.000  O
  O26      1.0000 0.02699  0.45214  0.93161  Biso   1.000  O
  O27      1.0000 0.02699  0.04786  0.43161  Biso   1.000  O
  O28      1.0000 0.97301  0.54786  0.06839  Biso   1.000  O
  O29      1.0000 0.87309  0.56128  0.38164  Biso   1.000  O
  O30      1.0000 0.12691  0.06128  0.11836  Biso   1.000  O
  O31      1.0000 0.12691  0.43872  0.61836  Biso   1.000  O
  O32      1.0000 0.87309  0.93872  0.88164  Biso   1.000  O
  C1       1.0000 0.33410  0.21500  0.65950  Biso   1.000  C
  C2       1.0000 0.66590  0.71500  0.84050  Biso   1.000  C
  C3       1.0000 0.66590  0.78500  0.34050  Biso   1.000  C
  C4       1.0000 0.33410  0.28500  0.15950  Biso   1.000  C
  C5       1.0000 0.29460  0.30640  0.57350  Biso   1.000  C
  C6       1.0000 0.70540  0.80640  0.92650  Biso   1.000  C
  C7       1.0000 0.70540  0.69360  0.42650  Biso   1.000  C
  C8       1.0000 0.29460  0.19360  0.07350  Biso   1.000  C
  C9       1.0000 0.00230  0.02820  0.53929  Biso   1.000  C
  C10      1.0000 0.99770  0.52820  0.96071  Biso   1.000  C
  C11      1.0000 0.99770  0.97180  0.46071  Biso   1.000  C
  C12      1.0000 0.00230  0.47180  0.03929  Biso   1.000  C
  C13      1.0000 0.95312  0.47860  0.44324  Biso   1.000  C
  C14      1.0000 0.04688  0.97860  0.05676  Biso   1.000  C
  C15      1.0000 0.04688  0.52140  0.55676  Biso   1.000  C
  C16      1.0000 0.95312  0.02140  0.94324  Biso   1.000  C
  O33      1.0000 0.57560  0.11030  0.93950  Biso   1.000  O
  O34      1.0000 0.42440  0.61030  0.56050  Biso   1.000  O
  O35      1.0000 0.42440  0.88970  0.06050  Biso   1.000  O
  O36      1.0000 0.57560  0.38970  0.43950  Biso   1.000  O
  H1       1.0000 0.59900  0.05400  0.93900  Biso   1.000  H
  H2       1.0000 0.40100  0.55400  0.56100  Biso   1.000  H
  H3       1.0000 0.40100  0.94600  0.06100  Biso   1.000  H
  H4       1.0000 0.59900  0.44600  0.43900  Biso   1.000  H
  H5       1.0000 0.52200  0.12400  0.87700  Biso   1.000  H
  H6       1.0000 0.47800  0.62400  0.62300  Biso   1.000  H
  H7       1.0000 0.47800  0.87600  0.12300  Biso   1.000  H
  H8       1.0000 0.52200  0.37600  0.37700  Biso   1.000  H
  N1       1.0000 0.10980  0.27270  0.74558  Biso   1.000  N
  N2       1.0000 0.89020  0.77270  0.75442  Biso   1.000  N
  N3       1.0000 0.89020  0.72730  0.25442  Biso   1.000  N
  N4       1.0000 0.10980  0.22730  0.24558  Biso   1.000  N
  H9       1.0000 0.09800  0.26870  0.69130  Biso   1.000  H
  H10      1.0000 0.90200  0.76870  0.80870  Biso   1.000  H
  H11      1.0000 0.90200  0.73130  0.30870  Biso   1.000  H
  H12      1.0000 0.09800  0.23130  0.19130  Biso   1.000  H
  C17      1.0000 0.99550  0.24990  0.70500  Biso   1.000  C
  C18      1.0000 0.00450  0.74990  0.79500  Biso   1.000  C
  C19      1.0000 0.00450  0.75010  0.29500  Biso   1.000  C
  C20      1.0000 0.99550  0.25010  0.20500  Biso   1.000  C
  H13      1.0000 0.00380  0.25520  0.76040  Biso   1.000  H
  H14      1.0000 0.99620  0.75520  0.73960  Biso   1.000  H
  H15      1.0000 0.99620  0.74480  0.23960  Biso   1.000  H
  H16      1.0000 0.00380  0.24480  0.26040  Biso   1.000  H
  H17      1.0000 0.96890  0.15780  0.67650  Biso   1.000  H
  H18      1.0000 0.03110  0.65780  0.82350  Biso   1.000  H
  H19      1.0000 0.03110  0.84220  0.32350  Biso   1.000  H
  H20      1.0000 0.96890  0.34220  0.17650  Biso   1.000  H
  C21      1.0000 0.90600  0.35260  0.62480  Biso   1.000  C
  C22      1.0000 0.09400  0.85260  0.87520  Biso   1.000  C
  C23      1.0000 0.09400  0.64740  0.37520  Biso   1.000  C
  C24      1.0000 0.90600  0.14740  0.12480  Biso   1.000  C
  H21      1.0000 0.83420  0.33300  0.60150  Biso   1.000  H
  H22      1.0000 0.16580  0.83300  0.89850  Biso   1.000  H
  H23      1.0000 0.16580  0.66700  0.39850  Biso   1.000  H
  H24      1.0000 0.83420  0.16700  0.10150  Biso   1.000  H
  H25      1.0000 0.89590  0.34640  0.56890  Biso   1.000  H
  H26      1.0000 0.10410  0.84640  0.93110  Biso   1.000  H
  H27      1.0000 0.10410  0.65360  0.43110  Biso   1.000  H
  H28      1.0000 0.89590  0.15360  0.06890  Biso   1.000  H
  H29      1.0000 0.93090  0.44400  0.65280  Biso   1.000  H
  H30      1.0000 0.06910  0.94400  0.84720  Biso   1.000  H
  H31      1.0000 0.06910  0.55600  0.34720  Biso   1.000  H
  H32      1.0000 0.93090  0.05600  0.15280  Biso   1.000  H
  C25      1.0000 0.18930  0.15520  0.81370  Biso   1.000  C
  C26      1.0000 0.81070  0.65520  0.68630  Biso   1.000  C
  C27      1.0000 0.81070  0.84480  0.18630  Biso   1.000  C
  C28      1.0000 0.18930  0.34480  0.31370  Biso   1.000  C
  H33      1.0000 0.15360  0.06960  0.77600  Biso   1.000  H
  H34      1.0000 0.84640  0.56960  0.72400  Biso   1.000  H
  H35      1.0000 0.84640  0.93040  0.22400  Biso   1.000  H
  H36      1.0000 0.15360  0.43040  0.27600  Biso   1.000  H
  H37      1.0000 0.19890  0.15080  0.86990  Biso   1.000  H
  H38      1.0000 0.80110  0.65080  0.63010  Biso   1.000  H
  H39      1.0000 0.80110  0.84920  0.13010  Biso   1.000  H
  H40      1.0000 0.19890  0.34920  0.36990  Biso   1.000  H
  C29      1.0000 0.30610  0.16670  0.85540  Biso   1.000  C
  C30      1.0000 0.69390  0.66670  0.64460  Biso   1.000  C
  C31      1.0000 0.69390  0.83330  0.14460  Biso   1.000  C
  C32      1.0000 0.30610  0.33330  0.35540  Biso   1.000  C
  H41      1.0000 0.35270  0.08920  0.89870  Biso   1.000  H
  H42      1.0000 0.64730  0.58920  0.60130  Biso   1.000  H
  H43      1.0000 0.64730  0.91080  0.10130  Biso   1.000  H
  H44      1.0000 0.35270  0.41080  0.39870  Biso   1.000  H
  H45      1.0000 0.34270  0.25050  0.89370  Biso   1.000  H
  H46      1.0000 0.65730  0.75050  0.60630  Biso   1.000  H
  H47      1.0000 0.65730  0.74950  0.10630  Biso   1.000  H
  H48      1.0000 0.34270  0.24950  0.39370  Biso   1.000  H
  H49      1.0000 0.29770  0.16770  0.80040  Biso   1.000  H
  H50      1.0000 0.70230  0.66770  0.69960  Biso   1.000  H
  H51      1.0000 0.70230  0.83230  0.19960  Biso   1.000  H
  H52      1.0000 0.29770  0.33230  0.30040  Biso   1.000  H
  C33      1.0000 0.16050  0.41230  0.79230  Biso   1.000  C
  C34      1.0000 0.83950  0.91230  0.70770  Biso   1.000  C
  C35      1.0000 0.83950  0.58770  0.20770  Biso   1.000  C
  C36      1.0000 0.16050  0.08770  0.29230  Biso   1.000  C
  H53      1.0000 0.22910  0.42380  0.80800  Biso   1.000  H
  H54      1.0000 0.77090  0.92380  0.69200  Biso   1.000  H
  H55      1.0000 0.77090  0.57620  0.19200  Biso   1.000  H
  H56      1.0000 0.22910  0.07620  0.30800  Biso   1.000  H
  H57      1.0000 0.10530  0.48230  0.74300  Biso   1.000  H
  H58      1.0000 0.89470  0.98230  0.75700  Biso   1.000  H
  H59      1.0000 0.89470  0.51770  0.25700  Biso   1.000  H
  H60      1.0000 0.10530  0.01770  0.24300  Biso   1.000  H
  C37      1.0000 0.19180  0.43480  0.88670  Biso   1.000  C
  C38      1.0000 0.80820  0.93480  0.61330  Biso   1.000  C
  C39      1.0000 0.80820  0.56520  0.11330  Biso   1.000  C
  C40      1.0000 0.19180  0.06520  0.38670  Biso   1.000  C
  H61      1.0000 0.22380  0.52550  0.91270  Biso   1.000  H
  H62      1.0000 0.77620  0.02550  0.58730  Biso   1.000  H
  H63      1.0000 0.77620  0.47450  0.08730  Biso   1.000  H
  H64      1.0000 0.22380  0.97450  0.41270  Biso   1.000  H
  H65      1.0000 0.24770  0.36720  0.93650  Biso   1.000  H
  H66      1.0000 0.75230  0.86720  0.56350  Biso   1.000  H
  H67      1.0000 0.75230  0.63280  0.06350  Biso   1.000  H
  H68      1.0000 0.24770  0.13280  0.43650  Biso   1.000  H
  H69      1.0000 0.12390  0.42620  0.87150  Biso   1.000  H
  H70      1.0000 0.87610  0.92620  0.62850  Biso   1.000  H
  H71      1.0000 0.87610  0.57380  0.12850  Biso   1.000  H
  H72      1.0000 0.12390  0.07380  0.37150  Biso   1.000  H
  N5       1.0000 0.60510  0.22470  0.72490  Biso   1.000  N
  N6       1.0000 0.39490  0.72470  0.77510  Biso   1.000  N
  N7       1.0000 0.39490  0.77530  0.27510  Biso   1.000  N
  N8       1.0000 0.60510  0.27530  0.22490  Biso   1.000  N
  H73      1.0000 0.53760  0.24690  0.70320  Biso   1.000  H
  H74      1.0000 0.46240  0.74690  0.79680  Biso   1.000  H
  H75      1.0000 0.46240  0.75310  0.29680  Biso   1.000  H
  H76      1.0000 0.53760  0.25310  0.20320  Biso   1.000  H
  C41      1.0000 0.60160  0.28850  0.65340  Biso   1.000  C
  C42      1.0000 0.39840  0.78850  0.84660  Biso   1.000  C
  C43      1.0000 0.39840  0.71150  0.34660  Biso   1.000  C
  C44      1.0000 0.60160  0.21150  0.15340  Biso   1.000  C
  H77      1.0000 0.59200  0.38730  0.65270  Biso   1.000  H
  H78      1.0000 0.40800  0.88730  0.84730  Biso   1.000  H
  H79      1.0000 0.40800  0.61270  0.34730  Biso   1.000  H
  H80      1.0000 0.59200  0.11270  0.15270  Biso   1.000  H
  H81      1.0000 0.53460  0.25380  0.58580  Biso   1.000  H
  H82      1.0000 0.46540  0.75380  0.91420  Biso   1.000  H
  H83      1.0000 0.46540  0.74620  0.41420  Biso   1.000  H
  H84      1.0000 0.53460  0.24620  0.08580  Biso   1.000  H
  C45      1.0000 0.70820  0.26210  0.67790  Biso   1.000  C
  C46      1.0000 0.29180  0.76210  0.82210  Biso   1.000  C
  C47      1.0000 0.29180  0.73790  0.32210  Biso   1.000  C
  C48      1.0000 0.70820  0.23790  0.17790  Biso   1.000  C
  H85      1.0000 0.69970  0.30670  0.62830  Biso   1.000  H
  H86      1.0000 0.30030  0.80670  0.87170  Biso   1.000  H
  H87      1.0000 0.30030  0.69330  0.37170  Biso   1.000  H
  H88      1.0000 0.69970  0.19330  0.12830  Biso   1.000  H
  H89      1.0000 0.71750  0.16460  0.67710  Biso   1.000  H
  H90      1.0000 0.28250  0.66460  0.82290  Biso   1.000  H
  H91      1.0000 0.28250  0.83540  0.32290  Biso   1.000  H
  H92      1.0000 0.71750  0.33540  0.17710  Biso   1.000  H
  H93      1.0000 0.77490  0.29830  0.74400  Biso   1.000  H
  H94      1.0000 0.22510  0.79830  0.75600  Biso   1.000  H
  H95      1.0000 0.22510  0.70170  0.25600  Biso   1.000  H
  H96      1.0000 0.77490  0.20170  0.24400  Biso   1.000  H
  C49      1.0000 0.69870  0.27580  0.82930  Biso   1.000  C
  C50      1.0000 0.30130  0.77580  0.67070  Biso   1.000  C
  C51      1.0000 0.30130  0.72420  0.17070  Biso   1.000  C
  C52      1.0000 0.69870  0.22420  0.32930  Biso   1.000  C
  H97      1.0000 0.73830  0.19340  0.87050  Biso   1.000  H
  H98      1.0000 0.26170  0.69340  0.62950  Biso   1.000  H
  H99      1.0000 0.26170  0.80660  0.12950  Biso   1.000  H
  H100     1.0000 0.73830  0.30660  0.37050  Biso   1.000  H
  H101     1.0000 0.75160  0.32110  0.83160  Biso   1.000  H
  H102     1.0000 0.24840  0.82110  0.66840  Biso   1.000  H
  H103     1.0000 0.24840  0.67890  0.16840  Biso   1.000  H
  H104     1.0000 0.75160  0.17890  0.33160  Biso   1.000  H
  C53      1.0000 0.69490  0.35320  0.87930  Biso   1.000  C
  C54      1.0000 0.30510  0.85320  0.62070  Biso   1.000  C
  C55      1.0000 0.30510  0.64680  0.12070  Biso   1.000  C
  C56      1.0000 0.69490  0.14680  0.37930  Biso   1.000  C
  H105     1.0000 0.77130  0.36510  0.94660  Biso   1.000  H
  H106     1.0000 0.22870  0.86510  0.55340  Biso   1.000  H
  H107     1.0000 0.22870  0.63490  0.05340  Biso   1.000  H
  H108     1.0000 0.77130  0.13490  0.44660  Biso   1.000  H
  H109     1.0000 0.64640  0.31220  0.88300  Biso   1.000  H
  H110     1.0000 0.35360  0.81220  0.61700  Biso   1.000  H
  H111     1.0000 0.35360  0.68780  0.11700  Biso   1.000  H
  H112     1.0000 0.64640  0.18780  0.38300  Biso   1.000  H
  H113     1.0000 0.66400  0.44140  0.84640  Biso   1.000  H
  H114     1.0000 0.33600  0.94140  0.65360  Biso   1.000  H
  H115     1.0000 0.33600  0.55860  0.15360  Biso   1.000  H
  H116     1.0000 0.66400  0.05860  0.34640  Biso   1.000  H
  C57      1.0000 0.60940  0.06750  0.72330  Biso   1.000  C
  C58      1.0000 0.39060  0.56750  0.77670  Biso   1.000  C
  C59      1.0000 0.39060  0.93250  0.27670  Biso   1.000  C
  C60      1.0000 0.60940  0.43250  0.22330  Biso   1.000  C
  H117     1.0000 0.68400  0.03970  0.75300  Biso   1.000  H
  H118     1.0000 0.31600  0.53970  0.74700  Biso   1.000  H
  H119     1.0000 0.31600  0.96030  0.24700  Biso   1.000  H
  H120     1.0000 0.68400  0.46030  0.25300  Biso   1.000  H
  H121     1.0000 0.60190  0.02940  0.76490  Biso   1.000  H
  H122     1.0000 0.39810  0.52940  0.73510  Biso   1.000  H
  H123     1.0000 0.39810  0.97060  0.23510  Biso   1.000  H
  H124     1.0000 0.60190  0.47060  0.26490  Biso   1.000  H
  C61      1.0000 0.52020  0.01110  0.62270  Biso   1.000  C
  C62      1.0000 0.47980  0.51110  0.87730  Biso   1.000  C
  C63      1.0000 0.47980  0.98890  0.37730  Biso   1.000  C
  C64      1.0000 0.52020  0.48890  0.12270  Biso   1.000  C
  H125     1.0000 0.52650  0.91240  0.62590  Biso   1.000  H
  H126     1.0000 0.47350  0.41240  0.87410  Biso   1.000  H
  H127     1.0000 0.47350  0.08760  0.37410  Biso   1.000  H
  H128     1.0000 0.52650  0.58760  0.12590  Biso   1.000  H
  H129     1.0000 0.52840  0.04650  0.58160  Biso   1.000  H
  H130     1.0000 0.47160  0.54650  0.91840  Biso   1.000  H
  H131     1.0000 0.47160  0.95350  0.41840  Biso   1.000  H
  H132     1.0000 0.52840  0.45350  0.08160  Biso   1.000  H
  H133     1.0000 0.44600  0.03680  0.59330  Biso   1.000  H
  H134     1.0000 0.55400  0.53680  0.90670  Biso   1.000  H
  H135     1.0000 0.55400  0.96320  0.40670  Biso   1.000  H
  H136     1.0000 0.44600  0.46320  0.09330  Biso   1.000  H
