data_image0
_cell_length_a       8.2788
_cell_length_b       10.6756
_cell_length_c       21.814
_cell_angle_alpha    90
_cell_angle_beta     90
_cell_angle_gamma    90

_symmetry_space_group_name_H-M    "P 1"
_symmetry_int_tables_number       1

loop_
  _symmetry_equiv_pos_as_xyz
  'x, y, z'

loop_
  _atom_site_label
  _atom_site_occupancy
  _atom_site_fract_x
  _atom_site_fract_y
  _atom_site_fract_z
  _atom_site_thermal_displace_type
  _atom_site_B_iso_or_equiv
  _atom_site_type_symbol
  Cu1      1.0000 0.00372  0.18683  0.19527  Biso   1.000  Cu
  Cu2      1.0000 0.49628  0.81317  0.69527  Biso   1.000  Cu
  Cu3      1.0000 0.50372  0.31317  0.80473  Biso   1.000  Cu
  Cu4      1.0000 0.99628  0.68683  0.30473  Biso   1.000  Cu
  Ni1      1.0000 0.26164  0.92783  0.09669  Biso   1.000  Ni
  Ni2      1.0000 0.23836  0.07217  0.59669  Biso   1.000  Ni
  Ni3      1.0000 0.76164  0.57217  0.90331  Biso   1.000  Ni
  Ni4      1.0000 0.73836  0.42783  0.40331  Biso   1.000  Ni
  O1       1.0000 0.03962  0.32284  0.13466  Biso   1.000  O
  O2       1.0000 0.46038  0.67716  0.63466  Biso   1.000  O
  O3       1.0000 0.53962  0.17716  0.86534  Biso   1.000  O
  O4       1.0000 0.96038  0.82284  0.36534  Biso   1.000  O
  O5       1.0000 0.01415  0.42532  0.04760  Biso   1.000  O
  O6       1.0000 0.48585  0.57468  0.54760  Biso   1.000  O
  O7       1.0000 0.51415  0.07468  0.95240  Biso   1.000  O
  O8       1.0000 0.98585  0.92532  0.45240  Biso   1.000  O
  O9       1.0000 0.06340  0.04757  0.10670  Biso   1.000  O
  O10      1.0000 0.43660  0.95243  0.60670  Biso   1.000  O
  O11      1.0000 0.56340  0.45243  0.89330  Biso   1.000  O
  O12      1.0000 0.93660  0.54757  0.39330  Biso   1.000  O
  O13      1.0000 0.94515  0.02741  0.01486  Biso   1.000  O
  O14      1.0000 0.55485  0.97259  0.51486  Biso   1.000  O
  O15      1.0000 0.44515  0.47259  0.98514  Biso   1.000  O
  O16      1.0000 0.05485  0.52741  0.48514  Biso   1.000  O
  O17      1.0000 0.90133  0.30780  0.27580  Biso   1.000  O
  O18      1.0000 0.59867  0.69220  0.77580  Biso   1.000  O
  O19      1.0000 0.40133  0.19220  0.72420  Biso   1.000  O
  O20      1.0000 0.09867  0.80780  0.22420  Biso   1.000  O
  O21      1.0000 0.88135  0.28131  0.37773  Biso   1.000  O
  O22      1.0000 0.61865  0.71869  0.87773  Biso   1.000  O
  O23      1.0000 0.38135  0.21869  0.62227  Biso   1.000  O
  O24      1.0000 0.11865  0.78131  0.12227  Biso   1.000  O
  O25      1.0000 0.22586  0.20708  0.22608  Biso   1.000  O
  O26      1.0000 0.27414  0.79292  0.72608  Biso   1.000  O
  O27      1.0000 0.72586  0.29292  0.77392  Biso   1.000  O
  O28      1.0000 0.77414  0.70708  0.27392  Biso   1.000  O
  O29      1.0000 0.41023  0.24058  0.29726  Biso   1.000  O
  O30      1.0000 0.08977  0.75942  0.79726  Biso   1.000  O
  O31      1.0000 0.91023  0.25942  0.70274  Biso   1.000  O
  O32      1.0000 0.58977  0.74058  0.20274  Biso   1.000  O
  O33      1.0000 0.21768  0.88659  0.00690  Biso   1.000  O
  O34      1.0000 0.28232  0.11341  0.50690  Biso   1.000  O
  O35      1.0000 0.71768  0.61341  0.99310  Biso   1.000  O
  O36      1.0000 0.78232  0.38659  0.49310  Biso   1.000  O
  O37      1.0000 0.40699  0.07240  0.06889  Biso   1.000  O
  O38      1.0000 0.09301  0.92760  0.56889  Biso   1.000  O
  O39      1.0000 0.90699  0.42760  0.93111  Biso   1.000  O
  O40      1.0000 0.59301  0.57240  0.43111  Biso   1.000  O
  O41      1.0000 0.45388  0.80362  0.09199  Biso   1.000  O
  O42      1.0000 0.04612  0.19638  0.59199  Biso   1.000  O
  O43      1.0000 0.95388  0.69638  0.90801  Biso   1.000  O
  O44      1.0000 0.54612  0.30362  0.40801  Biso   1.000  O
  O45      1.0000 0.32852  0.97114  0.18432  Biso   1.000  O
  O46      1.0000 0.17148  0.02886  0.68432  Biso   1.000  O
  O47      1.0000 0.82852  0.52886  0.81568  Biso   1.000  O
  O48      1.0000 0.67148  0.47114  0.31568  Biso   1.000  O
  N1       1.0000 0.79162  0.14022  0.15942  Biso   1.000  N
  N2       1.0000 0.70838  0.85978  0.65942  Biso   1.000  N
  N3       1.0000 0.29162  0.35978  0.84058  Biso   1.000  N
  N4       1.0000 0.20838  0.64022  0.34058  Biso   1.000  N
  N5       1.0000 0.95516  0.05936  0.26073  Biso   1.000  N
  N6       1.0000 0.54484  0.94064  0.76073  Biso   1.000  N
  N7       1.0000 0.45516  0.44064  0.73927  Biso   1.000  N
  N8       1.0000 0.04484  0.55936  0.23927  Biso   1.000  N
  C1       1.0000 0.96570  0.34480  0.08417  Biso   1.000  C
  C2       1.0000 0.53430  0.65520  0.58417  Biso   1.000  C
  C3       1.0000 0.46570  0.15520  0.91583  Biso   1.000  C
  C4       1.0000 0.03430  0.84480  0.41583  Biso   1.000  C
  C5       1.0000 0.81110  0.27391  0.06813  Biso   1.000  C
  C6       1.0000 0.68890  0.72609  0.56813  Biso   1.000  C
  C7       1.0000 0.31110  0.22609  0.93187  Biso   1.000  C
  C8       1.0000 0.18890  0.77391  0.43187  Biso   1.000  C
  C9       1.0000 0.80127  0.13880  0.09211  Biso   1.000  C
  C10      1.0000 0.69873  0.86120  0.59211  Biso   1.000  C
  C11      1.0000 0.30127  0.36120  0.90789  Biso   1.000  C
  C12      1.0000 0.19873  0.63880  0.40789  Biso   1.000  C
  C13      1.0000 0.94920  0.06438  0.06960  Biso   1.000  C
  C14      1.0000 0.55080  0.93562  0.56960  Biso   1.000  C
  C15      1.0000 0.44920  0.43562  0.93040  Biso   1.000  C
  C16      1.0000 0.05080  0.56438  0.43040  Biso   1.000  C
  C17      1.0000 0.74300  0.01880  0.18684  Biso   1.000  C
  C18      1.0000 0.75700  0.98120  0.68684  Biso   1.000  C
  C19      1.0000 0.24300  0.48120  0.81316  Biso   1.000  C
  C20      1.0000 0.25700  0.51880  0.31316  Biso   1.000  C
  C21      1.0000 0.78070  0.02623  0.25483  Biso   1.000  C
  C22      1.0000 0.71930  0.97377  0.75483  Biso   1.000  C
  C23      1.0000 0.28070  0.47377  0.74517  Biso   1.000  C
  C24      1.0000 0.21930  0.52623  0.24517  Biso   1.000  C
  C25      1.0000 0.99630  0.11564  0.32052  Biso   1.000  C
  C26      1.0000 0.50370  0.88436  0.82052  Biso   1.000  C
  C27      1.0000 0.49630  0.38436  0.67948  Biso   1.000  C
  C28      1.0000 0.00370  0.61564  0.17948  Biso   1.000  C
  C29      1.0000 0.91960  0.24622  0.32480  Biso   1.000  C
  C30      1.0000 0.58040  0.75378  0.82480  Biso   1.000  C
  C31      1.0000 0.41960  0.25378  0.67520  Biso   1.000  C
  C32      1.0000 0.08040  0.74622  0.17520  Biso   1.000  C
  C33      1.0000 0.18020  0.12318  0.32895  Biso   1.000  C
  C34      1.0000 0.31980  0.87682  0.82895  Biso   1.000  C
  C35      1.0000 0.68020  0.37682  0.67105  Biso   1.000  C
  C36      1.0000 0.81980  0.62318  0.17105  Biso   1.000  C
  C37      1.0000 0.27790  0.19743  0.28171  Biso   1.000  C
  C38      1.0000 0.22210  0.80257  0.78171  Biso   1.000  C
  C39      1.0000 0.77790  0.30257  0.71829  Biso   1.000  C
  C40      1.0000 0.72210  0.69743  0.21829  Biso   1.000  C
  H1       1.0000 0.71929  0.31974  0.08628  Biso   1.000  H
  H2       1.0000 0.78071  0.68026  0.58628  Biso   1.000  H
  H3       1.0000 0.21929  0.18026  0.91372  Biso   1.000  H
  H4       1.0000 0.28071  0.81974  0.41372  Biso   1.000  H
  H5       1.0000 0.80233  0.27592  0.02568  Biso   1.000  H
  H6       1.0000 0.69767  0.72408  0.52568  Biso   1.000  H
  H7       1.0000 0.30233  0.22408  0.97432  Biso   1.000  H
  H8       1.0000 0.19767  0.77592  0.47432  Biso   1.000  H
  H9       1.0000 0.70270  0.10034  0.07711  Biso   1.000  H
  H10      1.0000 0.79730  0.89966  0.57711  Biso   1.000  H
  H11      1.0000 0.20270  0.39966  0.92289  Biso   1.000  H
  H12      1.0000 0.29730  0.60034  0.42289  Biso   1.000  H
  H13      1.0000 0.62921  0.00256  0.18025  Biso   1.000  H
  H14      1.0000 0.87079  0.99744  0.68025  Biso   1.000  H
  H15      1.0000 0.12921  0.49744  0.81975  Biso   1.000  H
  H16      1.0000 0.37079  0.50256  0.31975  Biso   1.000  H
  H17      1.0000 0.80759  0.95420  0.16742  Biso   1.000  H
  H18      1.0000 0.69241  0.04580  0.66742  Biso   1.000  H
  H19      1.0000 0.30759  0.54580  0.83258  Biso   1.000  H
  H20      1.0000 0.19241  0.45420  0.33258  Biso   1.000  H
  H21      1.0000 0.72736  0.07993  0.27068  Biso   1.000  H
  H22      1.0000 0.77264  0.92007  0.77068  Biso   1.000  H
  H23      1.0000 0.22736  0.42007  0.72932  Biso   1.000  H
  H24      1.0000 0.27264  0.57993  0.22932  Biso   1.000  H
  H25      1.0000 0.75233  0.94832  0.27713  Biso   1.000  H
  H26      1.0000 0.74767  0.05168  0.77713  Biso   1.000  H
  H27      1.0000 0.25233  0.55168  0.72287  Biso   1.000  H
  H28      1.0000 0.24767  0.44832  0.22287  Biso   1.000  H
  H29      1.0000 0.95338  0.06722  0.35453  Biso   1.000  H
  H30      1.0000 0.54662  0.93278  0.85453  Biso   1.000  H
  H31      1.0000 0.45338  0.43278  0.64547  Biso   1.000  H
  H32      1.0000 0.04662  0.56722  0.14547  Biso   1.000  H
  H33      1.0000 0.21108  0.15442  0.37015  Biso   1.000  H
  H34      1.0000 0.28892  0.84558  0.87015  Biso   1.000  H
  H35      1.0000 0.71108  0.34558  0.62985  Biso   1.000  H
  H36      1.0000 0.78892  0.65442  0.12985  Biso   1.000  H
  H37      1.0000 0.21770  0.03301  0.32943  Biso   1.000  H
  H38      1.0000 0.28230  0.96699  0.82943  Biso   1.000  H
  H39      1.0000 0.71770  0.46699  0.67057  Biso   1.000  H
  H40      1.0000 0.78230  0.53301  0.17057  Biso   1.000  H
  H41      1.0000 0.39682  0.14081  0.07779  Biso   1.000  H
  H42      1.0000 0.10318  0.85919  0.57779  Biso   1.000  H
  H43      1.0000 0.89682  0.35919  0.92221  Biso   1.000  H
  H44      1.0000 0.60318  0.64081  0.42221  Biso   1.000  H
  H45      1.0000 0.43369  0.06884  0.03120  Biso   1.000  H
  H46      1.0000 0.06631  0.93116  0.53120  Biso   1.000  H
  H47      1.0000 0.93369  0.43116  0.96880  Biso   1.000  H
  H48      1.0000 0.56631  0.56884  0.46880  Biso   1.000  H
  H49      1.0000 0.48952  0.78519  0.12311  Biso   1.000  H
  H50      1.0000 0.01048  0.21481  0.62311  Biso   1.000  H
  H51      1.0000 0.98952  0.71481  0.87689  Biso   1.000  H
  H52      1.0000 0.51048  0.28519  0.37689  Biso   1.000  H
  H53      1.0000 0.53036  0.81981  0.06907  Biso   1.000  H
  H54      1.0000 0.96964  0.18019  0.56907  Biso   1.000  H
  H55      1.0000 0.03036  0.68019  0.93093  Biso   1.000  H
  H56      1.0000 0.46964  0.31981  0.43093  Biso   1.000  H
  H57      1.0000 0.29074  0.04845  0.19395  Biso   1.000  H
  H58      1.0000 0.20926  0.95155  0.69395  Biso   1.000  H
  H59      1.0000 0.79074  0.45155  0.80605  Biso   1.000  H
  H60      1.0000 0.70926  0.54845  0.30605  Biso   1.000  H
  H61      1.0000 0.27560  0.91872  0.20888  Biso   1.000  H
  H62      1.0000 0.22440  0.08128  0.70888  Biso   1.000  H
  H63      1.0000 0.77560  0.58128  0.79112  Biso   1.000  H
  H64      1.0000 0.72440  0.41872  0.29112  Biso   1.000  H
  H65      1.0000 0.13028  0.92260  0.00393  Biso   1.000  H
  H66      1.0000 0.36972  0.07740  0.50393  Biso   1.000  H
  H67      1.0000 0.63028  0.57740  0.99607  Biso   1.000  H
  H68      1.0000 0.86972  0.42260  0.49607  Biso   1.000  H
  H69      1.0000 0.21091  0.81153  0.00283  Biso   1.000  H
  H70      1.0000 0.28909  0.18847  0.50283  Biso   1.000  H
  H71      1.0000 0.71091  0.68847  0.99717  Biso   1.000  H
  H72      1.0000 0.78909  0.31153  0.49717  Biso   1.000  H
  H73      1.0000 0.71903  0.19677  0.16907  Biso   1.000  H
  H74      1.0000 0.78097  0.80323  0.66907  Biso   1.000  H
  H75      1.0000 0.21903  0.30323  0.83093  Biso   1.000  H
  H76      1.0000 0.28097  0.69677  0.33093  Biso   1.000  H
  H77      1.0000 0.00496  0.99267  0.25534  Biso   1.000  H
  H78      1.0000 0.49504  0.00733  0.75534  Biso   1.000  H
  H79      1.0000 0.50496  0.50733  0.74466  Biso   1.000  H
  H80      1.0000 0.99504  0.49267  0.24466  Biso   1.000  H
  O49      1.0000 0.17800  0.63322  0.99631  Biso   1.000  O
  O50      1.0000 0.32200  0.36678  0.49631  Biso   1.000  O
  O51      1.0000 0.67800  0.86678  0.00369  Biso   1.000  O
  O52      1.0000 0.82200  0.13322  0.50369  Biso   1.000  O
  H81      1.0000 0.26400  0.60304  0.99370  Biso   1.000  H
  H82      1.0000 0.23600  0.39696  0.49370  Biso   1.000  H
  H83      1.0000 0.76400  0.89696  0.00630  Biso   1.000  H
  H84      1.0000 0.73600  0.10304  0.50630  Biso   1.000  H
  H85      1.0000 0.12711  0.59702  0.02126  Biso   1.000  H
  H86      1.0000 0.37289  0.40298  0.52126  Biso   1.000  H
  H87      1.0000 0.62711  0.90298  0.97874  Biso   1.000  H
  H88      1.0000 0.87289  0.09702  0.47874  Biso   1.000  H
  O53      1.0000 0.57429  0.33910  0.19357  Biso   1.000  O
  O54      1.0000 0.92571  0.66090  0.69357  Biso   1.000  O
  O55      1.0000 0.07429  0.16090  0.80643  Biso   1.000  O
  O56      1.0000 0.42571  0.83910  0.30643  Biso   1.000  O
  H89      1.0000 0.52843  0.31729  0.22273  Biso   1.000  H
  H90      1.0000 0.97157  0.68271  0.72273  Biso   1.000  H
  H91      1.0000 0.02843  0.18271  0.77727  Biso   1.000  H
  H92      1.0000 0.47157  0.81729  0.27727  Biso   1.000  H
  H93      1.0000 0.50585  0.33726  0.16729  Biso   1.000  H
  H94      1.0000 0.99415  0.66274  0.66729  Biso   1.000  H
  H95      1.0000 0.00585  0.16274  0.83271  Biso   1.000  H
  H96      1.0000 0.49415  0.83726  0.33271  Biso   1.000  H
  O57      1.0000 0.36126  0.32774  0.09224  Biso   1.000  O
  O58      1.0000 0.13874  0.67226  0.59224  Biso   1.000  O
  O59      1.0000 0.86126  0.17226  0.90776  Biso   1.000  O
  O60      1.0000 0.63874  0.82774  0.40776  Biso   1.000  O
  H97      1.0000 0.28057  0.33960  0.10411  Biso   1.000  H
  H98      1.0000 0.21943  0.66040  0.60411  Biso   1.000  H
  H99      1.0000 0.78057  0.16040  0.89589  Biso   1.000  H
  H100     1.0000 0.71943  0.83960  0.39589  Biso   1.000  H
  H101     1.0000 0.37070  0.37559  0.06085  Biso   1.000  H
  H102     1.0000 0.12930  0.62441  0.56085  Biso   1.000  H
  H103     1.0000 0.87070  0.12441  0.93915  Biso   1.000  H
  H104     1.0000 0.62930  0.87559  0.43915  Biso   1.000  H
