data_image0
_cell_length_a       10.133
_cell_length_b       11.911
_cell_length_c       14.074
_cell_angle_alpha    90
_cell_angle_beta     90
_cell_angle_gamma    90

_symmetry_space_group_name_H-M    "P 1"
_symmetry_int_tables_number       1

loop_
  _symmetry_equiv_pos_as_xyz
  'x, y, z'

loop_
  _atom_site_label
  _atom_site_occupancy
  _atom_site_fract_x
  _atom_site_fract_y
  _atom_site_fract_z
  _atom_site_thermal_displace_type
  _atom_site_B_iso_or_equiv
  _atom_site_type_symbol
  Cu1      1.0000 0.62938  0.17786  0.00047  Biso   1.000  Cu
  Cu2      1.0000 0.87062  0.82214  0.50047  Biso   1.000  Cu
  Cu3      1.0000 0.12938  0.32214  0.99953  Biso   1.000  Cu
  Cu4      1.0000 0.37062  0.67786  0.49953  Biso   1.000  Cu
  Cl1      1.0000 0.15440  0.83870  0.90450  Biso   1.000  Cl
  Cl2      1.0000 0.34560  0.16130  0.40450  Biso   1.000  Cl
  Cl3      1.0000 0.65440  0.66130  0.09550  Biso   1.000  Cl
  Cl4      1.0000 0.84560  0.33870  0.59550  Biso   1.000  Cl
  O1       1.0000 0.72360  0.30510  0.94630  Biso   1.000  O
  O2       1.0000 0.77640  0.69490  0.44630  Biso   1.000  O
  O3       1.0000 0.22360  0.19490  0.05370  Biso   1.000  O
  O4       1.0000 0.27640  0.80510  0.55370  Biso   1.000  O
  O5       1.0000 0.92400  0.25140  0.99530  Biso   1.000  O
  O6       1.0000 0.57600  0.74860  0.49530  Biso   1.000  O
  O7       1.0000 0.42400  0.24860  0.00470  Biso   1.000  O
  O8       1.0000 0.07600  0.75140  0.50470  Biso   1.000  O
  O9       1.0000 0.04450  0.81650  0.95710  Biso   1.000  O
  O10      1.0000 0.45550  0.18350  0.45710  Biso   1.000  O
  O11      1.0000 0.54450  0.68350  0.04290  Biso   1.000  O
  O12      1.0000 0.95550  0.31650  0.54290  Biso   1.000  O
  O13      1.0000 0.26500  0.77700  0.92900  Biso   1.000  O
  O14      1.0000 0.23500  0.22300  0.42900  Biso   1.000  O
  O15      1.0000 0.76500  0.72300  0.07100  Biso   1.000  O
  O16      1.0000 0.73500  0.27700  0.57100  Biso   1.000  O
  O17      1.0000 0.16850  0.92590  0.85660  Biso   1.000  O
  O18      1.0000 0.33150  0.07410  0.35660  Biso   1.000  O
  O19      1.0000 0.66850  0.57410  0.14340  Biso   1.000  O
  O20      1.0000 0.83150  0.42590  0.64340  Biso   1.000  O
  O21      1.0000 0.12820  0.78700  0.81100  Biso   1.000  O
  O22      1.0000 0.37180  0.21300  0.31100  Biso   1.000  O
  O23      1.0000 0.62820  0.71300  0.18900  Biso   1.000  O
  O24      1.0000 0.87180  0.28700  0.68900  Biso   1.000  O
  N1       1.0000 0.17310  0.29340  0.86470  Biso   1.000  N
  N2       1.0000 0.32690  0.70660  0.36470  Biso   1.000  N
  N3       1.0000 0.67310  0.20660  0.13530  Biso   1.000  N
  N4       1.0000 0.82690  0.79340  0.63530  Biso   1.000  N
  N5       1.0000 0.03470  0.45990  0.94320  Biso   1.000  N
  N6       1.0000 0.46530  0.54010  0.44320  Biso   1.000  N
  N7       1.0000 0.53470  0.04010  0.05680  Biso   1.000  N
  N8       1.0000 0.96530  0.95990  0.55680  Biso   1.000  N
  N9       1.0000 0.09270  0.39740  0.12390  Biso   1.000  N
  N10      1.0000 0.40730  0.60260  0.62390  Biso   1.000  N
  N11      1.0000 0.59270  0.10260  0.87610  Biso   1.000  N
  N12      1.0000 0.90730  0.89740  0.37610  Biso   1.000  N
  C1       1.0000 0.20760  0.19370  0.82630  Biso   1.000  C
  C2       1.0000 0.29240  0.80630  0.32630  Biso   1.000  C
  C3       1.0000 0.70760  0.30630  0.17370  Biso   1.000  C
  C4       1.0000 0.79240  0.69370  0.67370  Biso   1.000  C
  H1       1.0000 0.21660  0.12980  0.86360  Biso   1.000  H
  H2       1.0000 0.28340  0.87020  0.36360  Biso   1.000  H
  H3       1.0000 0.71660  0.37020  0.13640  Biso   1.000  H
  H4       1.0000 0.78340  0.62980  0.63640  Biso   1.000  H
  C5       1.0000 0.22930  0.19010  0.72790  Biso   1.000  C
  C6       1.0000 0.27070  0.80990  0.22790  Biso   1.000  C
  C7       1.0000 0.72930  0.30990  0.27210  Biso   1.000  C
  C8       1.0000 0.77070  0.69010  0.77210  Biso   1.000  C
  H5       1.0000 0.25520  0.12260  0.70040  Biso   1.000  H
  H6       1.0000 0.24480  0.87740  0.20040  Biso   1.000  H
  H7       1.0000 0.75520  0.37740  0.29960  Biso   1.000  H
  H8       1.0000 0.74480  0.62260  0.79960  Biso   1.000  H
  C9       1.0000 0.21490  0.27500  0.67540  Biso   1.000  C
  C10      1.0000 0.28510  0.72500  0.17540  Biso   1.000  C
  C11      1.0000 0.71490  0.22500  0.32460  Biso   1.000  C
  C12      1.0000 0.78510  0.77500  0.82460  Biso   1.000  C
  H9       1.0000 0.23130  0.26830  0.61060  Biso   1.000  H
  H10      1.0000 0.26870  0.73170  0.11060  Biso   1.000  H
  H11      1.0000 0.73130  0.23170  0.38940  Biso   1.000  H
  H12      1.0000 0.76870  0.76830  0.88940  Biso   1.000  H
  C13      1.0000 0.17590  0.37700  0.71120  Biso   1.000  C
  C14      1.0000 0.32410  0.62300  0.21120  Biso   1.000  C
  C15      1.0000 0.67590  0.12300  0.28880  Biso   1.000  C
  C16      1.0000 0.82410  0.87700  0.78880  Biso   1.000  C
  H13      1.0000 0.16430  0.43950  0.67250  Biso   1.000  H
  H14      1.0000 0.33570  0.56050  0.17250  Biso   1.000  H
  H15      1.0000 0.66430  0.06050  0.32750  Biso   1.000  H
  H16      1.0000 0.83570  0.93950  0.82750  Biso   1.000  H
  C17      1.0000 0.15540  0.38120  0.80530  Biso   1.000  C
  C18      1.0000 0.34460  0.61880  0.30530  Biso   1.000  C
  C19      1.0000 0.65540  0.11880  0.19470  Biso   1.000  C
  C20      1.0000 0.84460  0.88120  0.69470  Biso   1.000  C
  C21      1.0000 0.11100  0.48960  0.85830  Biso   1.000  C
  C22      1.0000 0.38900  0.51040  0.35830  Biso   1.000  C
  C23      1.0000 0.61100  0.01040  0.14170  Biso   1.000  C
  C24      1.0000 0.88900  0.98960  0.64170  Biso   1.000  C
  H17      1.0000 0.18800  0.53290  0.87660  Biso   1.000  H
  H18      1.0000 0.31200  0.46710  0.37660  Biso   1.000  H
  H19      1.0000 0.68800  0.96710  0.12340  Biso   1.000  H
  H20      1.0000 0.81200  0.03290  0.62340  Biso   1.000  H
  H21      1.0000 0.05750  0.53540  0.81640  Biso   1.000  H
  H22      1.0000 0.44250  0.46460  0.31640  Biso   1.000  H
  H23      1.0000 0.55750  0.96460  0.18360  Biso   1.000  H
  H24      1.0000 0.94250  0.03540  0.68360  Biso   1.000  H
  C25      1.0000 0.03640  0.54730  0.01760  Biso   1.000  C
  C26      1.0000 0.46360  0.45270  0.51760  Biso   1.000  C
  C27      1.0000 0.53640  0.95270  0.98240  Biso   1.000  C
  C28      1.0000 0.96360  0.04730  0.48240  Biso   1.000  C
  H25      1.0000 0.11430  0.59360  0.00960  Biso   1.000  H
  H26      1.0000 0.38570  0.40640  0.50960  Biso   1.000  H
  H27      1.0000 0.61430  0.90640  0.99040  Biso   1.000  H
  H28      1.0000 0.88570  0.09360  0.49040  Biso   1.000  H
  H29      1.0000 0.95960  0.59510  0.01020  Biso   1.000  H
  H30      1.0000 0.54040  0.40490  0.51020  Biso   1.000  H
  H31      1.0000 0.45960  0.90490  0.98980  Biso   1.000  H
  H32      1.0000 0.04040  0.09510  0.48980  Biso   1.000  H
  C29      1.0000 0.03640  0.49860  0.11380  Biso   1.000  C
  C30      1.0000 0.46360  0.50140  0.61380  Biso   1.000  C
  C31      1.0000 0.53640  0.00140  0.88620  Biso   1.000  C
  C32      1.0000 0.96360  0.99860  0.38620  Biso   1.000  C
  C33      1.0000 0.98970  0.55400  0.19240  Biso   1.000  C
  C34      1.0000 0.51030  0.44600  0.69240  Biso   1.000  C
  C35      1.0000 0.48970  0.94600  0.80760  Biso   1.000  C
  C36      1.0000 0.01030  0.05400  0.30760  Biso   1.000  C
  H33      1.0000 0.94950  0.62370  0.18510  Biso   1.000  H
  H34      1.0000 0.55050  0.37630  0.68510  Biso   1.000  H
  H35      1.0000 0.44950  0.87630  0.81490  Biso   1.000  H
  H36      1.0000 0.05050  0.12370  0.31490  Biso   1.000  H
  C37      1.0000 0.00130  0.50820  0.28220  Biso   1.000  C
  C38      1.0000 0.49870  0.49180  0.78220  Biso   1.000  C
  C39      1.0000 0.50130  0.99180  0.71780  Biso   1.000  C
  C40      1.0000 0.99870  0.00820  0.21780  Biso   1.000  C
  H37      1.0000 0.96930  0.54610  0.33520  Biso   1.000  H
  H38      1.0000 0.53070  0.45390  0.83520  Biso   1.000  H
  H39      1.0000 0.46930  0.95390  0.66480  Biso   1.000  H
  H40      1.0000 0.03070  0.04610  0.16480  Biso   1.000  H
  C41      1.0000 0.06030  0.40650  0.29130  Biso   1.000  C
  C42      1.0000 0.43970  0.59350  0.79130  Biso   1.000  C
  C43      1.0000 0.56030  0.09350  0.70870  Biso   1.000  C
  C44      1.0000 0.93970  0.90650  0.20870  Biso   1.000  C
  H41      1.0000 0.06950  0.37370  0.35080  Biso   1.000  H
  H42      1.0000 0.43050  0.62630  0.85080  Biso   1.000  H
  H43      1.0000 0.56950  0.12630  0.64920  Biso   1.000  H
  H44      1.0000 0.93050  0.87370  0.14920  Biso   1.000  H
  C45      1.0000 0.10700  0.35190  0.21080  Biso   1.000  C
  C46      1.0000 0.39300  0.64810  0.71080  Biso   1.000  C
  C47      1.0000 0.60700  0.14810  0.78920  Biso   1.000  C
  C48      1.0000 0.89300  0.85190  0.28920  Biso   1.000  C
  H45      1.0000 0.14880  0.28270  0.21700  Biso   1.000  H
  H46      1.0000 0.35120  0.71730  0.71700  Biso   1.000  H
  H47      1.0000 0.64880  0.21730  0.78300  Biso   1.000  H
  H48      1.0000 0.85120  0.78270  0.28300  Biso   1.000  H
  C49      1.0000 0.84740  0.31880  0.95870  Biso   1.000  C
  C50      1.0000 0.65260  0.68120  0.45870  Biso   1.000  C
  C51      1.0000 0.34740  0.18120  0.04130  Biso   1.000  C
  C52      1.0000 0.15260  0.81880  0.54130  Biso   1.000  C
  C53      1.0000 0.89870  0.42760  0.91450  Biso   1.000  C
  C54      1.0000 0.60130  0.57240  0.41450  Biso   1.000  C
  C55      1.0000 0.39870  0.07240  0.08550  Biso   1.000  C
  C56      1.0000 0.10130  0.92760  0.58550  Biso   1.000  C
  H49      1.0000 0.89630  0.42000  0.84590  Biso   1.000  H
  H50      1.0000 0.60370  0.58000  0.34590  Biso   1.000  H
  H51      1.0000 0.39630  0.08000  0.15410  Biso   1.000  H
  H52      1.0000 0.10370  0.92000  0.65410  Biso   1.000  H
  H53      1.0000 0.83910  0.48810  0.93160  Biso   1.000  H
  H54      1.0000 0.66090  0.51190  0.43160  Biso   1.000  H
  H55      1.0000 0.33910  0.01190  0.06840  Biso   1.000  H
  H56      1.0000 0.16090  0.98810  0.56840  Biso   1.000  H
  O25      1.0000 0.86360  0.02100  0.99250  Biso   1.000  O
  O26      1.0000 0.63640  0.97900  0.49250  Biso   1.000  O
  O27      1.0000 0.36360  0.47900  0.00750  Biso   1.000  O
  O28      1.0000 0.13640  0.52100  0.50750  Biso   1.000  O
