data_image0
_cell_length_a       14.2356
_cell_length_b       9.5229
_cell_length_c       14.5542
_cell_angle_alpha    90
_cell_angle_beta     109.87
_cell_angle_gamma    90

_symmetry_space_group_name_H-M    "P 1"
_symmetry_int_tables_number       1

loop_
  _symmetry_equiv_pos_as_xyz
  'x, y, z'

loop_
  _atom_site_label
  _atom_site_occupancy
  _atom_site_fract_x
  _atom_site_fract_y
  _atom_site_fract_z
  _atom_site_thermal_displace_type
  _atom_site_B_iso_or_equiv
  _atom_site_type_symbol
  Cu1      1.0000 0.68989  0.42201  0.80033  Biso   1.000  Cu
  Cu2      1.0000 0.18989  0.07799  0.30033  Biso   1.000  Cu
  Cu3      1.0000 0.31011  0.57799  0.19967  Biso   1.000  Cu
  Cu4      1.0000 0.81011  0.92201  0.69967  Biso   1.000  Cu
  Cl1      1.0000 0.70841  0.93070  0.10682  Biso   1.000  Cl
  Cl2      1.0000 0.20841  0.56930  0.60682  Biso   1.000  Cl
  Cl3      1.0000 0.29159  0.06930  0.89318  Biso   1.000  Cl
  Cl4      1.0000 0.79159  0.43070  0.39318  Biso   1.000  Cl
  O1       1.0000 0.80430  0.47710  0.76460  Biso   1.000  O
  O2       1.0000 0.30430  0.02290  0.26460  Biso   1.000  O
  O3       1.0000 0.19570  0.52290  0.23540  Biso   1.000  O
  O4       1.0000 0.69570  0.97710  0.73540  Biso   1.000  O
  O5       1.0000 0.75170  0.68610  0.69840  Biso   1.000  O
  O6       1.0000 0.25170  0.81390  0.19840  Biso   1.000  O
  O7       1.0000 0.24830  0.31390  0.30160  Biso   1.000  O
  O8       1.0000 0.74830  0.18610  0.80160  Biso   1.000  O
  O9       1.0000 0.80010  0.88620  0.17310  Biso   1.000  O
  O10      1.0000 0.30010  0.61380  0.67310  Biso   1.000  O
  O11      1.0000 0.19990  0.11380  0.82690  Biso   1.000  O
  O12      1.0000 0.69990  0.38620  0.32690  Biso   1.000  O
  O13      1.0000 0.64070  0.86130  0.12830  Biso   1.000  O
  O14      1.0000 0.14070  0.63870  0.62830  Biso   1.000  O
  O15      1.0000 0.35930  0.13870  0.87170  Biso   1.000  O
  O16      1.0000 0.85930  0.36130  0.37170  Biso   1.000  O
  O17      1.0000 0.70670  0.07880  0.12830  Biso   1.000  O
  O18      1.0000 0.20670  0.42120  0.62830  Biso   1.000  O
  O19      1.0000 0.29330  0.92120  0.87170  Biso   1.000  O
  O20      1.0000 0.79330  0.57880  0.37170  Biso   1.000  O
  O21      1.0000 0.70980  0.90770  0.01510  Biso   1.000  O
  O22      1.0000 0.20980  0.59230  0.51510  Biso   1.000  O
  O23      1.0000 0.29020  0.09230  0.98490  Biso   1.000  O
  O24      1.0000 0.79020  0.40770  0.48490  Biso   1.000  O
  N1       1.0000 0.74980  0.97640  0.56040  Biso   1.000  N
  N2       1.0000 0.24980  0.52360  0.06040  Biso   1.000  N
  N3       1.0000 0.25020  0.02360  0.43960  Biso   1.000  N
  N4       1.0000 0.75020  0.47640  0.93960  Biso   1.000  N
  N5       1.0000 0.92270  0.85370  0.65580  Biso   1.000  N
  N6       1.0000 0.42270  0.64630  0.15580  Biso   1.000  N
  N7       1.0000 0.07730  0.14630  0.34420  Biso   1.000  N
  N8       1.0000 0.57730  0.35370  0.84420  Biso   1.000  N
  N9       1.0000 0.90480  0.87910  0.83180  Biso   1.000  N
  N10      1.0000 0.40480  0.62090  0.33180  Biso   1.000  N
  N11      1.0000 0.09520  0.12090  0.16820  Biso   1.000  N
  N12      1.0000 0.59520  0.37910  0.66820  Biso   1.000  N
  C1       1.0000 0.65320  0.01170  0.51280  Biso   1.000  C
  C2       1.0000 0.15320  0.48830  0.01280  Biso   1.000  C
  C3       1.0000 0.34680  0.98830  0.48720  Biso   1.000  C
  C4       1.0000 0.84680  0.51170  0.98720  Biso   1.000  C
  H1       1.0000 0.60880  0.01450  0.54710  Biso   1.000  H
  H2       1.0000 0.10880  0.48550  0.04710  Biso   1.000  H
  H3       1.0000 0.39120  0.98550  0.45290  Biso   1.000  H
  H4       1.0000 0.89120  0.51450  0.95290  Biso   1.000  H
  C5       1.0000 0.61990  0.04330  0.41520  Biso   1.000  C
  C6       1.0000 0.11990  0.45670  0.91520  Biso   1.000  C
  C7       1.0000 0.38010  0.95670  0.58480  Biso   1.000  C
  C8       1.0000 0.88010  0.54330  0.08480  Biso   1.000  C
  H5       1.0000 0.55410  0.07210  0.38480  Biso   1.000  H
  H6       1.0000 0.05410  0.42790  0.88480  Biso   1.000  H
  H7       1.0000 0.44590  0.92790  0.61520  Biso   1.000  H
  H8       1.0000 0.94590  0.57210  0.11520  Biso   1.000  H
  C9       1.0000 0.68220  0.03280  0.36190  Biso   1.000  C
  C10      1.0000 0.18220  0.46720  0.86190  Biso   1.000  C
  C11      1.0000 0.31780  0.96720  0.63810  Biso   1.000  C
  C12      1.0000 0.81780  0.53280  0.13810  Biso   1.000  C
  H9       1.0000 0.65910  0.05040  0.29510  Biso   1.000  H
  H10      1.0000 0.15910  0.44960  0.79510  Biso   1.000  H
  H11      1.0000 0.34090  0.94960  0.70490  Biso   1.000  H
  H12      1.0000 0.84090  0.55040  0.20490  Biso   1.000  H
  C13      1.0000 0.78180  0.99480  0.41060  Biso   1.000  C
  C14      1.0000 0.28180  0.50520  0.91060  Biso   1.000  C
  C15      1.0000 0.21820  0.00520  0.58940  Biso   1.000  C
  C16      1.0000 0.71820  0.49480  0.08940  Biso   1.000  C
  H13      1.0000 0.82640  0.98720  0.37660  Biso   1.000  H
  H14      1.0000 0.32640  0.51280  0.87660  Biso   1.000  H
  H15      1.0000 0.17360  0.01280  0.62340  Biso   1.000  H
  H16      1.0000 0.67360  0.48720  0.12340  Biso   1.000  H
  C17      1.0000 0.81300  0.96870  0.51010  Biso   1.000  C
  C18      1.0000 0.31300  0.53130  0.01010  Biso   1.000  C
  C19      1.0000 0.18700  0.03130  0.48990  Biso   1.000  C
  C20      1.0000 0.68700  0.46870  0.98990  Biso   1.000  C
  C21      1.0000 0.91910  0.94110  0.57070  Biso   1.000  C
  C22      1.0000 0.41910  0.55890  0.07070  Biso   1.000  C
  C23      1.0000 0.08090  0.05890  0.42930  Biso   1.000  C
  C24      1.0000 0.58090  0.44110  0.92930  Biso   1.000  C
  H17      1.0000 0.95260  0.89280  0.53180  Biso   1.000  H
  H18      1.0000 0.45260  0.60720  0.03180  Biso   1.000  H
  H19      1.0000 0.04740  0.10720  0.46820  Biso   1.000  H
  H20      1.0000 0.54740  0.39280  0.96820  Biso   1.000  H
  H21      1.0000 0.95340  0.02930  0.59290  Biso   1.000  H
  H22      1.0000 0.45340  0.47070  0.09290  Biso   1.000  H
  H23      1.0000 0.04660  0.97070  0.40710  Biso   1.000  H
  H24      1.0000 0.54660  0.52930  0.90710  Biso   1.000  H
  C25      1.0000 0.01800  0.87330  0.73980  Biso   1.000  C
  C26      1.0000 0.51800  0.62670  0.23980  Biso   1.000  C
  C27      1.0000 0.98200  0.12670  0.26020  Biso   1.000  C
  C28      1.0000 0.48200  0.37330  0.76020  Biso   1.000  C
  H25      1.0000 0.04450  0.96650  0.73700  Biso   1.000  H
  H26      1.0000 0.54450  0.53350  0.23700  Biso   1.000  H
  H27      1.0000 0.95550  0.03350  0.26300  Biso   1.000  H
  H28      1.0000 0.45550  0.46650  0.76300  Biso   1.000  H
  H29      1.0000 0.06710  0.80510  0.73580  Biso   1.000  H
  H30      1.0000 0.56710  0.69490  0.23580  Biso   1.000  H
  H31      1.0000 0.93290  0.19490  0.26420  Biso   1.000  H
  H32      1.0000 0.43290  0.30510  0.76420  Biso   1.000  H
  C29      1.0000 0.99880  0.85520  0.83500  Biso   1.000  C
  C30      1.0000 0.49880  0.64480  0.33500  Biso   1.000  C
  C31      1.0000 0.00120  0.14480  0.16500  Biso   1.000  C
  C32      1.0000 0.50120  0.35520  0.66500  Biso   1.000  C
  C33      1.0000 0.07360  0.82220  0.92130  Biso   1.000  C
  C34      1.0000 0.57360  0.67780  0.42130  Biso   1.000  C
  C35      1.0000 0.92640  0.17780  0.07870  Biso   1.000  C
  C36      1.0000 0.42640  0.32220  0.57870  Biso   1.000  C
  H33      1.0000 0.13870  0.80750  0.92290  Biso   1.000  H
  H34      1.0000 0.63870  0.69250  0.42290  Biso   1.000  H
  H35      1.0000 0.86130  0.19250  0.07710  Biso   1.000  H
  H36      1.0000 0.36130  0.30750  0.57710  Biso   1.000  H
  C37      1.0000 0.04940  0.81150  0.00500  Biso   1.000  C
  C38      1.0000 0.54940  0.68850  0.50500  Biso   1.000  C
  C39      1.0000 0.95060  0.18850  0.99500  Biso   1.000  C
  C40      1.0000 0.45060  0.31150  0.49500  Biso   1.000  C
  H37      1.0000 0.09840  0.78810  0.06390  Biso   1.000  H
  H38      1.0000 0.59840  0.71190  0.56390  Biso   1.000  H
  H39      1.0000 0.90160  0.21190  0.93610  Biso   1.000  H
  H40      1.0000 0.40160  0.28810  0.43610  Biso   1.000  H
  C41      1.0000 0.95370  0.83530  0.00140  Biso   1.000  C
  C42      1.0000 0.45370  0.66470  0.50140  Biso   1.000  C
  C43      1.0000 0.04630  0.16470  0.99860  Biso   1.000  C
  C44      1.0000 0.54630  0.33530  0.49860  Biso   1.000  C
  H41      1.0000 0.93690  0.82890  0.05770  Biso   1.000  H
  H42      1.0000 0.43690  0.67110  0.55770  Biso   1.000  H
  H43      1.0000 0.06310  0.17110  0.94230  Biso   1.000  H
  H44      1.0000 0.56310  0.32890  0.44230  Biso   1.000  H
  C45      1.0000 0.88360  0.86840  0.91480  Biso   1.000  C
  C46      1.0000 0.38360  0.63160  0.41480  Biso   1.000  C
  C47      1.0000 0.11640  0.13160  0.08520  Biso   1.000  C
  C48      1.0000 0.61640  0.36840  0.58520  Biso   1.000  C
  H45      1.0000 0.81840  0.88430  0.91260  Biso   1.000  H
  H46      1.0000 0.31840  0.61570  0.41260  Biso   1.000  H
  H47      1.0000 0.18160  0.11570  0.08740  Biso   1.000  H
  H48      1.0000 0.68160  0.38430  0.58740  Biso   1.000  H
  C49      1.0000 0.81250  0.58850  0.72110  Biso   1.000  C
  C50      1.0000 0.31250  0.91150  0.22110  Biso   1.000  C
  C51      1.0000 0.18750  0.41150  0.27890  Biso   1.000  C
  C52      1.0000 0.68750  0.08850  0.77890  Biso   1.000  C
  C53      1.0000 0.90750  0.59540  0.69600  Biso   1.000  C
  C54      1.0000 0.40750  0.90460  0.19600  Biso   1.000  C
  C55      1.0000 0.09250  0.40460  0.30400  Biso   1.000  C
  C56      1.0000 0.59250  0.09540  0.80400  Biso   1.000  C
  H49      1.0000 0.96300  0.61400  0.75550  Biso   1.000  H
  H50      1.0000 0.46300  0.88600  0.25550  Biso   1.000  H
  H51      1.0000 0.03700  0.38600  0.24450  Biso   1.000  H
  H52      1.0000 0.53700  0.11400  0.74450  Biso   1.000  H
  H53      1.0000 0.91870  0.50390  0.67220  Biso   1.000  H
  H54      1.0000 0.41870  0.99610  0.17220  Biso   1.000  H
  H55      1.0000 0.08130  0.49610  0.32780  Biso   1.000  H
  H56      1.0000 0.58130  0.00390  0.82780  Biso   1.000  H
  C57      1.0000 0.90880  0.70390  0.62110  Biso   1.000  C
  C58      1.0000 0.40880  0.79610  0.12110  Biso   1.000  C
  C59      1.0000 0.09120  0.29610  0.37890  Biso   1.000  C
  C60      1.0000 0.59120  0.20390  0.87890  Biso   1.000  C
  H57      1.0000 0.96200  0.68040  0.59630  Biso   1.000  H
  H58      1.0000 0.46200  0.81960  0.09630  Biso   1.000  H
  H59      1.0000 0.03800  0.31960  0.40370  Biso   1.000  H
  H60      1.0000 0.53800  0.18040  0.90370  Biso   1.000  H
  H61      1.0000 0.84630  0.69750  0.56680  Biso   1.000  H
  H62      1.0000 0.34630  0.80250  0.06680  Biso   1.000  H
  H63      1.0000 0.15370  0.30250  0.43320  Biso   1.000  H
  H64      1.0000 0.65370  0.19750  0.93320  Biso   1.000  H
  O25      1.0000 0.58420  0.67240  0.76290  Biso   1.000  O
  O26      1.0000 0.08420  0.82760  0.26290  Biso   1.000  O
  O27      1.0000 0.41580  0.32760  0.23710  Biso   1.000  O
  O28      1.0000 0.91580  0.17240  0.73710  Biso   1.000  O
  H65      1.0000 0.58680  0.72040  0.82170  Biso   1.000  H
  H66      1.0000 0.08680  0.77960  0.32170  Biso   1.000  H
  H67      1.0000 0.41320  0.27960  0.17830  Biso   1.000  H
  H68      1.0000 0.91320  0.22040  0.67830  Biso   1.000  H
  H69      1.0000 0.62730  0.70390  0.72930  Biso   1.000  H
  H70      1.0000 0.12730  0.79610  0.22930  Biso   1.000  H
  H71      1.0000 0.37270  0.29610  0.27070  Biso   1.000  H
  H72      1.0000 0.87270  0.20390  0.77070  Biso   1.000  H
  O29      1.0000 0.50890  0.21710  0.10390  Biso   1.000  O
  O30      1.0000 0.00890  0.28290  0.60390  Biso   1.000  O
  O31      1.0000 0.49110  0.78290  0.89610  Biso   1.000  O
  O32      1.0000 0.99110  0.71710  0.39610  Biso   1.000  O
