data_image0
_cell_length_a       17.165
_cell_length_b       10.2442
_cell_length_c       12.6288
_cell_angle_alpha    90
_cell_angle_beta     90
_cell_angle_gamma    90

_symmetry_space_group_name_H-M    "P 1"
_symmetry_int_tables_number       1

loop_
  _symmetry_equiv_pos_as_xyz
  'x, y, z'

loop_
  _atom_site_label
  _atom_site_occupancy
  _atom_site_fract_x
  _atom_site_fract_y
  _atom_site_fract_z
  _atom_site_thermal_displace_type
  _atom_site_B_iso_or_equiv
  _atom_site_type_symbol
  Cu1      1.0000 0.88567  0.92707  0.33693  Biso   1.000  Cu
  Cu2      1.0000 0.11433  0.07293  0.83693  Biso   1.000  Cu
  Cu3      1.0000 0.61433  0.42707  0.83693  Biso   1.000  Cu
  Cu4      1.0000 0.38567  0.57293  0.33693  Biso   1.000  Cu
  Cl1      1.0000 0.80748  0.88620  0.80945  Biso   1.000  Cl
  Cl2      1.0000 0.19252  0.11380  0.30945  Biso   1.000  Cl
  Cl3      1.0000 0.69252  0.38620  0.30945  Biso   1.000  Cl
  Cl4      1.0000 0.30748  0.61380  0.80945  Biso   1.000  Cl
  O1       1.0000 0.86410  0.80170  0.44680  Biso   1.000  O
  O2       1.0000 0.13590  0.19830  0.94680  Biso   1.000  O
  O3       1.0000 0.63590  0.30170  0.94680  Biso   1.000  O
  O4       1.0000 0.36410  0.69830  0.44680  Biso   1.000  O
  O5       1.0000 0.74130  0.84030  0.41120  Biso   1.000  O
  O6       1.0000 0.25870  0.15970  0.91120  Biso   1.000  O
  O7       1.0000 0.75870  0.34030  0.91120  Biso   1.000  O
  O8       1.0000 0.24130  0.65970  0.41120  Biso   1.000  O
  O9       1.0000 0.80830  0.95780  0.90300  Biso   1.000  O
  O10      1.0000 0.19170  0.04220  0.40300  Biso   1.000  O
  O11      1.0000 0.69170  0.45780  0.40300  Biso   1.000  O
  O12      1.0000 0.30830  0.54220  0.90300  Biso   1.000  O
  O13      1.0000 0.74330  0.91650  0.74640  Biso   1.000  O
  O14      1.0000 0.25670  0.08350  0.24640  Biso   1.000  O
  O15      1.0000 0.75670  0.41650  0.24640  Biso   1.000  O
  O16      1.0000 0.24330  0.58350  0.74640  Biso   1.000  O
  O17      1.0000 0.87620  0.90790  0.75400  Biso   1.000  O
  O18      1.0000 0.12380  0.09210  0.25400  Biso   1.000  O
  O19      1.0000 0.62380  0.40790  0.25400  Biso   1.000  O
  O20      1.0000 0.37620  0.59210  0.75400  Biso   1.000  O
  O21      1.0000 0.80410  0.75100  0.83430  Biso   1.000  O
  O22      1.0000 0.19590  0.24900  0.33430  Biso   1.000  O
  O23      1.0000 0.69590  0.25100  0.33430  Biso   1.000  O
  O24      1.0000 0.30410  0.74900  0.83430  Biso   1.000  O
  N1       1.0000 0.62240  0.58700  0.92390  Biso   1.000  N
  N2       1.0000 0.37760  0.41300  0.42390  Biso   1.000  N
  N3       1.0000 0.87760  0.08700  0.42390  Biso   1.000  N
  N4       1.0000 0.12240  0.91300  0.92390  Biso   1.000  N
  N5       1.0000 0.60290  0.55680  0.71730  Biso   1.000  N
  N6       1.0000 0.39710  0.44320  0.21730  Biso   1.000  N
  N7       1.0000 0.89710  0.05680  0.21730  Biso   1.000  N
  N8       1.0000 0.10290  0.94320  0.71730  Biso   1.000  N
  N9       1.0000 0.60750  0.29970  0.71940  Biso   1.000  N
  N10      1.0000 0.39250  0.70030  0.21940  Biso   1.000  N
  N11      1.0000 0.89250  0.79970  0.21940  Biso   1.000  N
  N12      1.0000 0.10750  0.20030  0.71940  Biso   1.000  N
  C1       1.0000 0.64740  0.59610  0.02490  Biso   1.000  C
  C2       1.0000 0.35260  0.40390  0.52490  Biso   1.000  C
  C3       1.0000 0.85260  0.09610  0.52490  Biso   1.000  C
  C4       1.0000 0.14740  0.90390  0.02490  Biso   1.000  C
  H1       1.0000 0.66370  0.52100  0.05980  Biso   1.000  H
  H2       1.0000 0.33630  0.47900  0.55980  Biso   1.000  H
  H3       1.0000 0.83630  0.02100  0.55980  Biso   1.000  H
  H4       1.0000 0.16370  0.97900  0.05980  Biso   1.000  H
  C5       1.0000 0.64940  0.71470  0.07830  Biso   1.000  C
  C6       1.0000 0.35060  0.28530  0.57830  Biso   1.000  C
  C7       1.0000 0.85060  0.21470  0.57830  Biso   1.000  C
  C8       1.0000 0.14940  0.78530  0.07830  Biso   1.000  C
  H5       1.0000 0.66560  0.71930  0.14840  Biso   1.000  H
  H6       1.0000 0.33440  0.28070  0.64840  Biso   1.000  H
  H7       1.0000 0.83440  0.21930  0.64840  Biso   1.000  H
  H8       1.0000 0.16560  0.78070  0.14840  Biso   1.000  H
  C9       1.0000 0.62720  0.82290  0.02540  Biso   1.000  C
  C10      1.0000 0.37280  0.17710  0.52540  Biso   1.000  C
  C11      1.0000 0.87280  0.32290  0.52540  Biso   1.000  C
  C12      1.0000 0.12720  0.67710  0.02540  Biso   1.000  C
  H9       1.0000 0.62940  0.90350  0.05930  Biso   1.000  H
  H10      1.0000 0.37060  0.09650  0.55930  Biso   1.000  H
  H11      1.0000 0.87060  0.40350  0.55930  Biso   1.000  H
  H12      1.0000 0.12940  0.59650  0.05930  Biso   1.000  H
  C13      1.0000 0.60150  0.81670  0.92260  Biso   1.000  C
  C14      1.0000 0.39850  0.18330  0.42260  Biso   1.000  C
  C15      1.0000 0.89850  0.31670  0.42260  Biso   1.000  C
  C16      1.0000 0.10150  0.68330  0.92260  Biso   1.000  C
  H13      1.0000 0.58550  0.89150  0.88700  Biso   1.000  H
  H14      1.0000 0.41450  0.10850  0.38700  Biso   1.000  H
  H15      1.0000 0.91450  0.39150  0.38700  Biso   1.000  H
  H16      1.0000 0.08550  0.60850  0.88700  Biso   1.000  H
  C17      1.0000 0.60010  0.69730  0.87380  Biso   1.000  C
  C18      1.0000 0.39990  0.30270  0.37380  Biso   1.000  C
  C19      1.0000 0.89990  0.19730  0.37380  Biso   1.000  C
  C20      1.0000 0.10010  0.80270  0.87380  Biso   1.000  C
  C21      1.0000 0.56990  0.67600  0.76440  Biso   1.000  C
  C22      1.0000 0.43010  0.32400  0.26440  Biso   1.000  C
  C23      1.0000 0.93010  0.17600  0.26440  Biso   1.000  C
  C24      1.0000 0.06990  0.82400  0.76440  Biso   1.000  C
  H17      1.0000 0.58310  0.75050  0.72060  Biso   1.000  H
  H18      1.0000 0.41690  0.24950  0.22060  Biso   1.000  H
  H19      1.0000 0.91690  0.25050  0.22060  Biso   1.000  H
  H20      1.0000 0.08310  0.74950  0.72060  Biso   1.000  H
  H21      1.0000 0.51360  0.66880  0.76660  Biso   1.000  H
  H22      1.0000 0.48640  0.33120  0.26660  Biso   1.000  H
  H23      1.0000 0.98640  0.16880  0.26660  Biso   1.000  H
  H24      1.0000 0.01360  0.83120  0.76660  Biso   1.000  H
  C25      1.0000 0.55290  0.49220  0.63760  Biso   1.000  C
  C26      1.0000 0.44710  0.50780  0.13760  Biso   1.000  C
  C27      1.0000 0.94710  0.99220  0.13760  Biso   1.000  C
  C28      1.0000 0.05290  0.00780  0.63760  Biso   1.000  C
  H25      1.0000 0.49870  0.49760  0.65870  Biso   1.000  H
  H26      1.0000 0.50130  0.50240  0.15870  Biso   1.000  H
  H27      1.0000 0.00130  0.99760  0.15870  Biso   1.000  H
  H28      1.0000 0.99870  0.00240  0.65870  Biso   1.000  H
  H29      1.0000 0.55870  0.53460  0.56940  Biso   1.000  H
  H30      1.0000 0.44130  0.46540  0.06940  Biso   1.000  H
  H31      1.0000 0.94130  0.03460  0.06940  Biso   1.000  H
  H32      1.0000 0.05870  0.96540  0.56940  Biso   1.000  H
  C29      1.0000 0.57780  0.35140  0.63020  Biso   1.000  C
  C30      1.0000 0.42220  0.64860  0.13020  Biso   1.000  C
  C31      1.0000 0.92220  0.85140  0.13020  Biso   1.000  C
  C32      1.0000 0.07780  0.14860  0.63020  Biso   1.000  C
  C33      1.0000 0.56870  0.27930  0.54100  Biso   1.000  C
  C34      1.0000 0.43130  0.72070  0.04100  Biso   1.000  C
  C35      1.0000 0.93130  0.77930  0.04100  Biso   1.000  C
  C36      1.0000 0.06870  0.22070  0.54100  Biso   1.000  C
  H33      1.0000 0.54750  0.31670  0.48040  Biso   1.000  H
  H34      1.0000 0.45250  0.68330  0.98040  Biso   1.000  H
  H35      1.0000 0.95250  0.81670  0.98040  Biso   1.000  H
  H36      1.0000 0.04750  0.18330  0.48040  Biso   1.000  H
  C37      1.0000 0.59140  0.14960  0.54060  Biso   1.000  C
  C38      1.0000 0.40860  0.85040  0.04060  Biso   1.000  C
  C39      1.0000 0.90860  0.64960  0.04060  Biso   1.000  C
  C40      1.0000 0.09140  0.35040  0.54060  Biso   1.000  C
  H37      1.0000 0.58620  0.09870  0.48000  Biso   1.000  H
  H38      1.0000 0.41380  0.90130  0.98000  Biso   1.000  H
  H39      1.0000 0.91380  0.59870  0.98000  Biso   1.000  H
  H40      1.0000 0.08620  0.40130  0.48000  Biso   1.000  H
  C41      1.0000 0.62160  0.09840  0.63140  Biso   1.000  C
  C42      1.0000 0.37840  0.90160  0.13140  Biso   1.000  C
  C43      1.0000 0.87840  0.59840  0.13140  Biso   1.000  C
  C44      1.0000 0.12160  0.40160  0.63140  Biso   1.000  C
  H41      1.0000 0.63750  0.01170  0.63410  Biso   1.000  H
  H42      1.0000 0.36250  0.98830  0.13410  Biso   1.000  H
  H43      1.0000 0.86250  0.51170  0.13410  Biso   1.000  H
  H44      1.0000 0.13750  0.48830  0.63410  Biso   1.000  H
  C45      1.0000 0.62780  0.17630  0.71740  Biso   1.000  C
  C46      1.0000 0.37220  0.82370  0.21740  Biso   1.000  C
  C47      1.0000 0.87220  0.67630  0.21740  Biso   1.000  C
  C48      1.0000 0.12780  0.32370  0.71740  Biso   1.000  C
  H45      1.0000 0.64780  0.13990  0.77920  Biso   1.000  H
  H46      1.0000 0.35220  0.86010  0.27920  Biso   1.000  H
  H47      1.0000 0.85220  0.63990  0.27920  Biso   1.000  H
  H48      1.0000 0.14780  0.36010  0.77920  Biso   1.000  H
  C49      1.0000 0.79130  0.78320  0.46220  Biso   1.000  C
  C50      1.0000 0.20870  0.21680  0.96220  Biso   1.000  C
  C51      1.0000 0.70870  0.28320  0.96220  Biso   1.000  C
  C52      1.0000 0.29130  0.71680  0.46220  Biso   1.000  C
  C53      1.0000 0.77300  0.68400  0.54520  Biso   1.000  C
  C54      1.0000 0.22700  0.31600  0.04520  Biso   1.000  C
  C55      1.0000 0.72700  0.18400  0.04520  Biso   1.000  C
  C56      1.0000 0.27300  0.81600  0.54520  Biso   1.000  C
  H49      1.0000 0.80560  0.70150  0.60630  Biso   1.000  H
  H50      1.0000 0.19440  0.29850  0.10630  Biso   1.000  H
  H51      1.0000 0.69440  0.20150  0.10630  Biso   1.000  H
  H52      1.0000 0.30560  0.79850  0.60630  Biso   1.000  H
  H53      1.0000 0.78760  0.59880  0.51820  Biso   1.000  H
  H54      1.0000 0.21240  0.40120  0.01820  Biso   1.000  H
  H55      1.0000 0.71240  0.09880  0.01820  Biso   1.000  H
  H56      1.0000 0.28760  0.90120  0.51820  Biso   1.000  H
  C57      1.0000 0.68910  0.67690  0.58240  Biso   1.000  C
  C58      1.0000 0.31090  0.32310  0.08240  Biso   1.000  C
  C59      1.0000 0.81090  0.17690  0.08240  Biso   1.000  C
  C60      1.0000 0.18910  0.82310  0.58240  Biso   1.000  C
  H57      1.0000 0.65570  0.64960  0.52450  Biso   1.000  H
  H58      1.0000 0.34430  0.35040  0.02450  Biso   1.000  H
  H59      1.0000 0.84430  0.14960  0.02450  Biso   1.000  H
  H60      1.0000 0.15570  0.85040  0.52450  Biso   1.000  H
  H61      1.0000 0.67190  0.76230  0.60610  Biso   1.000  H
  H62      1.0000 0.32810  0.23770  0.10610  Biso   1.000  H
  H63      1.0000 0.82810  0.26230  0.10610  Biso   1.000  H
  H64      1.0000 0.17190  0.73770  0.60610  Biso   1.000  H
  C61      1.0000 0.68350  0.57960  0.67280  Biso   1.000  C
  C62      1.0000 0.31650  0.42040  0.17280  Biso   1.000  C
  C63      1.0000 0.81650  0.07960  0.17280  Biso   1.000  C
  C64      1.0000 0.18350  0.92040  0.67280  Biso   1.000  C
  H65      1.0000 0.70390  0.49660  0.64830  Biso   1.000  H
  H66      1.0000 0.29610  0.50340  0.14830  Biso   1.000  H
  H67      1.0000 0.79610  0.99660  0.14830  Biso   1.000  H
  H68      1.0000 0.20390  0.00340  0.64830  Biso   1.000  H
  H69      1.0000 0.71690  0.60950  0.72980  Biso   1.000  H
  H70      1.0000 0.28310  0.39050  0.22980  Biso   1.000  H
  H71      1.0000 0.78310  0.10950  0.22980  Biso   1.000  H
  H72      1.0000 0.21690  0.89050  0.72980  Biso   1.000  H
  O25      1.0000 0.02180  0.90060  0.36660  Biso   1.000  O
  O26      1.0000 0.97820  0.09940  0.86660  Biso   1.000  O
  O27      1.0000 0.47820  0.40060  0.86660  Biso   1.000  O
  O28      1.0000 0.52180  0.59940  0.36660  Biso   1.000  O
  O29      1.0000 0.97740  0.65150  0.54770  Biso   1.000  O
  O30      1.0000 0.02260  0.34850  0.04770  Biso   1.000  O
  O31      1.0000 0.52260  0.15150  0.04770  Biso   1.000  O
  O32      1.0000 0.47740  0.84850  0.54770  Biso   1.000  O
  O33      1.0000 0.93200  0.57100  0.74890  Biso   1.000  O
  O34      1.0000 0.06800  0.42900  0.24890  Biso   1.000  O
  O35      1.0000 0.56800  0.07100  0.24890  Biso   1.000  O
  O36      1.0000 0.43200  0.92900  0.74890  Biso   1.000  O
  H73      1.0000 0.88410  0.53650  0.71910  Biso   1.000  H
  H74      1.0000 0.11590  0.46350  0.21910  Biso   1.000  H
  H75      1.0000 0.61590  0.03650  0.21910  Biso   1.000  H
  H76      1.0000 0.38410  0.96350  0.71910  Biso   1.000  H
  H77      1.0000 0.96690  0.58020  0.68130  Biso   1.000  H
  H78      1.0000 0.03310  0.41980  0.18130  Biso   1.000  H
  H79      1.0000 0.53310  0.08020  0.18130  Biso   1.000  H
  H80      1.0000 0.46690  0.91980  0.68130  Biso   1.000  H
  O37      1.0000 0.58340  0.84910  0.37670  Biso   1.000  O
  O38      1.0000 0.41660  0.15090  0.87670  Biso   1.000  O
  O39      1.0000 0.91660  0.34910  0.87670  Biso   1.000  O
  O40      1.0000 0.08340  0.65090  0.37670  Biso   1.000  O
  H81      1.0000 0.62760  0.86040  0.39410  Biso   1.000  H
  H82      1.0000 0.37240  0.13960  0.89410  Biso   1.000  H
  H83      1.0000 0.87240  0.36040  0.89410  Biso   1.000  H
  H84      1.0000 0.12760  0.63960  0.39410  Biso   1.000  H
  H85      1.0000 0.57820  0.90790  0.32990  Biso   1.000  H
  H86      1.0000 0.42180  0.09210  0.82990  Biso   1.000  H
  H87      1.0000 0.92180  0.40790  0.82990  Biso   1.000  H
  H88      1.0000 0.07820  0.59210  0.32990  Biso   1.000  H
