data_image0
_cell_length_a       7.264
_cell_length_b       11.669
_cell_length_c       12.745
_cell_angle_alpha    95.91
_cell_angle_beta     104.37
_cell_angle_gamma    92.93

_symmetry_space_group_name_H-M    "P 1"
_symmetry_int_tables_number       1

loop_
  _symmetry_equiv_pos_as_xyz
  'x, y, z'

loop_
  _atom_site_label
  _atom_site_occupancy
  _atom_site_fract_x
  _atom_site_fract_y
  _atom_site_fract_z
  _atom_site_thermal_displace_type
  _atom_site_B_iso_or_equiv
  _atom_site_type_symbol
  Cu1      1.0000 0.77650  0.48423  0.55871  Biso   1.000  Cu
  Cu2      1.0000 0.22350  0.51577  0.44129  Biso   1.000  Cu
  Cl1      1.0000 0.61912  0.63975  0.50510  Biso   1.000  Cl
  Cl2      1.0000 0.38088  0.36025  0.49490  Biso   1.000  Cl
  Cl3      1.0000 0.82903  0.43082  0.39204  Biso   1.000  Cl
  Cl4      1.0000 0.17097  0.56918  0.60796  Biso   1.000  Cl
  N1       1.0000 0.70300  0.59207  0.86315  Biso   1.000  N
  N2       1.0000 0.29700  0.40793  0.13685  Biso   1.000  N
  N3       1.0000 0.88650  0.57010  0.88830  Biso   1.000  N
  N4       1.0000 0.11350  0.42990  0.11170  Biso   1.000  N
  N5       1.0000 0.92760  0.53510  0.79860  Biso   1.000  N
  N6       1.0000 0.07240  0.46490  0.20140  Biso   1.000  N
  N7       1.0000 0.77400  0.53538  0.71406  Biso   1.000  N
  N8       1.0000 0.22600  0.46462  0.28594  Biso   1.000  N
  C1       1.0000 0.63760  0.56960  0.75623  Biso   1.000  C
  C2       1.0000 0.36240  0.43040  0.24377  Biso   1.000  C
  H1       1.0000 0.51330  0.57710  0.71720  Biso   1.000  H
  H2       1.0000 0.48670  0.42290  0.28280  Biso   1.000  H
  C3       1.0000 0.61040  0.62781  0.94726  Biso   1.000  C
  C4       1.0000 0.38960  0.37219  0.05274  Biso   1.000  C
  C5       1.0000 0.43470  0.67220  0.91850  Biso   1.000  C
  C6       1.0000 0.56530  0.32780  0.08150  Biso   1.000  C
  H3       1.0000 0.37600  0.67990  0.84620  Biso   1.000  H
  H4       1.0000 0.62400  0.32010  0.15380  Biso   1.000  H
  C7       1.0000 0.34870  0.70500  0.00260  Biso   1.000  C
  C8       1.0000 0.65130  0.29500  0.99740  Biso   1.000  C
  H5       1.0000 0.23070  0.73580  0.98640  Biso   1.000  H
  H6       1.0000 0.76930  0.26420  0.01360  Biso   1.000  H
  C9       1.0000 0.43770  0.69220  0.10920  Biso   1.000  C
  C10      1.0000 0.56230  0.30780  0.89080  Biso   1.000  C
  H7       1.0000 0.37930  0.71440  0.16440  Biso   1.000  H
  H8       1.0000 0.62070  0.28560  0.83560  Biso   1.000  H
  C11      1.0000 0.61080  0.64710  0.13440  Biso   1.000  C
  C12      1.0000 0.38920  0.35290  0.86560  Biso   1.000  C
  H9       1.0000 0.66900  0.63850  0.20660  Biso   1.000  H
  H10      1.0000 0.33100  0.36150  0.79340  Biso   1.000  H
  C13      1.0000 0.70000  0.61410  0.05360  Biso   1.000  C
  C14      1.0000 0.30000  0.38590  0.94640  Biso   1.000  C
  H11      1.0000 0.81790  0.58330  0.07040  Biso   1.000  H
  H12      1.0000 0.18210  0.41670  0.92960  Biso   1.000  H
  N9       1.0000 0.99590  0.17467  0.63873  Biso   1.000  N
  N10      1.0000 0.00410  0.82533  0.36127  Biso   1.000  N
  N11      1.0000 0.85080  0.17650  0.68780  Biso   1.000  N
  N12      1.0000 0.14920  0.82350  0.31220  Biso   1.000  N
  N13      1.0000 0.77230  0.27110  0.66980  Biso   1.000  N
  N14      1.0000 0.22770  0.72890  0.33020  Biso   1.000  N
  N15      1.0000 0.86280  0.33191  0.60995  Biso   1.000  N
  N16      1.0000 0.13720  0.66809  0.39005  Biso   1.000  N
  C15      1.0000 0.99920  0.27085  0.59098  Biso   1.000  C
  C16      1.0000 0.00080  0.72915  0.40902  Biso   1.000  C
  H13      1.0000 0.08430  0.29100  0.55090  Biso   1.000  H
  H14      1.0000 0.91570  0.70900  0.44910  Biso   1.000  H
  C17      1.0000 0.10670  0.07691  0.63804  Biso   1.000  C
  C18      1.0000 0.89330  0.92309  0.36196  Biso   1.000  C
  C19      1.0000 0.03210  0.97200  0.65680  Biso   1.000  C
  C20      1.0000 0.96790  0.02800  0.34320  Biso   1.000  C
  H15      1.0000 0.91310  0.96570  0.67150  Biso   1.000  H
  H16      1.0000 0.08690  0.03430  0.32850  Biso   1.000  H
  C21      1.0000 0.13670  0.87660  0.65350  Biso   1.000  C
  C22      1.0000 0.86330  0.12340  0.34650  Biso   1.000  C
  H17      1.0000 0.08870  0.80580  0.66700  Biso   1.000  H
  H18      1.0000 0.91130  0.19420  0.33300  Biso   1.000  H
  C23      1.0000 0.31020  0.88600  0.63030  Biso   1.000  C
  C24      1.0000 0.68980  0.11400  0.36970  Biso   1.000  C
  H19      1.0000 0.37870  0.82120  0.62640  Biso   1.000  H
  H20      1.0000 0.62130  0.17880  0.37360  Biso   1.000  H
  C25      1.0000 0.38350  0.99090  0.61290  Biso   1.000  C
  C26      1.0000 0.61650  0.00910  0.38710  Biso   1.000  C
  H21      1.0000 0.50220  0.99670  0.59770  Biso   1.000  H
  H22      1.0000 0.49780  0.00330  0.40230  Biso   1.000  H
  C27      1.0000 0.28280  0.08880  0.61740  Biso   1.000  C
  C28      1.0000 0.71720  0.91120  0.38260  Biso   1.000  C
  H23      1.0000 0.33340  0.16020  0.60680  Biso   1.000  H
  H24      1.0000 0.66660  0.83980  0.39320  Biso   1.000  H
  N17      1.0000 0.33590  0.05590  0.02580  Biso   1.000  N
  N18      1.0000 0.66410  0.94410  0.97420  Biso   1.000  N
  N19      1.0000 0.32800  0.07630  0.12970  Biso   1.000  N
  N20      1.0000 0.67200  0.92370  0.87030  Biso   1.000  N
  N21      1.0000 0.17010  0.12430  0.12750  Biso   1.000  N
  N22      1.0000 0.82990  0.87570  0.87250  Biso   1.000  N
  N23      1.0000 0.07740  0.13900  0.02830  Biso   1.000  N
  N24      1.0000 0.92260  0.86100  0.97170  Biso   1.000  N
  C29      1.0000 0.18200  0.09200  0.96930  Biso   1.000  C
  C30      1.0000 0.81800  0.90800  0.03070  Biso   1.000  C
  H25      1.0000 0.14830  0.08470  0.89350  Biso   1.000  H
  H26      1.0000 0.85170  0.91530  0.10650  Biso   1.000  H
  C31      1.0000 0.49100  0.00300  0.99700  Biso   1.000  C
  C32      1.0000 0.50900  0.99700  0.00300  Biso   1.000  C
  C33      1.0000 0.48710  0.99690  0.10810  Biso   1.000  C
  C34      1.0000 0.51290  0.00310  0.89190  Biso   1.000  C
  H27      1.0000 0.42150  0.03370  0.83960  Biso   1.000  H
  H28      1.0000 0.57850  0.96630  0.16040  Biso   1.000  H
  C35      1.0000 0.32900  0.04150  0.13590  Biso   1.000  C
  C36      1.0000 0.67100  0.95850  0.86410  Biso   1.000  C
  H29      1.0000 0.31270  0.03870  0.20570  Biso   1.000  H
  H30      1.0000 0.68730  0.96130  0.79430  Biso   1.000  H
  C37      1.0000 0.19620  0.09060  0.05780  Biso   1.000  C
  C38      1.0000 0.80380  0.90940  0.94220  Biso   1.000  C
  H31      1.0000 0.09330  0.12370  0.07670  Biso   1.000  H
  H32      1.0000 0.90670  0.87630  0.92330  Biso   1.000  H
  C39      1.0000 0.21600  0.09030  0.95190  Biso   1.000  C
  C40      1.0000 0.78400  0.90970  0.04810  Biso   1.000  C
  H33      1.0000 0.12800  0.12400  0.90030  Biso   1.000  H
  H34      1.0000 0.87200  0.87600  0.09970  Biso   1.000  H
  C41      1.0000 0.36900  0.03920  0.92390  Biso   1.000  C
  C42      1.0000 0.63100  0.96080  0.07610  Biso   1.000  C
  H35      1.0000 0.62270  0.96700  0.14800  Biso   1.000  H
  H36      1.0000 0.37730  0.03300  0.85200  Biso   1.000  H
