data_image0
_cell_length_a       17.0258
_cell_length_b       12.1534
_cell_length_c       10.1959
_cell_angle_alpha    90
_cell_angle_beta     92.0607
_cell_angle_gamma    90

_symmetry_space_group_name_H-M    "P 1"
_symmetry_int_tables_number       1

loop_
  _symmetry_equiv_pos_as_xyz
  'x, y, z'

loop_
  _atom_site_label
  _atom_site_occupancy
  _atom_site_fract_x
  _atom_site_fract_y
  _atom_site_fract_z
  _atom_site_thermal_displace_type
  _atom_site_B_iso_or_equiv
  _atom_site_type_symbol
  Cu1      1.0000 0.18225  0.93613  0.25250  Biso   1.000  Cu
  Cu2      1.0000 0.81775  0.43613  0.24750  Biso   1.000  Cu
  Cu3      1.0000 0.81775  0.06387  0.74750  Biso   1.000  Cu
  Cu4      1.0000 0.18225  0.56387  0.75250  Biso   1.000  Cu
  N1       1.0000 0.17520  0.80514  0.37761  Biso   1.000  N
  N2       1.0000 0.82480  0.30514  0.12239  Biso   1.000  N
  N3       1.0000 0.82480  0.19486  0.62239  Biso   1.000  N
  N4       1.0000 0.17520  0.69486  0.87761  Biso   1.000  N
  C1       1.0000 0.23874  0.74398  0.40780  Biso   1.000  C
  C2       1.0000 0.76126  0.24398  0.09220  Biso   1.000  C
  C3       1.0000 0.76126  0.25602  0.59220  Biso   1.000  C
  C4       1.0000 0.23874  0.75602  0.90780  Biso   1.000  C
  H1       1.0000 0.28270  0.74940  0.35660  Biso   1.000  H
  H2       1.0000 0.71730  0.24940  0.14340  Biso   1.000  H
  H3       1.0000 0.71730  0.25060  0.64340  Biso   1.000  H
  H4       1.0000 0.28270  0.75060  0.85660  Biso   1.000  H
  C5       1.0000 0.24015  0.67245  0.51430  Biso   1.000  C
  C6       1.0000 0.75985  0.17245  0.98570  Biso   1.000  C
  C7       1.0000 0.75985  0.32755  0.48570  Biso   1.000  C
  C8       1.0000 0.24015  0.82755  0.01430  Biso   1.000  C
  H5       1.0000 0.28490  0.63060  0.53280  Biso   1.000  H
  H6       1.0000 0.71510  0.13060  0.96720  Biso   1.000  H
  H7       1.0000 0.71510  0.36940  0.46720  Biso   1.000  H
  H8       1.0000 0.28490  0.86940  0.03280  Biso   1.000  H
  N5       1.0000 0.17819  0.66283  0.59090  Biso   1.000  N
  N6       1.0000 0.82181  0.16283  0.90910  Biso   1.000  N
  N7       1.0000 0.82181  0.33717  0.40910  Biso   1.000  N
  N8       1.0000 0.17819  0.83717  0.09090  Biso   1.000  N
  C9       1.0000 0.11412  0.72327  0.55940  Biso   1.000  C
  C10      1.0000 0.88588  0.22327  0.94060  Biso   1.000  C
  C11      1.0000 0.88588  0.27673  0.44060  Biso   1.000  C
  C12      1.0000 0.11412  0.77673  0.05940  Biso   1.000  C
  H9       1.0000 0.07000  0.71750  0.61020  Biso   1.000  H
  H10      1.0000 0.93000  0.21750  0.88980  Biso   1.000  H
  H11      1.0000 0.93000  0.28250  0.38980  Biso   1.000  H
  H12      1.0000 0.07000  0.78250  0.11020  Biso   1.000  H
  C13      1.0000 0.11249  0.79411  0.45270  Biso   1.000  C
  C14      1.0000 0.88751  0.29411  0.04730  Biso   1.000  C
  C15      1.0000 0.88751  0.20589  0.54730  Biso   1.000  C
  C16      1.0000 0.11249  0.70589  0.95270  Biso   1.000  C
  H13      1.0000 0.06730  0.83460  0.43290  Biso   1.000  H
  H14      1.0000 0.93270  0.33460  0.06710  Biso   1.000  H
  H15      1.0000 0.93270  0.16540  0.56710  Biso   1.000  H
  H16      1.0000 0.06730  0.66540  0.93290  Biso   1.000  H
  N9       1.0000 0.42065  0.04747  0.21474  Biso   1.000  N
  N10      1.0000 0.57935  0.54747  0.28526  Biso   1.000  N
  N11      1.0000 0.57935  0.95253  0.78526  Biso   1.000  N
  N12      1.0000 0.42065  0.45253  0.71474  Biso   1.000  N
  H17      1.0000 0.41570  0.03300  0.14300  Biso   1.000  H
  H18      1.0000 0.58430  0.53300  0.35700  Biso   1.000  H
  H19      1.0000 0.58430  0.96700  0.85700  Biso   1.000  H
  H20      1.0000 0.41570  0.46700  0.64300  Biso   1.000  H
  C17      1.0000 0.36657  0.00250  0.29720  Biso   1.000  C
  C18      1.0000 0.63343  0.50250  0.20280  Biso   1.000  C
  C19      1.0000 0.63343  0.99750  0.70280  Biso   1.000  C
  C20      1.0000 0.36657  0.49750  0.79720  Biso   1.000  C
  O1       1.0000 0.31357  0.94249  0.25019  Biso   1.000  O
  O2       1.0000 0.68643  0.44249  0.24981  Biso   1.000  O
  O3       1.0000 0.68643  0.05751  0.74981  Biso   1.000  O
  O4       1.0000 0.31357  0.55751  0.75019  Biso   1.000  O
  C21      1.0000 0.37793  0.03280  0.43310  Biso   1.000  C
  C22      1.0000 0.62207  0.53280  0.06690  Biso   1.000  C
  C23      1.0000 0.62207  0.96720  0.56690  Biso   1.000  C
  C24      1.0000 0.37793  0.46720  0.93310  Biso   1.000  C
  H21      1.0000 0.34350  0.00600  0.49420  Biso   1.000  H
  H22      1.0000 0.65650  0.50600  0.00580  Biso   1.000  H
  H23      1.0000 0.65650  0.99400  0.50580  Biso   1.000  H
  H24      1.0000 0.34350  0.49400  0.99420  Biso   1.000  H
  C25      1.0000 0.43768  0.09960  0.47380  Biso   1.000  C
  C26      1.0000 0.56232  0.59960  0.02620  Biso   1.000  C
  C27      1.0000 0.56232  0.90040  0.52620  Biso   1.000  C
  C28      1.0000 0.43768  0.40040  0.97380  Biso   1.000  C
  H25      1.0000 0.44400  0.11860  0.56180  Biso   1.000  H
  H26      1.0000 0.55600  0.61860  0.93820  Biso   1.000  H
  H27      1.0000 0.55600  0.88140  0.43820  Biso   1.000  H
  H28      1.0000 0.44400  0.38140  0.06180  Biso   1.000  H
  C29      1.0000 0.49000  0.13986  0.38150  Biso   1.000  C
  C30      1.0000 0.51000  0.63986  0.11850  Biso   1.000  C
  C31      1.0000 0.51000  0.86014  0.61850  Biso   1.000  C
  C32      1.0000 0.49000  0.36014  0.88150  Biso   1.000  C
  N13      1.0000 0.55590  0.20838  0.42210  Biso   1.000  N
  N14      1.0000 0.44410  0.70838  0.07790  Biso   1.000  N
  N15      1.0000 0.44410  0.79162  0.57790  Biso   1.000  N
  N16      1.0000 0.55590  0.29162  0.92210  Biso   1.000  N
  O5       1.0000 0.59942  0.24270  0.33880  Biso   1.000  O
  O6       1.0000 0.40058  0.74270  0.16120  Biso   1.000  O
  O7       1.0000 0.40058  0.75730  0.66120  Biso   1.000  O
  O8       1.0000 0.59942  0.25730  0.83880  Biso   1.000  O
  O9       1.0000 0.56602  0.22730  0.54030  Biso   1.000  O
  O10      1.0000 0.43398  0.72730  0.95970  Biso   1.000  O
  O11      1.0000 0.43398  0.77270  0.45970  Biso   1.000  O
  O12      1.0000 0.56602  0.27270  0.04030  Biso   1.000  O
  C33      1.0000 0.48048  0.11350  0.25220  Biso   1.000  C
  C34      1.0000 0.51952  0.61350  0.24780  Biso   1.000  C
  C35      1.0000 0.51952  0.88650  0.74780  Biso   1.000  C
  C36      1.0000 0.48048  0.38650  0.75220  Biso   1.000  C
  H29      1.0000 0.51480  0.14070  0.19110  Biso   1.000  H
  H30      1.0000 0.48520  0.64070  0.30890  Biso   1.000  H
  H31      1.0000 0.48520  0.85930  0.80890  Biso   1.000  H
  H32      1.0000 0.51480  0.35930  0.69110  Biso   1.000  H
  N17      1.0000 0.17511  0.07547  0.14392  Biso   1.000  N
  N18      1.0000 0.82489  0.57547  0.35608  Biso   1.000  N
  N19      1.0000 0.82489  0.92453  0.85608  Biso   1.000  N
  N20      1.0000 0.17511  0.42453  0.64392  Biso   1.000  N
  C37      1.0000 0.12732  0.08262  0.03690  Biso   1.000  C
  C38      1.0000 0.87268  0.58262  0.46310  Biso   1.000  C
  C39      1.0000 0.87268  0.91738  0.96310  Biso   1.000  C
  C40      1.0000 0.12732  0.41738  0.53690  Biso   1.000  C
  H33      1.0000 0.09750  0.02190  0.01060  Biso   1.000  H
  H34      1.0000 0.90250  0.52190  0.48940  Biso   1.000  H
  H35      1.0000 0.90250  0.97810  0.98940  Biso   1.000  H
  H36      1.0000 0.09750  0.47810  0.51060  Biso   1.000  H
  C41      1.0000 0.12163  0.17896  0.96490  Biso   1.000  C
  C42      1.0000 0.87837  0.67896  0.53510  Biso   1.000  C
  C43      1.0000 0.87837  0.82104  0.03510  Biso   1.000  C
  C44      1.0000 0.12163  0.32104  0.46490  Biso   1.000  C
  H37      1.0000 0.08830  0.18120  0.89070  Biso   1.000  H
  H38      1.0000 0.91170  0.68120  0.60930  Biso   1.000  H
  H39      1.0000 0.91170  0.81880  0.10930  Biso   1.000  H
  H40      1.0000 0.08830  0.31880  0.39070  Biso   1.000  H
  N21      1.0000 0.16238  0.26833  0.99878  Biso   1.000  N
  N22      1.0000 0.83762  0.76833  0.50122  Biso   1.000  N
  N23      1.0000 0.83762  0.73167  0.00122  Biso   1.000  N
  N24      1.0000 0.16238  0.23167  0.49878  Biso   1.000  N
  C45      1.0000 0.21046  0.26081  0.10490  Biso   1.000  C
  C46      1.0000 0.78954  0.76081  0.39510  Biso   1.000  C
  C47      1.0000 0.78954  0.73919  0.89510  Biso   1.000  C
  C48      1.0000 0.21046  0.23919  0.60490  Biso   1.000  C
  H41      1.0000 0.24050  0.32160  0.13040  Biso   1.000  H
  H42      1.0000 0.75950  0.82160  0.36960  Biso   1.000  H
  H43      1.0000 0.75950  0.67840  0.86960  Biso   1.000  H
  H44      1.0000 0.24050  0.17840  0.63040  Biso   1.000  H
  C49      1.0000 0.21682  0.16490  0.17810  Biso   1.000  C
  C50      1.0000 0.78318  0.66490  0.32190  Biso   1.000  C
  C51      1.0000 0.78318  0.83510  0.82190  Biso   1.000  C
  C52      1.0000 0.21682  0.33510  0.67810  Biso   1.000  C
  H45      1.0000 0.25050  0.16270  0.25190  Biso   1.000  H
  H46      1.0000 0.74950  0.66270  0.24810  Biso   1.000  H
  H47      1.0000 0.74950  0.83730  0.74810  Biso   1.000  H
  H48      1.0000 0.25050  0.33730  0.75190  Biso   1.000  H
  O13      1.0000 0.18324  0.02386  0.41296  Biso   1.000  O
  O14      1.0000 0.81676  0.52386  0.08704  Biso   1.000  O
  O15      1.0000 0.81676  0.97614  0.58704  Biso   1.000  O
  O16      1.0000 0.18324  0.47614  0.91296  Biso   1.000  O
  H49      1.0000 0.19320  0.99900  0.48100  Biso   1.000  H
  H50      1.0000 0.80680  0.49900  0.01900  Biso   1.000  H
  H51      1.0000 0.80680  0.00100  0.51900  Biso   1.000  H
  H52      1.0000 0.19320  0.50100  0.98100  Biso   1.000  H
  H53      1.0000 0.16220  0.07900  0.41800  Biso   1.000  H
  H54      1.0000 0.83780  0.57900  0.08200  Biso   1.000  H
  H55      1.0000 0.83780  0.92100  0.58200  Biso   1.000  H
  H56      1.0000 0.16220  0.42100  0.91800  Biso   1.000  H
  Cl1      1.0000 0.97948  0.03292  0.27981  Biso   1.000  Cl
  Cl2      1.0000 0.02052  0.53292  0.22019  Biso   1.000  Cl
  Cl3      1.0000 0.02052  0.96708  0.72019  Biso   1.000  Cl
  Cl4      1.0000 0.97948  0.46708  0.77981  Biso   1.000  Cl
  O17      1.0000 0.94434  0.98110  0.39090  Biso   1.000  O
  O18      1.0000 0.05566  0.48110  0.10910  Biso   1.000  O
  O19      1.0000 0.05566  0.01890  0.60910  Biso   1.000  O
  O20      1.0000 0.94434  0.51890  0.89090  Biso   1.000  O
  O21      1.0000 0.02577  0.12397  0.32240  Biso   1.000  O
  O22      1.0000 0.97423  0.62397  0.17760  Biso   1.000  O
  O23      1.0000 0.97423  0.87603  0.67760  Biso   1.000  O
  O24      1.0000 0.02577  0.37603  0.82240  Biso   1.000  O
  O25      1.0000 0.91607  0.06694  0.19155  Biso   1.000  O
  O26      1.0000 0.08393  0.56694  0.30845  Biso   1.000  O
  O27      1.0000 0.08393  0.93306  0.80845  Biso   1.000  O
  O28      1.0000 0.91607  0.43306  0.69155  Biso   1.000  O
  O29      1.0000 0.02824  0.95100  0.21835  Biso   1.000  O
  O30      1.0000 0.97176  0.45100  0.28165  Biso   1.000  O
  O31      1.0000 0.97176  0.04900  0.78165  Biso   1.000  O
  O32      1.0000 0.02824  0.54900  0.71835  Biso   1.000  O
  O33      1.0000 0.22386  0.92991  0.64680  Biso   1.000  O
  O34      1.0000 0.77614  0.42991  0.85320  Biso   1.000  O
  O35      1.0000 0.77614  0.07009  0.35320  Biso   1.000  O
  O36      1.0000 0.22386  0.57009  0.14680  Biso   1.000  O
  H57      1.0000 0.26200  0.94600  0.68600  Biso   1.000  H
  H58      1.0000 0.73800  0.44600  0.81400  Biso   1.000  H
  H59      1.0000 0.73800  0.05400  0.31400  Biso   1.000  H
  H60      1.0000 0.26200  0.55400  0.18600  Biso   1.000  H
  H61      1.0000 0.19200  0.93800  0.68600  Biso   1.000  H
  H62      1.0000 0.80800  0.43800  0.81400  Biso   1.000  H
  H63      1.0000 0.80800  0.06200  0.31400  Biso   1.000  H
  H64      1.0000 0.19200  0.56200  0.18600  Biso   1.000  H
  Cl5      1.0000 0.63357  0.58921  0.64269  Biso   1.000  Cl
  Cl6      1.0000 0.36643  0.08921  0.85731  Biso   1.000  Cl
  Cl7      1.0000 0.36643  0.41079  0.35731  Biso   1.000  Cl
  Cl8      1.0000 0.63357  0.91079  0.14269  Biso   1.000  Cl
  O37      1.0000 0.63370  0.50530  0.74230  Biso   1.000  O
  O38      1.0000 0.36630  0.00530  0.75770  Biso   1.000  O
  O39      1.0000 0.36630  0.49470  0.25770  Biso   1.000  O
  O40      1.0000 0.63370  0.99470  0.24230  Biso   1.000  O
  O41      1.0000 0.69635  0.56850  0.55940  Biso   1.000  O
  O42      1.0000 0.30365  0.06850  0.94060  Biso   1.000  O
  O43      1.0000 0.30365  0.43150  0.44060  Biso   1.000  O
  O44      1.0000 0.69635  0.93150  0.05940  Biso   1.000  O
  O45      1.0000 0.56004  0.58620  0.56880  Biso   1.000  O
  O46      1.0000 0.43996  0.08620  0.93120  Biso   1.000  O
  O47      1.0000 0.43996  0.41380  0.43120  Biso   1.000  O
  O48      1.0000 0.56004  0.91380  0.06880  Biso   1.000  O
  O49      1.0000 0.64186  0.69140  0.70690  Biso   1.000  O
  O50      1.0000 0.35814  0.19140  0.79310  Biso   1.000  O
  O51      1.0000 0.35814  0.30860  0.29310  Biso   1.000  O
  O52      1.0000 0.64186  0.80860  0.20690  Biso   1.000  O
