data_image0
_cell_length_a       14.0686
_cell_length_b       14.0686
_cell_length_c       38.759
_cell_angle_alpha    90
_cell_angle_beta     90
_cell_angle_gamma    90

_symmetry_space_group_name_H-M    "P 1"
_symmetry_int_tables_number       1

loop_
  _symmetry_equiv_pos_as_xyz
  'x, y, z'

loop_
  _atom_site_label
  _atom_site_occupancy
  _atom_site_fract_x
  _atom_site_fract_y
  _atom_site_fract_z
  _atom_site_thermal_displace_type
  _atom_site_B_iso_or_equiv
  _atom_site_type_symbol
  Cu1      1.0000 0.06740  0.82120  0.01670  Biso   1.000  Cu
  Cu2      1.0000 0.42880  0.81740  0.26670  Biso   1.000  Cu
  Cu3      1.0000 0.06740  0.17880  0.48330  Biso   1.000  Cu
  Cu4      1.0000 0.43260  0.17880  0.51670  Biso   1.000  Cu
  Cu5      1.0000 0.07120  0.81740  0.73330  Biso   1.000  Cu
  Cu6      1.0000 0.07120  0.18260  0.76670  Biso   1.000  Cu
  Cu7      1.0000 0.43260  0.82120  0.98330  Biso   1.000  Cu
  Cu8      1.0000 0.42880  0.18260  0.23330  Biso   1.000  Cu
  Cu9      1.0000 0.56740  0.32120  0.51670  Biso   1.000  Cu
  Cu10     1.0000 0.92880  0.31740  0.76670  Biso   1.000  Cu
  Cu11     1.0000 0.56740  0.67880  0.98330  Biso   1.000  Cu
  Cu12     1.0000 0.93260  0.67880  0.01670  Biso   1.000  Cu
  Cu13     1.0000 0.57120  0.31740  0.23330  Biso   1.000  Cu
  Cu14     1.0000 0.57120  0.68260  0.26670  Biso   1.000  Cu
  Cu15     1.0000 0.93260  0.32120  0.48330  Biso   1.000  Cu
  Cu16     1.0000 0.92880  0.68260  0.73330  Biso   1.000  Cu
  Cu17     1.0000 0.93260  0.17880  0.98330  Biso   1.000  Cu
  Cu18     1.0000 0.07120  0.68260  0.23330  Biso   1.000  Cu
  Cu19     1.0000 0.93260  0.82120  0.51670  Biso   1.000  Cu
  Cu20     1.0000 0.56740  0.82120  0.48330  Biso   1.000  Cu
  Cu21     1.0000 0.42880  0.68260  0.76670  Biso   1.000  Cu
  Cu22     1.0000 0.42880  0.31740  0.73330  Biso   1.000  Cu
  Cu23     1.0000 0.56740  0.17880  0.01670  Biso   1.000  Cu
  Cu24     1.0000 0.07120  0.31740  0.26670  Biso   1.000  Cu
  Cu25     1.0000 0.43260  0.67880  0.48330  Biso   1.000  Cu
  Cu26     1.0000 0.57120  0.18260  0.73330  Biso   1.000  Cu
  Cu27     1.0000 0.43260  0.32120  0.01670  Biso   1.000  Cu
  Cu28     1.0000 0.06740  0.32120  0.98330  Biso   1.000  Cu
  Cu29     1.0000 0.92880  0.18260  0.26670  Biso   1.000  Cu
  Cu30     1.0000 0.92880  0.81740  0.23330  Biso   1.000  Cu
  Cu31     1.0000 0.06740  0.67880  0.51670  Biso   1.000  Cu
  Cu32     1.0000 0.57120  0.81740  0.76670  Biso   1.000  Cu
  S1       1.0000 0.10070  0.65720  0.03140  Biso   1.000  S
  S2       1.0000 0.59280  0.85070  0.28140  Biso   1.000  S
  S3       1.0000 0.10070  0.34280  0.46860  Biso   1.000  S
  S4       1.0000 0.39930  0.34280  0.53140  Biso   1.000  S
  S5       1.0000 0.90720  0.85070  0.71860  Biso   1.000  S
  S6       1.0000 0.90720  0.14930  0.78140  Biso   1.000  S
  S7       1.0000 0.39930  0.65720  0.96860  Biso   1.000  S
  S8       1.0000 0.59280  0.14930  0.21860  Biso   1.000  S
  S9       1.0000 0.60070  0.15720  0.53140  Biso   1.000  S
  S10      1.0000 0.09280  0.35070  0.78140  Biso   1.000  S
  S11      1.0000 0.60070  0.84280  0.96860  Biso   1.000  S
  S12      1.0000 0.89930  0.84280  0.03140  Biso   1.000  S
  S13      1.0000 0.40720  0.35070  0.21860  Biso   1.000  S
  S14      1.0000 0.40720  0.64930  0.28140  Biso   1.000  S
  S15      1.0000 0.89930  0.15720  0.46860  Biso   1.000  S
  S16      1.0000 0.09280  0.64930  0.71860  Biso   1.000  S
  S17      1.0000 0.89930  0.34280  0.96860  Biso   1.000  S
  S18      1.0000 0.90720  0.64930  0.21860  Biso   1.000  S
  S19      1.0000 0.89930  0.65720  0.53140  Biso   1.000  S
  S20      1.0000 0.60070  0.65720  0.46860  Biso   1.000  S
  S21      1.0000 0.59280  0.64930  0.78140  Biso   1.000  S
  S22      1.0000 0.59280  0.35070  0.71860  Biso   1.000  S
  S23      1.0000 0.60070  0.34280  0.03140  Biso   1.000  S
  S24      1.0000 0.90720  0.35070  0.28140  Biso   1.000  S
  S25      1.0000 0.39930  0.84280  0.46860  Biso   1.000  S
  S26      1.0000 0.40720  0.14930  0.71860  Biso   1.000  S
  S27      1.0000 0.39930  0.15720  0.03140  Biso   1.000  S
  S28      1.0000 0.10070  0.15720  0.96860  Biso   1.000  S
  S29      1.0000 0.09280  0.14930  0.28140  Biso   1.000  S
  S30      1.0000 0.09280  0.85070  0.21860  Biso   1.000  S
  S31      1.0000 0.10070  0.84280  0.53140  Biso   1.000  S
  S32      1.0000 0.40720  0.85070  0.78140  Biso   1.000  S
  N1       1.0000 0.08900  0.83790  0.96660  Biso   1.000  N
  N2       1.0000 0.41210  0.83900  0.21660  Biso   1.000  N
  N3       1.0000 0.08900  0.16210  0.53340  Biso   1.000  N
  N4       1.0000 0.41100  0.16210  0.46660  Biso   1.000  N
  N5       1.0000 0.08790  0.83900  0.78340  Biso   1.000  N
  N6       1.0000 0.08790  0.16100  0.71660  Biso   1.000  N
  N7       1.0000 0.41100  0.83790  0.03340  Biso   1.000  N
  N8       1.0000 0.41210  0.16100  0.28340  Biso   1.000  N
  N9       1.0000 0.58900  0.33790  0.46660  Biso   1.000  N
  N10      1.0000 0.91210  0.33900  0.71660  Biso   1.000  N
  N11      1.0000 0.58900  0.66210  0.03340  Biso   1.000  N
  N12      1.0000 0.91100  0.66210  0.96660  Biso   1.000  N
  N13      1.0000 0.58790  0.33900  0.28340  Biso   1.000  N
  N14      1.0000 0.58790  0.66100  0.21660  Biso   1.000  N
  N15      1.0000 0.91100  0.33790  0.53340  Biso   1.000  N
  N16      1.0000 0.91210  0.66100  0.78340  Biso   1.000  N
  N17      1.0000 0.91100  0.16210  0.03340  Biso   1.000  N
  N18      1.0000 0.08790  0.66100  0.28340  Biso   1.000  N
  N19      1.0000 0.91100  0.83790  0.46660  Biso   1.000  N
  N20      1.0000 0.58900  0.83790  0.53340  Biso   1.000  N
  N21      1.0000 0.41210  0.66100  0.71660  Biso   1.000  N
  N22      1.0000 0.41210  0.33900  0.78340  Biso   1.000  N
  N23      1.0000 0.58900  0.16210  0.96660  Biso   1.000  N
  N24      1.0000 0.08790  0.33900  0.21660  Biso   1.000  N
  N25      1.0000 0.41100  0.66210  0.53340  Biso   1.000  N
  N26      1.0000 0.58790  0.16100  0.78340  Biso   1.000  N
  N27      1.0000 0.41100  0.33790  0.96660  Biso   1.000  N
  N28      1.0000 0.08900  0.33790  0.03340  Biso   1.000  N
  N29      1.0000 0.91210  0.16100  0.21660  Biso   1.000  N
  N30      1.0000 0.91210  0.83900  0.28340  Biso   1.000  N
  N31      1.0000 0.08900  0.66210  0.46660  Biso   1.000  N
  N32      1.0000 0.58790  0.83900  0.71660  Biso   1.000  N
  N33      1.0000 0.12680  0.89370  0.05500  Biso   1.000  N
  N34      1.0000 0.35630  0.87680  0.30500  Biso   1.000  N
  N35      1.0000 0.12680  0.10630  0.44500  Biso   1.000  N
  N36      1.0000 0.37320  0.10630  0.55500  Biso   1.000  N
  N37      1.0000 0.14370  0.87680  0.69500  Biso   1.000  N
  N38      1.0000 0.14370  0.12320  0.80500  Biso   1.000  N
  N39      1.0000 0.37320  0.89370  0.94500  Biso   1.000  N
  N40      1.0000 0.35630  0.12320  0.19500  Biso   1.000  N
  N41      1.0000 0.62680  0.39370  0.55500  Biso   1.000  N
  N42      1.0000 0.85630  0.37680  0.80500  Biso   1.000  N
  N43      1.0000 0.62680  0.60630  0.94500  Biso   1.000  N
  N44      1.0000 0.87320  0.60630  0.05500  Biso   1.000  N
  N45      1.0000 0.64370  0.37680  0.19500  Biso   1.000  N
  N46      1.0000 0.64370  0.62320  0.30500  Biso   1.000  N
  N47      1.0000 0.87320  0.39370  0.44500  Biso   1.000  N
  N48      1.0000 0.85630  0.62320  0.69500  Biso   1.000  N
  N49      1.0000 0.87320  0.10630  0.94500  Biso   1.000  N
  N50      1.0000 0.14370  0.62320  0.19500  Biso   1.000  N
  N51      1.0000 0.87320  0.89370  0.55500  Biso   1.000  N
  N52      1.0000 0.62680  0.89370  0.44500  Biso   1.000  N
  N53      1.0000 0.35630  0.62320  0.80500  Biso   1.000  N
  N54      1.0000 0.35630  0.37680  0.69500  Biso   1.000  N
  N55      1.0000 0.62680  0.10630  0.05500  Biso   1.000  N
  N56      1.0000 0.14370  0.37680  0.30500  Biso   1.000  N
  N57      1.0000 0.37320  0.60630  0.44500  Biso   1.000  N
  N58      1.0000 0.64370  0.12320  0.69500  Biso   1.000  N
  N59      1.0000 0.37320  0.39370  0.05500  Biso   1.000  N
  N60      1.0000 0.12680  0.39370  0.94500  Biso   1.000  N
  N61      1.0000 0.85630  0.12320  0.30500  Biso   1.000  N
  N62      1.0000 0.85630  0.87680  0.19500  Biso   1.000  N
  N63      1.0000 0.12680  0.60630  0.55500  Biso   1.000  N
  N64      1.0000 0.64370  0.87680  0.80500  Biso   1.000  N
  C1       1.0000 0.09350  0.84270  0.89390  Biso   1.000  C
  C2       1.0000 0.40730  0.84350  0.14390  Biso   1.000  C
  C3       1.0000 0.09350  0.15730  0.60610  Biso   1.000  C
  C4       1.0000 0.40650  0.15730  0.39390  Biso   1.000  C
  C5       1.0000 0.09270  0.84350  0.85610  Biso   1.000  C
  C6       1.0000 0.09270  0.15650  0.64390  Biso   1.000  C
  C7       1.0000 0.40650  0.84270  0.10610  Biso   1.000  C
  C8       1.0000 0.40730  0.15650  0.35610  Biso   1.000  C
  C9       1.0000 0.59350  0.34270  0.39390  Biso   1.000  C
  C10      1.0000 0.90730  0.34350  0.64390  Biso   1.000  C
  C11      1.0000 0.59350  0.65730  0.10610  Biso   1.000  C
  C12      1.0000 0.90650  0.65730  0.89390  Biso   1.000  C
  C13      1.0000 0.59270  0.34350  0.35610  Biso   1.000  C
  C14      1.0000 0.59270  0.65650  0.14390  Biso   1.000  C
  C15      1.0000 0.90650  0.34270  0.60610  Biso   1.000  C
  C16      1.0000 0.90730  0.65650  0.85610  Biso   1.000  C
  C17      1.0000 0.90650  0.15730  0.10610  Biso   1.000  C
  C18      1.0000 0.09270  0.65650  0.35610  Biso   1.000  C
  C19      1.0000 0.90650  0.84270  0.39390  Biso   1.000  C
  C20      1.0000 0.59350  0.84270  0.60610  Biso   1.000  C
  C21      1.0000 0.40730  0.65650  0.64390  Biso   1.000  C
  C22      1.0000 0.40730  0.34350  0.85610  Biso   1.000  C
  C23      1.0000 0.59350  0.15730  0.89390  Biso   1.000  C
  C24      1.0000 0.09270  0.34350  0.14390  Biso   1.000  C
  C25      1.0000 0.40650  0.65730  0.60610  Biso   1.000  C
  C26      1.0000 0.59270  0.15650  0.85610  Biso   1.000  C
  C27      1.0000 0.40650  0.34270  0.89390  Biso   1.000  C
  C28      1.0000 0.09350  0.34270  0.10610  Biso   1.000  C
  C29      1.0000 0.90730  0.15650  0.14390  Biso   1.000  C
  C30      1.0000 0.90730  0.84350  0.35610  Biso   1.000  C
  C31      1.0000 0.09350  0.65730  0.39390  Biso   1.000  C
  C32      1.0000 0.59270  0.84350  0.64390  Biso   1.000  C
  C33      1.0000 0.04690  0.91180  0.91300  Biso   1.000  C
  C34      1.0000 0.33820  0.79690  0.16300  Biso   1.000  C
  C35      1.0000 0.04690  0.08820  0.58700  Biso   1.000  C
  C36      1.0000 0.45310  0.08820  0.41300  Biso   1.000  C
  C37      1.0000 0.16180  0.79690  0.83700  Biso   1.000  C
  C38      1.0000 0.16180  0.20310  0.66300  Biso   1.000  C
  C39      1.0000 0.45310  0.91180  0.08700  Biso   1.000  C
  C40      1.0000 0.33820  0.20310  0.33700  Biso   1.000  C
  C41      1.0000 0.54690  0.41180  0.41300  Biso   1.000  C
  C42      1.0000 0.83820  0.29690  0.66300  Biso   1.000  C
  C43      1.0000 0.54690  0.58820  0.08700  Biso   1.000  C
  C44      1.0000 0.95310  0.58820  0.91300  Biso   1.000  C
  C45      1.0000 0.66180  0.29690  0.33700  Biso   1.000  C
  C46      1.0000 0.66180  0.70310  0.16300  Biso   1.000  C
  C47      1.0000 0.95310  0.41180  0.58700  Biso   1.000  C
  C48      1.0000 0.83820  0.70310  0.83700  Biso   1.000  C
  C49      1.0000 0.95310  0.08820  0.08700  Biso   1.000  C
  C50      1.0000 0.16180  0.70310  0.33700  Biso   1.000  C
  C51      1.0000 0.95310  0.91180  0.41300  Biso   1.000  C
  C52      1.0000 0.54690  0.91180  0.58700  Biso   1.000  C
  C53      1.0000 0.33820  0.70310  0.66300  Biso   1.000  C
  C54      1.0000 0.33820  0.29690  0.83700  Biso   1.000  C
  C55      1.0000 0.54690  0.08820  0.91300  Biso   1.000  C
  C56      1.0000 0.16180  0.29690  0.16300  Biso   1.000  C
  C57      1.0000 0.45310  0.58820  0.58700  Biso   1.000  C
  C58      1.0000 0.66180  0.20310  0.83700  Biso   1.000  C
  C59      1.0000 0.45310  0.41180  0.91300  Biso   1.000  C
  C60      1.0000 0.04690  0.41180  0.08700  Biso   1.000  C
  C61      1.0000 0.83820  0.20310  0.16300  Biso   1.000  C
  C62      1.0000 0.83820  0.79690  0.33700  Biso   1.000  C
  C63      1.0000 0.04690  0.58820  0.41300  Biso   1.000  C
  C64      1.0000 0.66180  0.79690  0.66300  Biso   1.000  C
  C65      1.0000 0.04720  0.90690  0.94880  Biso   1.000  C
  C66      1.0000 0.34310  0.79720  0.19880  Biso   1.000  C
  C67      1.0000 0.04720  0.09310  0.55120  Biso   1.000  C
  C68      1.0000 0.45280  0.09310  0.44880  Biso   1.000  C
  C69      1.0000 0.15690  0.79720  0.80120  Biso   1.000  C
  C70      1.0000 0.15690  0.20280  0.69880  Biso   1.000  C
  C71      1.0000 0.45280  0.90690  0.05120  Biso   1.000  C
  C72      1.0000 0.34310  0.20280  0.30120  Biso   1.000  C
  C73      1.0000 0.54720  0.40690  0.44880  Biso   1.000  C
  C74      1.0000 0.84310  0.29720  0.69880  Biso   1.000  C
  C75      1.0000 0.54720  0.59310  0.05120  Biso   1.000  C
  C76      1.0000 0.95280  0.59310  0.94880  Biso   1.000  C
  C77      1.0000 0.65690  0.29720  0.30120  Biso   1.000  C
  C78      1.0000 0.65690  0.70280  0.19880  Biso   1.000  C
  C79      1.0000 0.95280  0.40690  0.55120  Biso   1.000  C
  C80      1.0000 0.84310  0.70280  0.80120  Biso   1.000  C
  C81      1.0000 0.95280  0.09310  0.05120  Biso   1.000  C
  C82      1.0000 0.15690  0.70280  0.30120  Biso   1.000  C
  C83      1.0000 0.95280  0.90690  0.44880  Biso   1.000  C
  C84      1.0000 0.54720  0.90690  0.55120  Biso   1.000  C
  C85      1.0000 0.34310  0.70280  0.69880  Biso   1.000  C
  C86      1.0000 0.34310  0.29720  0.80120  Biso   1.000  C
  C87      1.0000 0.54720  0.09310  0.94880  Biso   1.000  C
  C88      1.0000 0.15690  0.29720  0.19880  Biso   1.000  C
  C89      1.0000 0.45280  0.59310  0.55120  Biso   1.000  C
  C90      1.0000 0.65690  0.20280  0.80120  Biso   1.000  C
  C91      1.0000 0.45280  0.40690  0.94880  Biso   1.000  C
  C92      1.0000 0.04720  0.40690  0.05120  Biso   1.000  C
  C93      1.0000 0.84310  0.20280  0.19880  Biso   1.000  C
  C94      1.0000 0.84310  0.79720  0.30120  Biso   1.000  C
  C95      1.0000 0.04720  0.59310  0.44880  Biso   1.000  C
  C96      1.0000 0.65690  0.79720  0.69880  Biso   1.000  C
  C97      1.0000 0.13570  0.77230  0.94820  Biso   1.000  C
  C98      1.0000 0.47770  0.88570  0.19820  Biso   1.000  C
  C99      1.0000 0.13570  0.22770  0.55180  Biso   1.000  C
  C100     1.0000 0.36430  0.22770  0.44820  Biso   1.000  C
  C101     1.0000 0.02230  0.88570  0.80180  Biso   1.000  C
  C102     1.0000 0.02230  0.11430  0.69820  Biso   1.000  C
  C103     1.0000 0.36430  0.77230  0.05180  Biso   1.000  C
  C104     1.0000 0.47770  0.11430  0.30180  Biso   1.000  C
  C105     1.0000 0.63570  0.27230  0.44820  Biso   1.000  C
  C106     1.0000 0.97770  0.38570  0.69820  Biso   1.000  C
  C107     1.0000 0.63570  0.72770  0.05180  Biso   1.000  C
  C108     1.0000 0.86430  0.72770  0.94820  Biso   1.000  C
  C109     1.0000 0.52230  0.38570  0.30180  Biso   1.000  C
  C110     1.0000 0.52230  0.61430  0.19820  Biso   1.000  C
  C111     1.0000 0.86430  0.27230  0.55180  Biso   1.000  C
  C112     1.0000 0.97770  0.61430  0.80180  Biso   1.000  C
  C113     1.0000 0.86430  0.22770  0.05180  Biso   1.000  C
  C114     1.0000 0.02230  0.61430  0.30180  Biso   1.000  C
  C115     1.0000 0.86430  0.77230  0.44820  Biso   1.000  C
  C116     1.0000 0.63570  0.77230  0.55180  Biso   1.000  C
  C117     1.0000 0.47770  0.61430  0.69820  Biso   1.000  C
  C118     1.0000 0.47770  0.38570  0.80180  Biso   1.000  C
  C119     1.0000 0.63570  0.22770  0.94820  Biso   1.000  C
  C120     1.0000 0.02230  0.38570  0.19820  Biso   1.000  C
  C121     1.0000 0.36430  0.72770  0.55180  Biso   1.000  C
  C122     1.0000 0.52230  0.11430  0.80180  Biso   1.000  C
  C123     1.0000 0.36430  0.27230  0.94820  Biso   1.000  C
  C124     1.0000 0.13570  0.27230  0.05180  Biso   1.000  C
  C125     1.0000 0.97770  0.11430  0.19820  Biso   1.000  C
  C126     1.0000 0.97770  0.88570  0.30180  Biso   1.000  C
  C127     1.0000 0.13570  0.72770  0.44820  Biso   1.000  C
  C128     1.0000 0.52230  0.88570  0.69820  Biso   1.000  C
  C129     1.0000 0.13920  0.77270  0.91250  Biso   1.000  C
  C130     1.0000 0.47730  0.88920  0.16250  Biso   1.000  C
  C131     1.0000 0.13920  0.22730  0.58750  Biso   1.000  C
  C132     1.0000 0.36080  0.22730  0.41250  Biso   1.000  C
  C133     1.0000 0.02270  0.88920  0.83750  Biso   1.000  C
  C134     1.0000 0.02270  0.11080  0.66250  Biso   1.000  C
  C135     1.0000 0.36080  0.77270  0.08750  Biso   1.000  C
  C136     1.0000 0.47730  0.11080  0.33750  Biso   1.000  C
  C137     1.0000 0.63920  0.27270  0.41250  Biso   1.000  C
  C138     1.0000 0.97730  0.38920  0.66250  Biso   1.000  C
  C139     1.0000 0.63920  0.72730  0.08750  Biso   1.000  C
  C140     1.0000 0.86080  0.72730  0.91250  Biso   1.000  C
  C141     1.0000 0.52270  0.38920  0.33750  Biso   1.000  C
  C142     1.0000 0.52270  0.61080  0.16250  Biso   1.000  C
  C143     1.0000 0.86080  0.27270  0.58750  Biso   1.000  C
  C144     1.0000 0.97730  0.61080  0.83750  Biso   1.000  C
  C145     1.0000 0.86080  0.22730  0.08750  Biso   1.000  C
  C146     1.0000 0.02270  0.61080  0.33750  Biso   1.000  C
  C147     1.0000 0.86080  0.77270  0.41250  Biso   1.000  C
  C148     1.0000 0.63920  0.77270  0.58750  Biso   1.000  C
  C149     1.0000 0.47730  0.61080  0.66250  Biso   1.000  C
  C150     1.0000 0.47730  0.38920  0.83750  Biso   1.000  C
  C151     1.0000 0.63920  0.22730  0.91250  Biso   1.000  C
  C152     1.0000 0.02270  0.38920  0.16250  Biso   1.000  C
  C153     1.0000 0.36080  0.72730  0.58750  Biso   1.000  C
  C154     1.0000 0.52270  0.11080  0.83750  Biso   1.000  C
  C155     1.0000 0.36080  0.27270  0.91250  Biso   1.000  C
  C156     1.0000 0.13920  0.27270  0.08750  Biso   1.000  C
  C157     1.0000 0.97730  0.11080  0.16250  Biso   1.000  C
  C158     1.0000 0.97730  0.88920  0.33750  Biso   1.000  C
  C159     1.0000 0.13920  0.72730  0.41250  Biso   1.000  C
  C160     1.0000 0.52270  0.88920  0.66250  Biso   1.000  C
  C161     1.0000 0.21130  0.99110  0.11060  Biso   1.000  C
  C162     1.0000 0.25890  0.96130  0.36060  Biso   1.000  C
  C163     1.0000 0.21130  0.00890  0.38940  Biso   1.000  C
  C164     1.0000 0.28870  0.00890  0.61060  Biso   1.000  C
  C165     1.0000 0.24110  0.96130  0.63940  Biso   1.000  C
  C166     1.0000 0.24110  0.03870  0.86060  Biso   1.000  C
  C167     1.0000 0.28870  0.99110  0.88940  Biso   1.000  C
  C168     1.0000 0.25890  0.03870  0.13940  Biso   1.000  C
  C169     1.0000 0.71130  0.49110  0.61060  Biso   1.000  C
  C170     1.0000 0.75890  0.46130  0.86060  Biso   1.000  C
  C171     1.0000 0.71130  0.50890  0.88940  Biso   1.000  C
  C172     1.0000 0.78870  0.50890  0.11060  Biso   1.000  C
  C173     1.0000 0.74110  0.46130  0.13940  Biso   1.000  C
  C174     1.0000 0.74110  0.53870  0.36060  Biso   1.000  C
  C175     1.0000 0.78870  0.49110  0.38940  Biso   1.000  C
  C176     1.0000 0.75890  0.53870  0.63940  Biso   1.000  C
  C177     1.0000 0.78870  0.00890  0.88940  Biso   1.000  C
  C178     1.0000 0.24110  0.53870  0.13940  Biso   1.000  C
  C179     1.0000 0.78870  0.99110  0.61060  Biso   1.000  C
  C180     1.0000 0.71130  0.99110  0.38940  Biso   1.000  C
  C181     1.0000 0.25890  0.53870  0.86060  Biso   1.000  C
  C182     1.0000 0.25890  0.46130  0.63940  Biso   1.000  C
  C183     1.0000 0.71130  0.00890  0.11060  Biso   1.000  C
  C184     1.0000 0.24110  0.46130  0.36060  Biso   1.000  C
  C185     1.0000 0.28870  0.50890  0.38940  Biso   1.000  C
  C186     1.0000 0.74110  0.03870  0.63940  Biso   1.000  C
  C187     1.0000 0.28870  0.49110  0.11060  Biso   1.000  C
  C188     1.0000 0.21130  0.49110  0.88940  Biso   1.000  C
  C189     1.0000 0.75890  0.03870  0.36060  Biso   1.000  C
  C190     1.0000 0.75890  0.96130  0.13940  Biso   1.000  C
  C191     1.0000 0.21130  0.50890  0.61060  Biso   1.000  C
  C192     1.0000 0.74110  0.96130  0.86060  Biso   1.000  C
  C193     1.0000 0.22460  0.01900  0.07690  Biso   1.000  C
  C194     1.0000 0.23100  0.97460  0.32690  Biso   1.000  C
  C195     1.0000 0.22460  0.98100  0.42310  Biso   1.000  C
  C196     1.0000 0.27540  0.98100  0.57690  Biso   1.000  C
  C197     1.0000 0.26900  0.97460  0.67310  Biso   1.000  C
  C198     1.0000 0.26900  0.02540  0.82690  Biso   1.000  C
  C199     1.0000 0.27540  0.01900  0.92310  Biso   1.000  C
  C200     1.0000 0.23100  0.02540  0.17310  Biso   1.000  C
  C201     1.0000 0.72460  0.51900  0.57690  Biso   1.000  C
  C202     1.0000 0.73100  0.47460  0.82690  Biso   1.000  C
  C203     1.0000 0.72460  0.48100  0.92310  Biso   1.000  C
  C204     1.0000 0.77540  0.48100  0.07690  Biso   1.000  C
  C205     1.0000 0.76900  0.47460  0.17310  Biso   1.000  C
  C206     1.0000 0.76900  0.52540  0.32690  Biso   1.000  C
  C207     1.0000 0.77540  0.51900  0.42310  Biso   1.000  C
  C208     1.0000 0.73100  0.52540  0.67310  Biso   1.000  C
  C209     1.0000 0.77540  0.98100  0.92310  Biso   1.000  C
  C210     1.0000 0.26900  0.52540  0.17310  Biso   1.000  C
  C211     1.0000 0.77540  0.01900  0.57690  Biso   1.000  C
  C212     1.0000 0.72460  0.01900  0.42310  Biso   1.000  C
  C213     1.0000 0.23100  0.52540  0.82690  Biso   1.000  C
  C214     1.0000 0.23100  0.47460  0.67310  Biso   1.000  C
  C215     1.0000 0.72460  0.98100  0.07690  Biso   1.000  C
  C216     1.0000 0.26900  0.47460  0.32690  Biso   1.000  C
  C217     1.0000 0.27540  0.48100  0.42310  Biso   1.000  C
  C218     1.0000 0.76900  0.02540  0.67310  Biso   1.000  C
  C219     1.0000 0.27540  0.51900  0.07690  Biso   1.000  C
  C220     1.0000 0.22460  0.51900  0.92310  Biso   1.000  C
  C221     1.0000 0.73100  0.02540  0.32690  Biso   1.000  C
  C222     1.0000 0.73100  0.97460  0.17310  Biso   1.000  C
  C223     1.0000 0.22460  0.48100  0.57690  Biso   1.000  C
  C224     1.0000 0.76900  0.97460  0.82690  Biso   1.000  C
  C225     1.0000 0.18170  0.96990  0.05050  Biso   1.000  C
  C226     1.0000 0.28010  0.93170  0.30050  Biso   1.000  C
  C227     1.0000 0.18170  0.03010  0.44950  Biso   1.000  C
  C228     1.0000 0.31830  0.03010  0.55050  Biso   1.000  C
  C229     1.0000 0.21990  0.93170  0.69950  Biso   1.000  C
  C230     1.0000 0.21990  0.06830  0.80050  Biso   1.000  C
  C231     1.0000 0.31830  0.96990  0.94950  Biso   1.000  C
  C232     1.0000 0.28010  0.06830  0.19950  Biso   1.000  C
  C233     1.0000 0.68170  0.46990  0.55050  Biso   1.000  C
  C234     1.0000 0.78010  0.43170  0.80050  Biso   1.000  C
  C235     1.0000 0.68170  0.53010  0.94950  Biso   1.000  C
  C236     1.0000 0.81830  0.53010  0.05050  Biso   1.000  C
  C237     1.0000 0.71990  0.43170  0.19950  Biso   1.000  C
  C238     1.0000 0.71990  0.56830  0.30050  Biso   1.000  C
  C239     1.0000 0.81830  0.46990  0.44950  Biso   1.000  C
  C240     1.0000 0.78010  0.56830  0.69950  Biso   1.000  C
  C241     1.0000 0.81830  0.03010  0.94950  Biso   1.000  C
  C242     1.0000 0.21990  0.56830  0.19950  Biso   1.000  C
  C243     1.0000 0.81830  0.96990  0.55050  Biso   1.000  C
  C244     1.0000 0.68170  0.96990  0.44950  Biso   1.000  C
  C245     1.0000 0.28010  0.56830  0.80050  Biso   1.000  C
  C246     1.0000 0.28010  0.43170  0.69950  Biso   1.000  C
  C247     1.0000 0.68170  0.03010  0.05050  Biso   1.000  C
  C248     1.0000 0.21990  0.43170  0.30050  Biso   1.000  C
  C249     1.0000 0.31830  0.53010  0.44950  Biso   1.000  C
  C250     1.0000 0.71990  0.06830  0.69950  Biso   1.000  C
  C251     1.0000 0.31830  0.46990  0.05050  Biso   1.000  C
  C252     1.0000 0.18170  0.46990  0.94950  Biso   1.000  C
  C253     1.0000 0.78010  0.06830  0.30050  Biso   1.000  C
  C254     1.0000 0.78010  0.93170  0.19950  Biso   1.000  C
  C255     1.0000 0.18170  0.53010  0.55050  Biso   1.000  C
  C256     1.0000 0.71990  0.93170  0.80050  Biso   1.000  C
  C257     1.0000 0.11280  0.86680  0.08830  Biso   1.000  C
  C258     1.0000 0.38320  0.86280  0.33830  Biso   1.000  C
  C259     1.0000 0.11280  0.13320  0.41170  Biso   1.000  C
  C260     1.0000 0.38720  0.13320  0.58830  Biso   1.000  C
  C261     1.0000 0.11680  0.86280  0.66170  Biso   1.000  C
  C262     1.0000 0.11680  0.13720  0.83830  Biso   1.000  C
  C263     1.0000 0.38720  0.86680  0.91170  Biso   1.000  C
  C264     1.0000 0.38320  0.13720  0.16170  Biso   1.000  C
  C265     1.0000 0.61280  0.36680  0.58830  Biso   1.000  C
  C266     1.0000 0.88320  0.36280  0.83830  Biso   1.000  C
  C267     1.0000 0.61280  0.63320  0.91170  Biso   1.000  C
  C268     1.0000 0.88720  0.63320  0.08830  Biso   1.000  C
  C269     1.0000 0.61680  0.36280  0.16170  Biso   1.000  C
  C270     1.0000 0.61680  0.63720  0.33830  Biso   1.000  C
  C271     1.0000 0.88720  0.36680  0.41170  Biso   1.000  C
  C272     1.0000 0.88320  0.63720  0.66170  Biso   1.000  C
  C273     1.0000 0.88720  0.13320  0.91170  Biso   1.000  C
  C274     1.0000 0.11680  0.63720  0.16170  Biso   1.000  C
  C275     1.0000 0.88720  0.86680  0.58830  Biso   1.000  C
  C276     1.0000 0.61280  0.86680  0.41170  Biso   1.000  C
  C277     1.0000 0.38320  0.63720  0.83830  Biso   1.000  C
  C278     1.0000 0.38320  0.36280  0.66170  Biso   1.000  C
  C279     1.0000 0.61280  0.13320  0.08830  Biso   1.000  C
  C280     1.0000 0.11680  0.36280  0.33830  Biso   1.000  C
  C281     1.0000 0.38720  0.63320  0.41170  Biso   1.000  C
  C282     1.0000 0.61680  0.13720  0.66170  Biso   1.000  C
  C283     1.0000 0.38720  0.36680  0.08830  Biso   1.000  C
  C284     1.0000 0.11280  0.36680  0.91170  Biso   1.000  C
  C285     1.0000 0.88320  0.13720  0.33830  Biso   1.000  C
  C286     1.0000 0.88320  0.86280  0.16170  Biso   1.000  C
  C287     1.0000 0.11280  0.63320  0.58830  Biso   1.000  C
  C288     1.0000 0.61680  0.86280  0.83830  Biso   1.000  C
  C289     1.0000 0.15200  0.91240  0.11580  Biso   1.000  C
  C290     1.0000 0.33760  0.90200  0.36580  Biso   1.000  C
  C291     1.0000 0.15200  0.08760  0.38420  Biso   1.000  C
  C292     1.0000 0.34800  0.08760  0.61580  Biso   1.000  C
  C293     1.0000 0.16240  0.90200  0.63420  Biso   1.000  C
  C294     1.0000 0.16240  0.09800  0.86580  Biso   1.000  C
  C295     1.0000 0.34800  0.91240  0.88420  Biso   1.000  C
  C296     1.0000 0.33760  0.09800  0.13420  Biso   1.000  C
  C297     1.0000 0.65200  0.41240  0.61580  Biso   1.000  C
  C298     1.0000 0.83760  0.40200  0.86580  Biso   1.000  C
  C299     1.0000 0.65200  0.58760  0.88420  Biso   1.000  C
  C300     1.0000 0.84800  0.58760  0.11580  Biso   1.000  C
  C301     1.0000 0.66240  0.40200  0.13420  Biso   1.000  C
  C302     1.0000 0.66240  0.59800  0.36580  Biso   1.000  C
  C303     1.0000 0.84800  0.41240  0.38420  Biso   1.000  C
  C304     1.0000 0.83760  0.59800  0.63420  Biso   1.000  C
  C305     1.0000 0.84800  0.08760  0.88420  Biso   1.000  C
  C306     1.0000 0.16240  0.59800  0.13420  Biso   1.000  C
  C307     1.0000 0.84800  0.91240  0.61580  Biso   1.000  C
  C308     1.0000 0.65200  0.91240  0.38420  Biso   1.000  C
  C309     1.0000 0.33760  0.59800  0.86580  Biso   1.000  C
  C310     1.0000 0.33760  0.40200  0.63420  Biso   1.000  C
  C311     1.0000 0.65200  0.08760  0.11580  Biso   1.000  C
  C312     1.0000 0.16240  0.40200  0.36580  Biso   1.000  C
  C313     1.0000 0.34800  0.58760  0.38420  Biso   1.000  C
  C314     1.0000 0.66240  0.09800  0.63420  Biso   1.000  C
  C315     1.0000 0.34800  0.41240  0.11580  Biso   1.000  C
  C316     1.0000 0.15200  0.41240  0.88420  Biso   1.000  C
  C317     1.0000 0.83760  0.09800  0.36580  Biso   1.000  C
  C318     1.0000 0.83760  0.90200  0.13420  Biso   1.000  C
  C319     1.0000 0.15200  0.58760  0.61580  Biso   1.000  C
  C320     1.0000 0.66240  0.90200  0.86580  Biso   1.000  C
