data_image0
_cell_length_a       28.26
_cell_length_b       6.0533
_cell_length_c       22.265
_cell_angle_alpha    90
_cell_angle_beta     119.9
_cell_angle_gamma    90

_symmetry_space_group_name_H-M    "P 1"
_symmetry_int_tables_number       1

loop_
  _symmetry_equiv_pos_as_xyz
  'x, y, z'

loop_
  _atom_site_label
  _atom_site_occupancy
  _atom_site_fract_x
  _atom_site_fract_y
  _atom_site_fract_z
  _atom_site_thermal_displace_type
  _atom_site_B_iso_or_equiv
  _atom_site_type_symbol
  Cu1      1.0000 0.50000  0.86796  0.75000  Biso   1.000  Cu
  Cu2      1.0000 0.00000  0.36796  0.75000  Biso   1.000  Cu
  Cu3      1.0000 0.50000  0.13204  0.25000  Biso   1.000  Cu
  Cu4      1.0000 0.00000  0.63204  0.25000  Biso   1.000  Cu
  O1       1.0000 0.57885  0.86200  0.80588  Biso   1.000  O
  O2       1.0000 0.42115  0.86200  0.69412  Biso   1.000  O
  O3       1.0000 0.07885  0.36200  0.80588  Biso   1.000  O
  O4       1.0000 0.92115  0.36200  0.69412  Biso   1.000  O
  O5       1.0000 0.42115  0.13800  0.19412  Biso   1.000  O
  O6       1.0000 0.57885  0.13800  0.30588  Biso   1.000  O
  O7       1.0000 0.92115  0.63800  0.19412  Biso   1.000  O
  O8       1.0000 0.07885  0.63800  0.30588  Biso   1.000  O
  N1       1.0000 0.50528  0.91130  0.66100  Biso   1.000  N
  N2       1.0000 0.49472  0.91130  0.83900  Biso   1.000  N
  N3       1.0000 0.00528  0.41130  0.66100  Biso   1.000  N
  N4       1.0000 0.99472  0.41130  0.83900  Biso   1.000  N
  N5       1.0000 0.49472  0.08870  0.33900  Biso   1.000  N
  N6       1.0000 0.50528  0.08870  0.16100  Biso   1.000  N
  N7       1.0000 0.99472  0.58870  0.33900  Biso   1.000  N
  N8       1.0000 0.00528  0.58870  0.16100  Biso   1.000  N
  C1       1.0000 0.60320  0.04240  0.83290  Biso   1.000  C
  C2       1.0000 0.39680  0.04240  0.66710  Biso   1.000  C
  C3       1.0000 0.10320  0.54240  0.83290  Biso   1.000  C
  C4       1.0000 0.89680  0.54240  0.66710  Biso   1.000  C
  C5       1.0000 0.39680  0.95760  0.16710  Biso   1.000  C
  C6       1.0000 0.60320  0.95760  0.33290  Biso   1.000  C
  C7       1.0000 0.89680  0.45760  0.16710  Biso   1.000  C
  C8       1.0000 0.10320  0.45760  0.33290  Biso   1.000  C
  O9       1.0000 0.58001  0.21880  0.82670  Biso   1.000  O
  O10      1.0000 0.41999  0.21880  0.67330  Biso   1.000  O
  O11      1.0000 0.08001  0.71880  0.82670  Biso   1.000  O
  O12      1.0000 0.91999  0.71880  0.67330  Biso   1.000  O
  O13      1.0000 0.41999  0.78120  0.17330  Biso   1.000  O
  O14      1.0000 0.58001  0.78120  0.32670  Biso   1.000  O
  O15      1.0000 0.91999  0.28120  0.17330  Biso   1.000  O
  O16      1.0000 0.08001  0.28120  0.32670  Biso   1.000  O
  C9       1.0000 0.52860  0.12080  0.58950  Biso   1.000  C
  C10      1.0000 0.47140  0.12080  0.91050  Biso   1.000  C
  C11      1.0000 0.02860  0.62080  0.58950  Biso   1.000  C
  C12      1.0000 0.97140  0.62080  0.91050  Biso   1.000  C
  C13      1.0000 0.47140  0.87920  0.41050  Biso   1.000  C
  C14      1.0000 0.52860  0.87920  0.08950  Biso   1.000  C
  C15      1.0000 0.97140  0.37920  0.41050  Biso   1.000  C
  C16      1.0000 0.02860  0.37920  0.08950  Biso   1.000  C
  H1       1.0000 0.54650  0.24390  0.58550  Biso   1.000  H
  H2       1.0000 0.45350  0.24390  0.91450  Biso   1.000  H
  H3       1.0000 0.04650  0.74390  0.58550  Biso   1.000  H
  H4       1.0000 0.95350  0.74390  0.91450  Biso   1.000  H
  H5       1.0000 0.45350  0.75610  0.41450  Biso   1.000  H
  H6       1.0000 0.54650  0.75610  0.08550  Biso   1.000  H
  H7       1.0000 0.95350  0.25610  0.41450  Biso   1.000  H
  H8       1.0000 0.04650  0.25610  0.08550  Biso   1.000  H
  O17      1.0000 0.50000  0.50840  0.75000  Biso   1.000  O
  O18      1.0000 0.00000  0.00840  0.75000  Biso   1.000  O
  O19      1.0000 0.50000  0.49160  0.25000  Biso   1.000  O
  O20      1.0000 0.00000  0.99160  0.25000  Biso   1.000  O
  C17      1.0000 0.50147  0.98000  0.53390  Biso   1.000  C
  C18      1.0000 0.49853  0.98000  0.96610  Biso   1.000  C
  C19      1.0000 0.00147  0.48000  0.53390  Biso   1.000  C
  C20      1.0000 0.99853  0.48000  0.96610  Biso   1.000  C
  C21      1.0000 0.49853  0.02000  0.46610  Biso   1.000  C
  C22      1.0000 0.50147  0.02000  0.03390  Biso   1.000  C
  C23      1.0000 0.99853  0.52000  0.46610  Biso   1.000  C
  C24      1.0000 0.00147  0.52000  0.03390  Biso   1.000  C
  C25      1.0000 0.52950  0.08050  0.65130  Biso   1.000  C
  C26      1.0000 0.47050  0.08050  0.84870  Biso   1.000  C
  C27      1.0000 0.02950  0.58050  0.65130  Biso   1.000  C
  C28      1.0000 0.97050  0.58050  0.84870  Biso   1.000  C
  C29      1.0000 0.47050  0.91950  0.34870  Biso   1.000  C
  C30      1.0000 0.52950  0.91950  0.15130  Biso   1.000  C
  C31      1.0000 0.97050  0.41950  0.34870  Biso   1.000  C
  C32      1.0000 0.02950  0.41950  0.15130  Biso   1.000  C
  H9       1.0000 0.54820  0.17880  0.68770  Biso   1.000  H
  H10      1.0000 0.45180  0.17880  0.81230  Biso   1.000  H
  H11      1.0000 0.04820  0.67880  0.68770  Biso   1.000  H
  H12      1.0000 0.95180  0.67880  0.81230  Biso   1.000  H
  H13      1.0000 0.45180  0.82120  0.31230  Biso   1.000  H
  H14      1.0000 0.54820  0.82120  0.18770  Biso   1.000  H
  H15      1.0000 0.95180  0.32120  0.31230  Biso   1.000  H
  H16      1.0000 0.04820  0.32120  0.18770  Biso   1.000  H
  C33      1.0000 0.47960  0.77050  0.60880  Biso   1.000  C
  C34      1.0000 0.52040  0.77050  0.89120  Biso   1.000  C
  C35      1.0000 0.97960  0.27050  0.60880  Biso   1.000  C
  C36      1.0000 0.02040  0.27050  0.89120  Biso   1.000  C
  C37      1.0000 0.52040  0.22950  0.39120  Biso   1.000  C
  C38      1.0000 0.47960  0.22950  0.10880  Biso   1.000  C
  C39      1.0000 0.02040  0.72950  0.39120  Biso   1.000  C
  C40      1.0000 0.97960  0.72950  0.10880  Biso   1.000  C
  H17      1.0000 0.46270  0.64760  0.61500  Biso   1.000  H
  H18      1.0000 0.53730  0.64760  0.88500  Biso   1.000  H
  H19      1.0000 0.96270  0.14760  0.61500  Biso   1.000  H
  H20      1.0000 0.03730  0.14760  0.88500  Biso   1.000  H
  H21      1.0000 0.53730  0.35240  0.38500  Biso   1.000  H
  H22      1.0000 0.46270  0.35240  0.11500  Biso   1.000  H
  H23      1.0000 0.03730  0.85240  0.38500  Biso   1.000  H
  H24      1.0000 0.96270  0.85240  0.11500  Biso   1.000  H
  C41      1.0000 0.75790  0.19100  0.91880  Biso   1.000  C
  C42      1.0000 0.24210  0.19100  0.58120  Biso   1.000  C
  C43      1.0000 0.25790  0.69100  0.91880  Biso   1.000  C
  C44      1.0000 0.74210  0.69100  0.58120  Biso   1.000  C
  C45      1.0000 0.24210  0.80900  0.08120  Biso   1.000  C
  C46      1.0000 0.75790  0.80900  0.41880  Biso   1.000  C
  C47      1.0000 0.74210  0.30900  0.08120  Biso   1.000  C
  C48      1.0000 0.25790  0.30900  0.41880  Biso   1.000  C
  C49      1.0000 0.47700  0.79970  0.54550  Biso   1.000  C
  C50      1.0000 0.52300  0.79970  0.95450  Biso   1.000  C
  C51      1.0000 0.97700  0.29970  0.54550  Biso   1.000  C
  C52      1.0000 0.02300  0.29970  0.95450  Biso   1.000  C
  C53      1.0000 0.52300  0.20030  0.45450  Biso   1.000  C
  C54      1.0000 0.47700  0.20030  0.04550  Biso   1.000  C
  C55      1.0000 0.02300  0.70030  0.45450  Biso   1.000  C
  C56      1.0000 0.97700  0.70030  0.04550  Biso   1.000  C
  H25      1.0000 0.45870  0.69670  0.51030  Biso   1.000  H
  H26      1.0000 0.54130  0.69670  0.98970  Biso   1.000  H
  H27      1.0000 0.95870  0.19670  0.51030  Biso   1.000  H
  H28      1.0000 0.04130  0.19670  0.98970  Biso   1.000  H
  H29      1.0000 0.54130  0.30330  0.48970  Biso   1.000  H
  H30      1.0000 0.45870  0.30330  0.01030  Biso   1.000  H
  H31      1.0000 0.04130  0.80330  0.48970  Biso   1.000  H
  H32      1.0000 0.95870  0.80330  0.01030  Biso   1.000  H
  C57      1.0000 0.78920  0.36400  0.92210  Biso   1.000  C
  C58      1.0000 0.21080  0.36400  0.57790  Biso   1.000  C
  C59      1.0000 0.28920  0.86400  0.92210  Biso   1.000  C
  C60      1.0000 0.71080  0.86400  0.57790  Biso   1.000  C
  C61      1.0000 0.21080  0.63600  0.07790  Biso   1.000  C
  C62      1.0000 0.78920  0.63600  0.42210  Biso   1.000  C
  C63      1.0000 0.71080  0.13600  0.07790  Biso   1.000  C
  C64      1.0000 0.28920  0.13600  0.42210  Biso   1.000  C
  H33      1.0000 0.77260  0.48800  0.89500  Biso   1.000  H
  H34      1.0000 0.22740  0.48800  0.60500  Biso   1.000  H
  H35      1.0000 0.27260  0.98800  0.89500  Biso   1.000  H
  H36      1.0000 0.72740  0.98800  0.60500  Biso   1.000  H
  H37      1.0000 0.22740  0.51200  0.10500  Biso   1.000  H
  H38      1.0000 0.77260  0.51200  0.39500  Biso   1.000  H
  H39      1.0000 0.72740  0.01200  0.10500  Biso   1.000  H
  H40      1.0000 0.27260  0.01200  0.39500  Biso   1.000  H
  C65      1.0000 0.68090  0.27260  0.79860  Biso   1.000  C
  C66      1.0000 0.31910  0.27260  0.70140  Biso   1.000  C
  C67      1.0000 0.18090  0.77260  0.79860  Biso   1.000  C
  C68      1.0000 0.81910  0.77260  0.70140  Biso   1.000  C
  C69      1.0000 0.31910  0.72740  0.20140  Biso   1.000  C
  C70      1.0000 0.68090  0.72740  0.29860  Biso   1.000  C
  C71      1.0000 0.81910  0.22740  0.20140  Biso   1.000  C
  C72      1.0000 0.18090  0.22740  0.29860  Biso   1.000  C
  C73      1.0000 0.69700  0.15650  0.76050  Biso   1.000  C
  C74      1.0000 0.30300  0.15650  0.73950  Biso   1.000  C
  C75      1.0000 0.19700  0.65650  0.76050  Biso   1.000  C
  C76      1.0000 0.80300  0.65650  0.73950  Biso   1.000  C
  C77      1.0000 0.30300  0.84350  0.23950  Biso   1.000  C
  C78      1.0000 0.69700  0.84350  0.26050  Biso   1.000  C
  C79      1.0000 0.80300  0.34350  0.23950  Biso   1.000  C
  C80      1.0000 0.19700  0.34350  0.26050  Biso   1.000  C
  H41      1.0000 0.71620  0.02540  0.77800  Biso   1.000  H
  H42      1.0000 0.28380  0.02540  0.72200  Biso   1.000  H
  H43      1.0000 0.21620  0.52540  0.77800  Biso   1.000  H
  H44      1.0000 0.78380  0.52540  0.72200  Biso   1.000  H
  H45      1.0000 0.28380  0.97460  0.22200  Biso   1.000  H
  H46      1.0000 0.71620  0.97460  0.27800  Biso   1.000  H
  H47      1.0000 0.78380  0.47460  0.22200  Biso   1.000  H
  H48      1.0000 0.21620  0.47460  0.27800  Biso   1.000  H
  C81      1.0000 0.87050  0.18360  0.00470  Biso   1.000  C
  C82      1.0000 0.12950  0.18360  0.49530  Biso   1.000  C
  C83      1.0000 0.37050  0.68360  0.00470  Biso   1.000  C
  C84      1.0000 0.62950  0.68360  0.49530  Biso   1.000  C
  C85      1.0000 0.12950  0.81640  0.99530  Biso   1.000  C
  C86      1.0000 0.87050  0.81640  0.50470  Biso   1.000  C
  C87      1.0000 0.62950  0.31640  0.99530  Biso   1.000  C
  C88      1.0000 0.37050  0.31640  0.50470  Biso   1.000  C
  H49      1.0000 0.90820  0.18290  0.03330  Biso   1.000  H
  H50      1.0000 0.09180  0.18290  0.46670  Biso   1.000  H
  H51      1.0000 0.40820  0.68290  0.03330  Biso   1.000  H
  H52      1.0000 0.59180  0.68290  0.46670  Biso   1.000  H
  H53      1.0000 0.09180  0.81710  0.96670  Biso   1.000  H
  H54      1.0000 0.90820  0.81710  0.53330  Biso   1.000  H
  H55      1.0000 0.59180  0.31710  0.96670  Biso   1.000  H
  H56      1.0000 0.40820  0.31710  0.53330  Biso   1.000  H
  C89      1.0000 0.78390  0.00630  0.95890  Biso   1.000  C
  C90      1.0000 0.21610  0.00630  0.54110  Biso   1.000  C
  C91      1.0000 0.28390  0.50630  0.95890  Biso   1.000  C
  C92      1.0000 0.71610  0.50630  0.54110  Biso   1.000  C
  C93      1.0000 0.21610  0.99370  0.04110  Biso   1.000  C
  C94      1.0000 0.78390  0.99370  0.45890  Biso   1.000  C
  C95      1.0000 0.71610  0.49370  0.04110  Biso   1.000  C
  C96      1.0000 0.28390  0.49370  0.45890  Biso   1.000  C
  H57      1.0000 0.76350  0.88260  0.95640  Biso   1.000  H
  H58      1.0000 0.23650  0.88260  0.54360  Biso   1.000  H
  H59      1.0000 0.26350  0.38260  0.95640  Biso   1.000  H
  H60      1.0000 0.73650  0.38260  0.54360  Biso   1.000  H
  H61      1.0000 0.23650  0.11740  0.04360  Biso   1.000  H
  H62      1.0000 0.76350  0.11740  0.45640  Biso   1.000  H
  H63      1.0000 0.73650  0.61740  0.04360  Biso   1.000  H
  H64      1.0000 0.26350  0.61740  0.45640  Biso   1.000  H
  C97      1.0000 0.65200  0.46290  0.77140  Biso   1.000  C
  C98      1.0000 0.34800  0.46290  0.72860  Biso   1.000  C
  C99      1.0000 0.15200  0.96290  0.77140  Biso   1.000  C
  C100     1.0000 0.84800  0.96290  0.72860  Biso   1.000  C
  C101     1.0000 0.34800  0.53710  0.22860  Biso   1.000  C
  C102     1.0000 0.65200  0.53710  0.27140  Biso   1.000  C
  C103     1.0000 0.84800  0.03710  0.22860  Biso   1.000  C
  C104     1.0000 0.15200  0.03710  0.27140  Biso   1.000  C
  H65      1.0000 0.64000  0.54360  0.79680  Biso   1.000  H
  H66      1.0000 0.36000  0.54360  0.70320  Biso   1.000  H
  H67      1.0000 0.14000  0.04360  0.79680  Biso   1.000  H
  H68      1.0000 0.86000  0.04360  0.70320  Biso   1.000  H
  H69      1.0000 0.36000  0.45640  0.20320  Biso   1.000  H
  H70      1.0000 0.64000  0.45640  0.29680  Biso   1.000  H
  H71      1.0000 0.86000  0.95640  0.20320  Biso   1.000  H
  H72      1.0000 0.14000  0.95640  0.29680  Biso   1.000  H
  C105     1.0000 0.69620  0.20840  0.87260  Biso   1.000  C
  C106     1.0000 0.30380  0.20840  0.62740  Biso   1.000  C
  C107     1.0000 0.19620  0.70840  0.87260  Biso   1.000  C
  C108     1.0000 0.80380  0.70840  0.62740  Biso   1.000  C
  C109     1.0000 0.30380  0.79160  0.12740  Biso   1.000  C
  C110     1.0000 0.69620  0.79160  0.37260  Biso   1.000  C
  C111     1.0000 0.80380  0.29160  0.12740  Biso   1.000  C
  C112     1.0000 0.19620  0.29160  0.37260  Biso   1.000  C
  H73      1.0000 0.68550  0.33540  0.89050  Biso   1.000  H
  H74      1.0000 0.31450  0.33540  0.60950  Biso   1.000  H
  H75      1.0000 0.18550  0.83540  0.89050  Biso   1.000  H
  H76      1.0000 0.81450  0.83540  0.60950  Biso   1.000  H
  H77      1.0000 0.31450  0.66460  0.10950  Biso   1.000  H
  H78      1.0000 0.68550  0.66460  0.39050  Biso   1.000  H
  H79      1.0000 0.81450  0.16460  0.10950  Biso   1.000  H
  H80      1.0000 0.18550  0.16460  0.39050  Biso   1.000  H
  C113     1.0000 0.84020  0.00560  0.00260  Biso   1.000  C
  C114     1.0000 0.15980  0.00560  0.49740  Biso   1.000  C
  C115     1.0000 0.34020  0.50560  0.00260  Biso   1.000  C
  C116     1.0000 0.65980  0.50560  0.49740  Biso   1.000  C
  C117     1.0000 0.15980  0.99440  0.99740  Biso   1.000  C
  C118     1.0000 0.84020  0.99440  0.50260  Biso   1.000  C
  C119     1.0000 0.65980  0.49440  0.99740  Biso   1.000  C
  C120     1.0000 0.34020  0.49440  0.50260  Biso   1.000  C
  H81      1.0000 0.85720  0.88340  0.03040  Biso   1.000  H
  H82      1.0000 0.14280  0.88340  0.46960  Biso   1.000  H
  H83      1.0000 0.35720  0.38340  0.03040  Biso   1.000  H
  H84      1.0000 0.64280  0.38340  0.46960  Biso   1.000  H
  H85      1.0000 0.14280  0.11660  0.96960  Biso   1.000  H
  H86      1.0000 0.85720  0.11660  0.53040  Biso   1.000  H
  H87      1.0000 0.64280  0.61660  0.96960  Biso   1.000  H
  H88      1.0000 0.35720  0.61660  0.53040  Biso   1.000  H
  C121     1.0000 0.84500  0.36200  0.96460  Biso   1.000  C
  C122     1.0000 0.15500  0.36200  0.53540  Biso   1.000  C
  C123     1.0000 0.34500  0.86200  0.96460  Biso   1.000  C
  C124     1.0000 0.65500  0.86200  0.53540  Biso   1.000  C
  C125     1.0000 0.15500  0.63800  0.03540  Biso   1.000  C
  C126     1.0000 0.84500  0.63800  0.46460  Biso   1.000  C
  C127     1.0000 0.65500  0.13800  0.03540  Biso   1.000  C
  C128     1.0000 0.34500  0.13800  0.46460  Biso   1.000  C
  H89      1.0000 0.86550  0.48410  0.96570  Biso   1.000  H
  H90      1.0000 0.13450  0.48410  0.53430  Biso   1.000  H
  H91      1.0000 0.36550  0.98410  0.96570  Biso   1.000  H
  H92      1.0000 0.63450  0.98410  0.53430  Biso   1.000  H
  H93      1.0000 0.13450  0.51590  0.03430  Biso   1.000  H
  H94      1.0000 0.86550  0.51590  0.46570  Biso   1.000  H
  H95      1.0000 0.63450  0.01590  0.03430  Biso   1.000  H
  H96      1.0000 0.36550  0.01590  0.46570  Biso   1.000  H
  C129     1.0000 0.66500  0.02410  0.87650  Biso   1.000  C
  C130     1.0000 0.33500  0.02410  0.62350  Biso   1.000  C
  C131     1.0000 0.16500  0.52410  0.87650  Biso   1.000  C
  C132     1.0000 0.83500  0.52410  0.62350  Biso   1.000  C
  C133     1.0000 0.33500  0.97590  0.12350  Biso   1.000  C
  C134     1.0000 0.66500  0.97590  0.37650  Biso   1.000  C
  C135     1.0000 0.83500  0.47590  0.12350  Biso   1.000  C
  C136     1.0000 0.16500  0.47590  0.37650  Biso   1.000  C
  H97      1.0000 0.67460  0.00520  0.92450  Biso   1.000  H
  H98      1.0000 0.32540  0.00520  0.57550  Biso   1.000  H
  H99      1.0000 0.17460  0.50520  0.92450  Biso   1.000  H
  H100     1.0000 0.82540  0.50520  0.57550  Biso   1.000  H
  H101     1.0000 0.32540  0.99480  0.07550  Biso   1.000  H
  H102     1.0000 0.67460  0.99480  0.42450  Biso   1.000  H
  H103     1.0000 0.82540  0.49480  0.07550  Biso   1.000  H
  H104     1.0000 0.17460  0.49480  0.42450  Biso   1.000  H
  H105     1.0000 0.67620  0.89130  0.86260  Biso   1.000  H
  H106     1.0000 0.32380  0.89130  0.63740  Biso   1.000  H
  H107     1.0000 0.17620  0.39130  0.86260  Biso   1.000  H
  H108     1.0000 0.82380  0.39130  0.63740  Biso   1.000  H
  H109     1.0000 0.32380  0.10870  0.13740  Biso   1.000  H
  H110     1.0000 0.67620  0.10870  0.36260  Biso   1.000  H
  H111     1.0000 0.82380  0.60870  0.13740  Biso   1.000  H
  H112     1.0000 0.17620  0.60870  0.36260  Biso   1.000  H
  C137     1.0000 0.65820  0.41400  0.66930  Biso   1.000  C
  C138     1.0000 0.34180  0.41400  0.83070  Biso   1.000  C
  C139     1.0000 0.15820  0.91400  0.66930  Biso   1.000  C
  C140     1.0000 0.84180  0.91400  0.83070  Biso   1.000  C
  C141     1.0000 0.34180  0.58600  0.33070  Biso   1.000  C
  C142     1.0000 0.65820  0.58600  0.16930  Biso   1.000  C
  C143     1.0000 0.84180  0.08600  0.33070  Biso   1.000  C
  C144     1.0000 0.15820  0.08600  0.16930  Biso   1.000  C
  H113     1.0000 0.65110  0.45990  0.62580  Biso   1.000  H
  H114     1.0000 0.34890  0.45990  0.87420  Biso   1.000  H
  H115     1.0000 0.15110  0.95990  0.62580  Biso   1.000  H
  H116     1.0000 0.84890  0.95990  0.87420  Biso   1.000  H
  H117     1.0000 0.34890  0.54010  0.37420  Biso   1.000  H
  H118     1.0000 0.65110  0.54010  0.12580  Biso   1.000  H
  H119     1.0000 0.84890  0.04010  0.37420  Biso   1.000  H
  H120     1.0000 0.15110  0.04010  0.12580  Biso   1.000  H
  C145     1.0000 0.68570  0.22800  0.69680  Biso   1.000  C
  C146     1.0000 0.31430  0.22800  0.80320  Biso   1.000  C
  C147     1.0000 0.18570  0.72800  0.69680  Biso   1.000  C
  C148     1.0000 0.81430  0.72800  0.80320  Biso   1.000  C
  C149     1.0000 0.31430  0.77200  0.30320  Biso   1.000  C
  C150     1.0000 0.68570  0.77200  0.19680  Biso   1.000  C
  C151     1.0000 0.81430  0.27200  0.30320  Biso   1.000  C
  C152     1.0000 0.18570  0.27200  0.19680  Biso   1.000  C
  H121     1.0000 0.69740  0.14400  0.67170  Biso   1.000  H
  H122     1.0000 0.30260  0.14400  0.82830  Biso   1.000  H
  H123     1.0000 0.19740  0.64400  0.67170  Biso   1.000  H
  H124     1.0000 0.80260  0.64400  0.82830  Biso   1.000  H
  H125     1.0000 0.30260  0.85600  0.32830  Biso   1.000  H
  H126     1.0000 0.69740  0.85600  0.17170  Biso   1.000  H
  H127     1.0000 0.80260  0.35600  0.32830  Biso   1.000  H
  H128     1.0000 0.19740  0.35600  0.17170  Biso   1.000  H
  C153     1.0000 0.64030  0.53790  0.70630  Biso   1.000  C
  C154     1.0000 0.35970  0.53790  0.79370  Biso   1.000  C
  C155     1.0000 0.14030  0.03790  0.70630  Biso   1.000  C
  C156     1.0000 0.85970  0.03790  0.79370  Biso   1.000  C
  C157     1.0000 0.35970  0.46210  0.29370  Biso   1.000  C
  C158     1.0000 0.64030  0.46210  0.20630  Biso   1.000  C
  C159     1.0000 0.85970  0.96210  0.29370  Biso   1.000  C
  C160     1.0000 0.14030  0.96210  0.20630  Biso   1.000  C
  H129     1.0000 0.62090  0.66810  0.68810  Biso   1.000  H
  H130     1.0000 0.37910  0.66810  0.81190  Biso   1.000  H
  H131     1.0000 0.12090  0.16810  0.68810  Biso   1.000  H
  H132     1.0000 0.87910  0.16810  0.81190  Biso   1.000  H
  H133     1.0000 0.37910  0.33190  0.31190  Biso   1.000  H
  H134     1.0000 0.62090  0.33190  0.18810  Biso   1.000  H
  H135     1.0000 0.87910  0.83190  0.31190  Biso   1.000  H
  H136     1.0000 0.12090  0.83190  0.18810  Biso   1.000  H
  H137     1.0000 0.47000  0.42100  0.72400  Biso   1.000  H
  H138     1.0000 0.53000  0.42100  0.77600  Biso   1.000  H
  H139     1.0000 0.97000  0.92100  0.72400  Biso   1.000  H
  H140     1.0000 0.03000  0.92100  0.77600  Biso   1.000  H
  H141     1.0000 0.53000  0.57900  0.27600  Biso   1.000  H
  H142     1.0000 0.47000  0.57900  0.22400  Biso   1.000  H
  H143     1.0000 0.03000  0.07900  0.27600  Biso   1.000  H
  H144     1.0000 0.97000  0.07900  0.22400  Biso   1.000  H
