data_image0
_cell_length_a       9.8875
_cell_length_b       14.7625
_cell_length_c       11.9745
_cell_angle_alpha    90
_cell_angle_beta     121.675
_cell_angle_gamma    90

_symmetry_space_group_name_H-M    "P 1"
_symmetry_int_tables_number       1

loop_
  _symmetry_equiv_pos_as_xyz
  'x, y, z'

loop_
  _atom_site_label
  _atom_site_occupancy
  _atom_site_fract_x
  _atom_site_fract_y
  _atom_site_fract_z
  _atom_site_thermal_displace_type
  _atom_site_B_iso_or_equiv
  _atom_site_type_symbol
  Cu1      1.0000 0.18712  0.59670  0.36449  Biso   1.000  Cu
  Cu2      1.0000 0.81288  0.09670  0.13551  Biso   1.000  Cu
  Cu3      1.0000 0.81288  0.40330  0.63551  Biso   1.000  Cu
  Cu4      1.0000 0.18712  0.90330  0.86449  Biso   1.000  Cu
  O1       1.0000 0.30350  0.67751  0.51075  Biso   1.000  O
  O2       1.0000 0.69650  0.17751  0.98925  Biso   1.000  O
  O3       1.0000 0.69650  0.32249  0.48925  Biso   1.000  O
  O4       1.0000 0.30350  0.82249  0.01075  Biso   1.000  O
  O5       1.0000 0.98080  0.86385  0.83630  Biso   1.000  O
  O6       1.0000 0.01920  0.36385  0.66370  Biso   1.000  O
  O7       1.0000 0.01920  0.13615  0.16370  Biso   1.000  O
  O8       1.0000 0.98080  0.63615  0.33630  Biso   1.000  O
  O9       1.0000 0.01940  0.78095  0.70130  Biso   1.000  O
  O10      1.0000 0.98060  0.28095  0.79870  Biso   1.000  O
  O11      1.0000 0.98060  0.21905  0.29870  Biso   1.000  O
  O12      1.0000 0.01940  0.71905  0.20130  Biso   1.000  O
  N1       1.0000 0.37120  0.57019  0.35190  Biso   1.000  N
  N2       1.0000 0.62880  0.07019  0.14810  Biso   1.000  N
  N3       1.0000 0.62880  0.42981  0.64810  Biso   1.000  N
  N4       1.0000 0.37120  0.92981  0.85190  Biso   1.000  N
  N5       1.0000 0.08960  0.49756  0.23170  Biso   1.000  N
  N6       1.0000 0.91040  0.99756  0.26830  Biso   1.000  N
  N7       1.0000 0.91040  0.50244  0.76830  Biso   1.000  N
  N8       1.0000 0.08960  0.00244  0.73170  Biso   1.000  N
  C1       1.0000 0.55480  0.67330  0.52150  Biso   1.000  C
  C2       1.0000 0.44520  0.17330  0.97850  Biso   1.000  C
  C3       1.0000 0.44520  0.32670  0.47850  Biso   1.000  C
  C4       1.0000 0.55480  0.82670  0.02150  Biso   1.000  C
  C5       1.0000 0.45020  0.70520  0.56160  Biso   1.000  C
  C6       1.0000 0.54980  0.20520  0.93840  Biso   1.000  C
  C7       1.0000 0.54980  0.29480  0.43840  Biso   1.000  C
  C8       1.0000 0.45020  0.79480  0.06160  Biso   1.000  C
  C9       1.0000 0.51190  0.76990  0.66390  Biso   1.000  C
  C10      1.0000 0.48810  0.26990  0.83610  Biso   1.000  C
  C11      1.0000 0.48810  0.23010  0.33610  Biso   1.000  C
  C12      1.0000 0.51190  0.73010  0.16390  Biso   1.000  C
  H1       1.0000 0.44740  0.79160  0.69310  Biso   1.000  H
  H2       1.0000 0.55260  0.29160  0.80690  Biso   1.000  H
  H3       1.0000 0.55260  0.20840  0.30690  Biso   1.000  H
  H4       1.0000 0.44740  0.70840  0.19310  Biso   1.000  H
  C13      1.0000 0.66470  0.80160  0.72120  Biso   1.000  C
  C14      1.0000 0.33530  0.30160  0.77880  Biso   1.000  C
  C15      1.0000 0.33530  0.19840  0.27880  Biso   1.000  C
  C16      1.0000 0.66470  0.69840  0.22120  Biso   1.000  C
  H5       1.0000 0.70120  0.84410  0.78830  Biso   1.000  H
  H6       1.0000 0.29880  0.34410  0.71170  Biso   1.000  H
  H7       1.0000 0.29880  0.15590  0.21170  Biso   1.000  H
  H8       1.0000 0.70120  0.65590  0.28830  Biso   1.000  H
  C17      1.0000 0.76740  0.77140  0.68110  Biso   1.000  C
  C18      1.0000 0.23260  0.27140  0.81890  Biso   1.000  C
  C19      1.0000 0.23260  0.22860  0.31890  Biso   1.000  C
  C20      1.0000 0.76740  0.72860  0.18110  Biso   1.000  C
  C21      1.0000 0.71100  0.70740  0.58270  Biso   1.000  C
  C22      1.0000 0.28900  0.20740  0.91730  Biso   1.000  C
  C23      1.0000 0.28900  0.29260  0.41730  Biso   1.000  C
  C24      1.0000 0.71100  0.79260  0.08270  Biso   1.000  C
  H9       1.0000 0.77810  0.68600  0.55600  Biso   1.000  H
  H10      1.0000 0.22190  0.18600  0.94400  Biso   1.000  H
  H11      1.0000 0.22190  0.31400  0.44400  Biso   1.000  H
  H12      1.0000 0.77810  0.81400  0.05600  Biso   1.000  H
  C25      1.0000 0.50980  0.60630  0.42110  Biso   1.000  C
  C26      1.0000 0.49020  0.10630  0.07890  Biso   1.000  C
  C27      1.0000 0.49020  0.39370  0.57890  Biso   1.000  C
  C28      1.0000 0.50980  0.89370  0.92110  Biso   1.000  C
  H13      1.0000 0.58740  0.58730  0.40470  Biso   1.000  H
  H14      1.0000 0.41260  0.08730  0.09530  Biso   1.000  H
  H15      1.0000 0.41260  0.41270  0.59530  Biso   1.000  H
  H16      1.0000 0.58740  0.91270  0.90470  Biso   1.000  H
  C29      1.0000 0.93270  0.80600  0.74260  Biso   1.000  C
  C30      1.0000 0.06730  0.30600  0.75740  Biso   1.000  C
  C31      1.0000 0.06730  0.19400  0.25740  Biso   1.000  C
  C32      1.0000 0.93270  0.69400  0.24260  Biso   1.000  C
  C33      1.0000 0.34620  0.50490  0.25120  Biso   1.000  C
  C34      1.0000 0.65380  0.00490  0.24880  Biso   1.000  C
  C35      1.0000 0.65380  0.49510  0.74880  Biso   1.000  C
  C36      1.0000 0.34620  0.99510  0.75120  Biso   1.000  C
  H17      1.0000 0.42500  0.45710  0.29030  Biso   1.000  H
  H18      1.0000 0.57500  0.95710  0.20970  Biso   1.000  H
  H19      1.0000 0.57500  0.54290  0.70970  Biso   1.000  H
  H20      1.0000 0.42500  0.04290  0.79030  Biso   1.000  H
  H21      1.0000 0.35850  0.53470  0.18480  Biso   1.000  H
  H22      1.0000 0.64150  0.03470  0.31520  Biso   1.000  H
  H23      1.0000 0.64150  0.46530  0.81520  Biso   1.000  H
  H24      1.0000 0.35850  0.96530  0.68480  Biso   1.000  H
  C37      1.0000 0.18180  0.46490  0.18870  Biso   1.000  C
  C38      1.0000 0.81820  0.96490  0.31130  Biso   1.000  C
  C39      1.0000 0.81820  0.53510  0.81130  Biso   1.000  C
  C40      1.0000 0.18180  0.03510  0.68870  Biso   1.000  C
  C41      1.0000 0.12780  0.39860  0.09310  Biso   1.000  C
  C42      1.0000 0.87220  0.89860  0.40690  Biso   1.000  C
  C43      1.0000 0.87220  0.60140  0.90690  Biso   1.000  C
  C44      1.0000 0.12780  0.10140  0.59310  Biso   1.000  C
  H25      1.0000 0.19200  0.37760  0.06330  Biso   1.000  H
  H26      1.0000 0.80800  0.87760  0.43670  Biso   1.000  H
  H27      1.0000 0.80800  0.62240  0.93670  Biso   1.000  H
  H28      1.0000 0.19200  0.12240  0.56330  Biso   1.000  H
  C45      1.0000 0.97700  0.36400  0.04280  Biso   1.000  C
  C46      1.0000 0.02300  0.86400  0.45720  Biso   1.000  C
  C47      1.0000 0.02300  0.63600  0.95720  Biso   1.000  C
  C48      1.0000 0.97700  0.13600  0.54280  Biso   1.000  C
  H29      1.0000 0.93880  0.31920  0.97880  Biso   1.000  H
  H30      1.0000 0.06120  0.81920  0.52120  Biso   1.000  H
  H31      1.0000 0.06120  0.68080  0.02120  Biso   1.000  H
  H32      1.0000 0.93880  0.18080  0.47880  Biso   1.000  H
  C49      1.0000 0.88240  0.39610  0.08770  Biso   1.000  C
  C50      1.0000 0.11760  0.89610  0.41230  Biso   1.000  C
  C51      1.0000 0.11760  0.60390  0.91230  Biso   1.000  C
  C52      1.0000 0.88240  0.10390  0.58770  Biso   1.000  C
  H33      1.0000 0.78120  0.37270  0.05570  Biso   1.000  H
  H34      1.0000 0.21880  0.87270  0.44430  Biso   1.000  H
  H35      1.0000 0.21880  0.62730  0.94430  Biso   1.000  H
  H36      1.0000 0.78120  0.12730  0.55570  Biso   1.000  H
  C53      1.0000 0.94270  0.46390  0.18150  Biso   1.000  C
  C54      1.0000 0.05730  0.96390  0.31850  Biso   1.000  C
  C55      1.0000 0.05730  0.53610  0.81850  Biso   1.000  C
  C56      1.0000 0.94270  0.03610  0.68150  Biso   1.000  C
  H37      1.0000 0.87920  0.48690  0.21080  Biso   1.000  H
  H38      1.0000 0.12080  0.98690  0.28920  Biso   1.000  H
  H39      1.0000 0.12080  0.51310  0.78920  Biso   1.000  H
  H40      1.0000 0.87920  0.01310  0.71080  Biso   1.000  H
  O13      1.0000 0.17770  0.48600  0.55570  Biso   1.000  O
  O14      1.0000 0.82230  0.98600  0.94430  Biso   1.000  O
  O15      1.0000 0.82230  0.51400  0.44430  Biso   1.000  O
  O16      1.0000 0.17770  0.01400  0.05570  Biso   1.000  O
  H41      1.0000 0.19700  0.52460  0.60940  Biso   1.000  H
  H42      1.0000 0.80300  0.02460  0.89060  Biso   1.000  H
  H43      1.0000 0.80300  0.47540  0.39060  Biso   1.000  H
  H44      1.0000 0.19700  0.97540  0.10940  Biso   1.000  H
  H45      1.0000 0.10650  0.45120  0.53750  Biso   1.000  H
  H46      1.0000 0.89350  0.95120  0.96250  Biso   1.000  H
  H47      1.0000 0.89350  0.54880  0.46250  Biso   1.000  H
  H48      1.0000 0.10650  0.04880  0.03750  Biso   1.000  H
  O17      1.0000 0.22930  0.65160  0.70020  Biso   1.000  O
  O18      1.0000 0.77070  0.15160  0.79980  Biso   1.000  O
  O19      1.0000 0.77070  0.34840  0.29980  Biso   1.000  O
  O20      1.0000 0.22930  0.84840  0.20020  Biso   1.000  O
  H49      1.0000 0.12390  0.65540  0.64720  Biso   1.000  H
  H50      1.0000 0.87610  0.15540  0.85280  Biso   1.000  H
  H51      1.0000 0.87610  0.34460  0.35280  Biso   1.000  H
  H52      1.0000 0.12390  0.84460  0.14720  Biso   1.000  H
  H53      1.0000 0.25920  0.66840  0.64680  Biso   1.000  H
  H54      1.0000 0.74080  0.16840  0.85320  Biso   1.000  H
  H55      1.0000 0.74080  0.33160  0.35320  Biso   1.000  H
  H56      1.0000 0.25920  0.83160  0.14680  Biso   1.000  H
  O21      1.0000 0.51290  0.57390  0.91990  Biso   1.000  O
  O22      1.0000 0.48710  0.07390  0.58010  Biso   1.000  O
  O23      1.0000 0.48710  0.42610  0.08010  Biso   1.000  O
  O24      1.0000 0.51290  0.92610  0.41990  Biso   1.000  O
  H57      1.0000 0.42230  0.58760  0.85910  Biso   1.000  H
  H58      1.0000 0.57770  0.08760  0.64090  Biso   1.000  H
  H59      1.0000 0.57770  0.41240  0.14090  Biso   1.000  H
  H60      1.0000 0.42230  0.91240  0.35910  Biso   1.000  H
  H61      1.0000 0.54880  0.60710  0.98550  Biso   1.000  H
  H62      1.0000 0.45120  0.10710  0.51450  Biso   1.000  H
  H63      1.0000 0.45120  0.39290  0.01450  Biso   1.000  H
  H64      1.0000 0.54880  0.89290  0.48550  Biso   1.000  H
