data_image0
_cell_length_a       11.2493
_cell_length_b       16.5313
_cell_length_c       8.4611
_cell_angle_alpha    90
_cell_angle_beta     90
_cell_angle_gamma    90

_symmetry_space_group_name_H-M    "P 1"
_symmetry_int_tables_number       1

loop_
  _symmetry_equiv_pos_as_xyz
  'x, y, z'

loop_
  _atom_site_label
  _atom_site_occupancy
  _atom_site_fract_x
  _atom_site_fract_y
  _atom_site_fract_z
  _atom_site_thermal_displace_type
  _atom_site_B_iso_or_equiv
  _atom_site_type_symbol
  Cu1      1.0000 0.09547  0.25085  0.89173  Biso   1.000  Cu
  Cu2      1.0000 0.90453  0.74915  0.89173  Biso   1.000  Cu
  Cu3      1.0000 0.40453  0.75085  0.10827  Biso   1.000  Cu
  Cu4      1.0000 0.59547  0.24915  0.10827  Biso   1.000  Cu
  C1       1.0000 0.00500  0.23860  0.58190  Biso   1.000  C
  C2       1.0000 0.99500  0.76140  0.58190  Biso   1.000  C
  C3       1.0000 0.49500  0.73860  0.41810  Biso   1.000  C
  C4       1.0000 0.50500  0.26140  0.41810  Biso   1.000  C
  C5       1.0000 0.97940  0.20930  0.43120  Biso   1.000  C
  C6       1.0000 0.02060  0.79070  0.43120  Biso   1.000  C
  C7       1.0000 0.52060  0.70930  0.56880  Biso   1.000  C
  C8       1.0000 0.47940  0.29070  0.56880  Biso   1.000  C
  H1       1.0000 0.92540  0.23640  0.36710  Biso   1.000  H
  H2       1.0000 0.07460  0.76360  0.36710  Biso   1.000  H
  H3       1.0000 0.57460  0.73640  0.63290  Biso   1.000  H
  H4       1.0000 0.42540  0.26360  0.63290  Biso   1.000  H
  C9       1.0000 0.03390  0.14070  0.37820  Biso   1.000  C
  C10      1.0000 0.96610  0.85930  0.37820  Biso   1.000  C
  C11      1.0000 0.46610  0.64070  0.62180  Biso   1.000  C
  C12      1.0000 0.53390  0.35930  0.62180  Biso   1.000  C
  H5       1.0000 0.01650  0.12020  0.27840  Biso   1.000  H
  H6       1.0000 0.98350  0.87980  0.27840  Biso   1.000  H
  H7       1.0000 0.48350  0.62020  0.72160  Biso   1.000  H
  H8       1.0000 0.51650  0.37980  0.72160  Biso   1.000  H
  C13      1.0000 0.11570  0.10170  0.47510  Biso   1.000  C
  C14      1.0000 0.88430  0.89830  0.47510  Biso   1.000  C
  C15      1.0000 0.38430  0.60170  0.52490  Biso   1.000  C
  C16      1.0000 0.61570  0.39830  0.52490  Biso   1.000  C
  H9       1.0000 0.15380  0.05500  0.44080  Biso   1.000  H
  H10      1.0000 0.84620  0.94500  0.44080  Biso   1.000  H
  H11      1.0000 0.34620  0.55500  0.55920  Biso   1.000  H
  H12      1.0000 0.65380  0.44500  0.55920  Biso   1.000  H
  C17      1.0000 0.13980  0.13370  0.62450  Biso   1.000  C
  C18      1.0000 0.86020  0.86630  0.62450  Biso   1.000  C
  C19      1.0000 0.36020  0.63370  0.37550  Biso   1.000  C
  C20      1.0000 0.63980  0.36630  0.37550  Biso   1.000  C
  H13      1.0000 0.19470  0.10810  0.68970  Biso   1.000  H
  H14      1.0000 0.80530  0.89190  0.68970  Biso   1.000  H
  H15      1.0000 0.30530  0.60810  0.31030  Biso   1.000  H
  H16      1.0000 0.69470  0.39190  0.31030  Biso   1.000  H
  C21      1.0000 0.94890  0.31340  0.65000  Biso   1.000  C
  C22      1.0000 0.05110  0.68660  0.65000  Biso   1.000  C
  C23      1.0000 0.55110  0.81340  0.35000  Biso   1.000  C
  C24      1.0000 0.44890  0.18660  0.35000  Biso   1.000  C
  H17      1.0000 0.99490  0.36070  0.62110  Biso   1.000  H
  H18      1.0000 0.00510  0.63930  0.62110  Biso   1.000  H
  H19      1.0000 0.50510  0.86070  0.37890  Biso   1.000  H
  H20      1.0000 0.49490  0.13930  0.37890  Biso   1.000  H
  H21      1.0000 0.86890  0.31980  0.60900  Biso   1.000  H
  H22      1.0000 0.13110  0.68020  0.60900  Biso   1.000  H
  H23      1.0000 0.63110  0.81980  0.39100  Biso   1.000  H
  H24      1.0000 0.36890  0.18020  0.39100  Biso   1.000  H
  C25      1.0000 0.93890  0.37969  0.91800  Biso   1.000  C
  C26      1.0000 0.06110  0.62031  0.91800  Biso   1.000  C
  C27      1.0000 0.56110  0.87969  0.08200  Biso   1.000  C
  C28      1.0000 0.43890  0.12031  0.08200  Biso   1.000  C
  H25      1.0000 0.99910  0.41660  0.87550  Biso   1.000  H
  H26      1.0000 0.00090  0.58340  0.87550  Biso   1.000  H
  H27      1.0000 0.50090  0.91660  0.12450  Biso   1.000  H
  H28      1.0000 0.49910  0.08340  0.12450  Biso   1.000  H
  C29      1.0000 0.97790  0.35810  0.08490  Biso   1.000  C
  C30      1.0000 0.02210  0.64190  0.08490  Biso   1.000  C
  C31      1.0000 0.52210  0.85810  0.91510  Biso   1.000  C
  C32      1.0000 0.47790  0.14190  0.91510  Biso   1.000  C
  C33      1.0000 0.82120  0.42444  0.91150  Biso   1.000  C
  C34      1.0000 0.17880  0.57556  0.91150  Biso   1.000  C
  C35      1.0000 0.67880  0.92444  0.08850  Biso   1.000  C
  C36      1.0000 0.32120  0.07556  0.08850  Biso   1.000  C
  H29      1.0000 0.83040  0.47580  0.96570  Biso   1.000  H
  H30      1.0000 0.16960  0.52420  0.96570  Biso   1.000  H
  H31      1.0000 0.66960  0.97580  0.03430  Biso   1.000  H
  H32      1.0000 0.33040  0.02420  0.03430  Biso   1.000  H
  H33      1.0000 0.80300  0.43620  0.80180  Biso   1.000  H
  H34      1.0000 0.19700  0.56380  0.80180  Biso   1.000  H
  H35      1.0000 0.69700  0.93620  0.19820  Biso   1.000  H
  H36      1.0000 0.30300  0.06380  0.19820  Biso   1.000  H
  C37      1.0000 0.71680  0.38052  0.98290  Biso   1.000  C
  C38      1.0000 0.28320  0.61948  0.98290  Biso   1.000  C
  C39      1.0000 0.78320  0.88052  0.01710  Biso   1.000  C
  C40      1.0000 0.21680  0.11948  0.01710  Biso   1.000  C
  N1       1.0000 0.08460  0.20086  0.67510  Biso   1.000  N
  N2       1.0000 0.91540  0.79914  0.67510  Biso   1.000  N
  N3       1.0000 0.41540  0.70086  0.32490  Biso   1.000  N
  N4       1.0000 0.58460  0.29914  0.32490  Biso   1.000  N
  N5       1.0000 0.94560  0.30470  0.82300  Biso   1.000  N
  N6       1.0000 0.05440  0.69530  0.82300  Biso   1.000  N
  N7       1.0000 0.55440  0.80470  0.17700  Biso   1.000  N
  N8       1.0000 0.44560  0.19530  0.17700  Biso   1.000  N
  H37      1.0000 0.89040  0.26970  0.85830  Biso   1.000  H
  H38      1.0000 0.10960  0.73030  0.85830  Biso   1.000  H
  H39      1.0000 0.60960  0.76970  0.14170  Biso   1.000  H
  H40      1.0000 0.39040  0.23030  0.14170  Biso   1.000  H
  O1       1.0000 0.05460  0.30060  0.09570  Biso   1.000  O
  O2       1.0000 0.94540  0.69940  0.09570  Biso   1.000  O
  O3       1.0000 0.44540  0.80060  0.90430  Biso   1.000  O
  O4       1.0000 0.55460  0.19940  0.90430  Biso   1.000  O
  O5       1.0000 0.93830  0.39576  0.19930  Biso   1.000  O
  O6       1.0000 0.06170  0.60424  0.19930  Biso   1.000  O
  O7       1.0000 0.56170  0.89576  0.80070  Biso   1.000  O
  O8       1.0000 0.43830  0.10424  0.80070  Biso   1.000  O
  O9       1.0000 0.73056  0.30660  0.01850  Biso   1.000  O
  O10      1.0000 0.26944  0.69340  0.01850  Biso   1.000  O
  O11      1.0000 0.76944  0.80660  0.98150  Biso   1.000  O
  O12      1.0000 0.23056  0.19340  0.98150  Biso   1.000  O
  O13      1.0000 0.62240  0.41815  0.00050  Biso   1.000  O
  O14      1.0000 0.37760  0.58185  0.00050  Biso   1.000  O
  O15      1.0000 0.87760  0.91815  0.99950  Biso   1.000  O
  O16      1.0000 0.12240  0.08185  0.99950  Biso   1.000  O
  O17      1.0000 0.21370  0.35462  0.81740  Biso   1.000  O
  O18      1.0000 0.78630  0.64538  0.81740  Biso   1.000  O
  O19      1.0000 0.28630  0.85462  0.18260  Biso   1.000  O
  O20      1.0000 0.71370  0.14538  0.18260  Biso   1.000  O
  H41      1.0000 0.22000  0.37400  0.72850  Biso   1.000  H
  H42      1.0000 0.78000  0.62600  0.72850  Biso   1.000  H
  H43      1.0000 0.28000  0.87400  0.27150  Biso   1.000  H
  H44      1.0000 0.72000  0.12600  0.27150  Biso   1.000  H
  H45      1.0000 0.25870  0.36800  0.88900  Biso   1.000  H
  H46      1.0000 0.74130  0.63200  0.88900  Biso   1.000  H
  H47      1.0000 0.24130  0.86800  0.11100  Biso   1.000  H
  H48      1.0000 0.75870  0.13200  0.11100  Biso   1.000  H
  O21      1.0000 0.88170  0.08436  0.97040  Biso   1.000  O
  O22      1.0000 0.11830  0.91564  0.97040  Biso   1.000  O
  O23      1.0000 0.61830  0.58436  0.02960  Biso   1.000  O
  O24      1.0000 0.38170  0.41564  0.02960  Biso   1.000  O
  H49      1.0000 0.94660  0.10450  0.99030  Biso   1.000  H
  H50      1.0000 0.05340  0.89550  0.99030  Biso   1.000  H
  H51      1.0000 0.55340  0.60450  0.00970  Biso   1.000  H
  H52      1.0000 0.44660  0.39550  0.00970  Biso   1.000  H
  H53      1.0000 0.86840  0.03640  0.98740  Biso   1.000  H
  H54      1.0000 0.13160  0.96360  0.98740  Biso   1.000  H
  H55      1.0000 0.63160  0.53640  0.01260  Biso   1.000  H
  H56      1.0000 0.36840  0.46360  0.01260  Biso   1.000  H
  O25      1.0000 0.76480  0.17113  0.72970  Biso   1.000  O
  O26      1.0000 0.23520  0.82887  0.72970  Biso   1.000  O
  O27      1.0000 0.73520  0.67113  0.27030  Biso   1.000  O
  O28      1.0000 0.26480  0.32887  0.27030  Biso   1.000  O
  H57      1.0000 0.79930  0.13990  0.78930  Biso   1.000  H
  H58      1.0000 0.20070  0.86010  0.78930  Biso   1.000  H
  H59      1.0000 0.70070  0.63990  0.21070  Biso   1.000  H
  H60      1.0000 0.29930  0.36010  0.21070  Biso   1.000  H
  H61      1.0000 0.69290  0.17880  0.73630  Biso   1.000  H
  H62      1.0000 0.30710  0.82120  0.73630  Biso   1.000  H
  H63      1.0000 0.80710  0.67880  0.26370  Biso   1.000  H
  H64      1.0000 0.19290  0.32120  0.26370  Biso   1.000  H
  O29      1.0000 0.21600  0.42770  0.53210  Biso   1.000  O
  O30      1.0000 0.78400  0.57230  0.53210  Biso   1.000  O
  O31      1.0000 0.28400  0.92770  0.46790  Biso   1.000  O
  O32      1.0000 0.71600  0.07230  0.46790  Biso   1.000  O
  H65      1.0000 0.23020  0.40090  0.45260  Biso   1.000  H
  H66      1.0000 0.76980  0.59910  0.45260  Biso   1.000  H
  H67      1.0000 0.26980  0.90090  0.54740  Biso   1.000  H
  H68      1.0000 0.73020  0.09910  0.54740  Biso   1.000  H
  H69      1.0000 0.15580  0.45540  0.53890  Biso   1.000  H
  H70      1.0000 0.84420  0.54460  0.53890  Biso   1.000  H
  H71      1.0000 0.34420  0.95540  0.46110  Biso   1.000  H
  H72      1.0000 0.65580  0.04460  0.46110  Biso   1.000  H
  O33      1.0000 0.00000  0.50000  0.43060  Biso   1.000  O
  O34      1.0000 0.50000  0.00000  0.56940  Biso   1.000  O
  H73      1.0000 0.02040  0.53400  0.36540  Biso   1.000  H
  H74      1.0000 0.97960  0.46600  0.36540  Biso   1.000  H
  H75      1.0000 0.47960  0.03400  0.63460  Biso   1.000  H
  H76      1.0000 0.52040  0.96600  0.63460  Biso   1.000  H
