data_image0
_cell_length_a       7.2507
_cell_length_b       16.263
_cell_length_c       7.3756
_cell_angle_alpha    90
_cell_angle_beta     93.652
_cell_angle_gamma    90

_symmetry_space_group_name_H-M    "P 1"
_symmetry_int_tables_number       1

loop_
  _symmetry_equiv_pos_as_xyz
  'x, y, z'

loop_
  _atom_site_label
  _atom_site_occupancy
  _atom_site_fract_x
  _atom_site_fract_y
  _atom_site_fract_z
  _atom_site_thermal_displace_type
  _atom_site_B_iso_or_equiv
  _atom_site_type_symbol
  Cu1      1.0000 0.43931  0.11345  0.45217  Biso   1.000  Cu
  Cu2      1.0000 0.56069  0.61345  0.54783  Biso   1.000  Cu
  N1       1.0000 0.59080  0.72470  0.66820  Biso   1.000  N
  N2       1.0000 0.40920  0.22470  0.33180  Biso   1.000  N
  N3       1.0000 0.41990  0.00510  0.58370  Biso   1.000  N
  N4       1.0000 0.58010  0.50510  0.41630  Biso   1.000  N
  H1       1.0000 0.44640  0.00970  0.70410  Biso   1.000  H
  H2       1.0000 0.55360  0.50970  0.29590  Biso   1.000  H
  O1       1.0000 0.20080  0.08180  0.33820  Biso   1.000  O
  O2       1.0000 0.79920  0.58180  0.66180  Biso   1.000  O
  O3       1.0000 0.97170  0.99250  0.34180  Biso   1.000  O
  O4       1.0000 0.02830  0.49250  0.65820  Biso   1.000  O
  O5       1.0000 0.63510  0.07160  0.24120  Biso   1.000  O
  O6       1.0000 0.36490  0.57160  0.75880  Biso   1.000  O
  H3       1.0000 0.73330  0.04890  0.27140  Biso   1.000  H
  H4       1.0000 0.26670  0.54890  0.72860  Biso   1.000  H
  H5       1.0000 0.60180  0.07840  0.13390  Biso   1.000  H
  H6       1.0000 0.39820  0.57840  0.86610  Biso   1.000  H
  O7       1.0000 0.63670  0.15870  0.61770  Biso   1.000  O
  O8       1.0000 0.36330  0.65870  0.38230  Biso   1.000  O
  O9       1.0000 0.58300  0.09640  0.87750  Biso   1.000  O
  O10      1.0000 0.41700  0.59640  0.12250  Biso   1.000  O
  C1       1.0000 0.55860  0.79520  0.57790  Biso   1.000  C
  C2       1.0000 0.44140  0.29520  0.42210  Biso   1.000  C
  H7       1.0000 0.51010  0.79210  0.45830  Biso   1.000  H
  H8       1.0000 0.48990  0.29210  0.54170  Biso   1.000  H
  C3       1.0000 0.59290  0.87240  0.65120  Biso   1.000  C
  C4       1.0000 0.40710  0.37240  0.34880  Biso   1.000  C
  C5       1.0000 0.66560  0.87600  0.83040  Biso   1.000  C
  C6       1.0000 0.33440  0.37600  0.16960  Biso   1.000  C
  H9       1.0000 0.69350  0.92650  0.88440  Biso   1.000  H
  H10      1.0000 0.30650  0.42650  0.11560  Biso   1.000  H
  C7       1.0000 0.69590  0.80410  0.92760  Biso   1.000  C
  C8       1.0000 0.30410  0.30410  0.07240  Biso   1.000  C
  H11      1.0000 0.73970  0.80550  0.04880  Biso   1.000  H
  H12      1.0000 0.26030  0.30550  0.95120  Biso   1.000  H
  C9       1.0000 0.65950  0.72990  0.84010  Biso   1.000  C
  C10      1.0000 0.34050  0.22990  0.15990  Biso   1.000  C
  H13      1.0000 0.68410  0.68140  0.90420  Biso   1.000  H
  H14      1.0000 0.31590  0.18140  0.09580  Biso   1.000  H
  C11      1.0000 0.56870  0.94830  0.53350  Biso   1.000  C
  C12      1.0000 0.43130  0.44830  0.46650  Biso   1.000  C
  H15      1.0000 0.68460  0.97820  0.53910  Biso   1.000  H
  H16      1.0000 0.31540  0.47820  0.46090  Biso   1.000  H
  H17      1.0000 0.54280  0.93100  0.40860  Biso   1.000  H
  H18      1.0000 0.45720  0.43100  0.59140  Biso   1.000  H
  C13      1.0000 0.23030  0.97140  0.55430  Biso   1.000  C
  C14      1.0000 0.76970  0.47140  0.44570  Biso   1.000  C
  H19      1.0000 0.23980  0.91350  0.51980  Biso   1.000  H
  H20      1.0000 0.76020  0.41350  0.48020  Biso   1.000  H
  C15      1.0000 0.12720  0.01760  0.39710  Biso   1.000  C
  C16      1.0000 0.87280  0.51760  0.60290  Biso   1.000  C
  C17      1.0000 0.11770  0.97650  0.72530  Biso   1.000  C
  C18      1.0000 0.88230  0.47650  0.27470  Biso   1.000  C
  H21      1.0000 0.99390  0.95570  0.68930  Biso   1.000  H
  H22      1.0000 0.00610  0.45570  0.31070  Biso   1.000  H
  C19      1.0000 0.19460  0.92120  0.87960  Biso   1.000  C
  C20      1.0000 0.80540  0.42120  0.12040  Biso   1.000  C
  H23      1.0000 0.11310  0.92240  0.97720  Biso   1.000  H
  H24      1.0000 0.88690  0.42240  0.02280  Biso   1.000  H
  H25      1.0000 0.31460  0.94050  0.92250  Biso   1.000  H
  H26      1.0000 0.68540  0.44050  0.07750  Biso   1.000  H
  H27      1.0000 0.20420  0.86580  0.83590  Biso   1.000  H
  H28      1.0000 0.79580  0.36580  0.16410  Biso   1.000  H
  C21      1.0000 0.09280  0.06360  0.78930  Biso   1.000  C
  C22      1.0000 0.90720  0.56360  0.21070  Biso   1.000  C
  H29      1.0000 0.04500  0.09680  0.68940  Biso   1.000  H
  H30      1.0000 0.95500  0.59680  0.31060  Biso   1.000  H
  H31      1.0000 0.20980  0.08520  0.83520  Biso   1.000  H
  H32      1.0000 0.79020  0.58520  0.16480  Biso   1.000  H
  H33      1.0000 0.00780  0.06430  0.88380  Biso   1.000  H
  H34      1.0000 0.99220  0.56430  0.11620  Biso   1.000  H
  C23      1.0000 0.65390  0.15240  0.79030  Biso   1.000  C
  C24      1.0000 0.34610  0.65240  0.20970  Biso   1.000  C
  C25      1.0000 0.76430  0.21870  0.88840  Biso   1.000  C
  C26      1.0000 0.23570  0.71870  0.11160  Biso   1.000  C
  H35      1.0000 0.80090  0.20060  0.00920  Biso   1.000  H
  H36      1.0000 0.19910  0.70060  0.99080  Biso   1.000  H
  H37      1.0000 0.69020  0.26750  0.89450  Biso   1.000  H
  H38      1.0000 0.30980  0.76750  0.10550  Biso   1.000  H
  H39      1.0000 0.87230  0.23060  0.82430  Biso   1.000  H
  H40      1.0000 0.12770  0.73060  0.17570  Biso   1.000  H
  O11      1.0000 0.11630  0.32260  0.66720  Biso   1.000  O
  O12      1.0000 0.88370  0.82260  0.33280  Biso   1.000  O
  H41      1.0000 0.06920  0.29430  0.58480  Biso   1.000  H
  H42      1.0000 0.93080  0.79430  0.41520  Biso   1.000  H
  H43      1.0000 0.10810  0.37290  0.66500  Biso   1.000  H
  H44      1.0000 0.89190  0.87290  0.33500  Biso   1.000  H
  O13      1.0000 0.93050  0.22450  0.40030  Biso   1.000  O
  O14      1.0000 0.06950  0.72450  0.59970  Biso   1.000  O
  H45      1.0000 0.98410  0.20820  0.31250  Biso   1.000  H
  H46      1.0000 0.01590  0.70820  0.68750  Biso   1.000  H
  H47      1.0000 0.84270  0.25640  0.39510  Biso   1.000  H
  H48      1.0000 0.15730  0.75640  0.60490  Biso   1.000  H
