data_image0
_cell_length_a       17.3348
_cell_length_b       18.0854
_cell_length_c       20.7692
_cell_angle_alpha    106.913
_cell_angle_beta     100.585
_cell_angle_gamma    105.849

_symmetry_space_group_name_H-M    "P 1"
_symmetry_int_tables_number       1

loop_
  _symmetry_equiv_pos_as_xyz
  'x, y, z'

loop_
  _atom_site_label
  _atom_site_occupancy
  _atom_site_fract_x
  _atom_site_fract_y
  _atom_site_fract_z
  _atom_site_thermal_displace_type
  _atom_site_B_iso_or_equiv
  _atom_site_type_symbol
  Er1      1.0000 0.34539  0.83042  0.11076  Biso   1.000  Er
  Er2      1.0000 0.65461  0.16958  0.88924  Biso   1.000  Er
  Er3      1.0000 0.76446  0.02966  0.15634  Biso   1.000  Er
  Er4      1.0000 0.23554  0.97034  0.84366  Biso   1.000  Er
  Er5      1.0000 0.50998  0.75342  0.82890  Biso   1.000  Er
  Er6      1.0000 0.49002  0.24658  0.17110  Biso   1.000  Er
  Cu1      1.0000 0.29719  0.90432  0.97992  Biso   1.000  Cu
  Cu2      1.0000 0.70281  0.09568  0.02008  Biso   1.000  Cu
  Cu3      1.0000 0.63351  0.89619  0.98984  Biso   1.000  Cu
  Cu4      1.0000 0.36649  0.10381  0.01016  Biso   1.000  Cu
  Cu5      1.0000 0.42495  0.03608  0.13906  Biso   1.000  Cu
  Cu6      1.0000 0.57505  0.96392  0.86094  Biso   1.000  Cu
  Cu7      1.0000 0.55485  0.92912  0.12791  Biso   1.000  Cu
  Cu8      1.0000 0.44515  0.07088  0.87209  Biso   1.000  Cu
  Cu9      1.0000 0.62313  0.13106  0.15946  Biso   1.000  Cu
  Cu10     1.0000 0.37687  0.86894  0.84054  Biso   1.000  Cu
  Cu11     1.0000 0.43122  0.79857  0.97043  Biso   1.000  Cu
  Cu12     1.0000 0.56878  0.20143  0.02957  Biso   1.000  Cu
  Cu13     1.0000 0.14123  0.72222  0.10827  Biso   1.000  Cu
  Cu14     1.0000 0.85877  0.27778  0.89173  Biso   1.000  Cu
  Cu15     1.0000 0.25817  0.84095  0.25250  Biso   1.000  Cu
  Cu16     1.0000 0.74183  0.15905  0.74750  Biso   1.000  Cu
  Cu17     1.0000 0.91520  0.16045  0.31884  Biso   1.000  Cu
  Cu18     1.0000 0.08480  0.83955  0.68116  Biso   1.000  Cu
  Cu19     1.0000 0.85056  0.96653  0.28792  Biso   1.000  Cu
  Cu20     1.0000 0.14944  0.03347  0.71208  Biso   1.000  Cu
  Cu21     1.0000 0.43530  0.53445  0.77428  Biso   1.000  Cu
  Cu22     1.0000 0.56470  0.46555  0.22572  Biso   1.000  Cu
  Cu23     1.0000 0.63062  0.62250  0.80209  Biso   1.000  Cu
  Cu24     1.0000 0.36938  0.37750  0.19791  Biso   1.000  Cu
  Cu25     1.0000 0.50000  0.00000  0.50000  Biso   1.000  Cu
  Cu26     1.0000 0.18897  0.35257  0.51463  Biso   1.000  Cu
  Cu27     1.0000 0.81103  0.64743  0.48537  Biso   1.000  Cu
  Na1      1.0000 0.21160  0.03320  0.11380  Biso   1.000  Na
  Na2      1.0000 0.78840  0.96680  0.88620  Biso   1.000  Na
  Cl1      1.0000 0.50000  0.00000  0.00000  Biso   1.000  Cl
  Cl2      1.0000 0.16870  0.63670  0.82600  Biso   1.000  Cl
  Cl3      1.0000 0.83130  0.36330  0.17400  Biso   1.000  Cl
  Cl4      1.0000 0.83040  0.60630  0.06960  Biso   1.000  Cl
  Cl5      1.0000 0.16960  0.39370  0.93040  Biso   1.000  Cl
  Cl6      1.0000 0.58590  0.07820  0.35950  Biso   1.000  Cl
  Cl7      1.0000 0.41410  0.92180  0.64050  Biso   1.000  Cl
  Cl8      1.0000 0.09130  0.45940  0.14480  Biso   1.000  Cl
  Cl9      1.0000 0.90870  0.54060  0.85520  Biso   1.000  Cl
  Cl10     1.0000 0.93420  0.11330  0.79730  Biso   1.000  Cl
  Cl11     1.0000 0.06580  0.88670  0.20270  Biso   1.000  Cl
  Cl12     1.0000 0.78470  0.97760  0.50890  Biso   1.000  Cl
  Cl13     1.0000 0.21530  0.02240  0.49110  Biso   1.000  Cl
  Cl14     1.0000 0.58770  0.67300  0.07070  Biso   1.000  Cl
  Cl15     1.0000 0.41230  0.32700  0.92930  Biso   1.000  Cl
  Cl16     1.0000 0.15150  0.30300  0.66650  Biso   1.000  Cl
  Cl17     1.0000 0.84850  0.69700  0.33350  Biso   1.000  Cl
  Cl18     1.0000 0.22920  0.23600  0.27040  Biso   1.000  Cl
  Cl19     1.0000 0.77080  0.76400  0.72960  Biso   1.000  Cl
  Cl20     1.0000 0.93350  0.44460  0.57880  Biso   1.000  Cl
  Cl21     1.0000 0.06650  0.55540  0.42120  Biso   1.000  Cl
  Cl22     1.0000 0.00000  0.00000  0.00000  Biso   1.000  Cl
  Cl23     1.0000 0.45740  0.29190  0.51290  Biso   1.000  Cl
  Cl24     1.0000 0.54260  0.70810  0.48710  Biso   1.000  Cl
  N1       1.0000 0.03490  0.70450  0.04250  Biso   1.000  N
  N2       1.0000 0.96510  0.29550  0.95750  Biso   1.000  N
  H1       1.0000 0.01350  0.65200  0.01220  Biso   1.000  H
  H2       1.0000 0.98650  0.34800  0.98780  Biso   1.000  H
  H3       1.0000 0.99800  0.71360  0.06640  Biso   1.000  H
  H4       1.0000 0.00200  0.28640  0.93360  Biso   1.000  H
  N3       1.0000 0.74540  0.64540  0.85750  Biso   1.000  N
  N4       1.0000 0.25460  0.35460  0.14250  Biso   1.000  N
  H5       1.0000 0.78090  0.65380  0.83150  Biso   1.000  H
  H6       1.0000 0.21910  0.34620  0.16850  Biso   1.000  H
  H7       1.0000 0.74780  0.60180  0.86920  Biso   1.000  H
  H8       1.0000 0.25220  0.39820  0.13080  Biso   1.000  H
  N5       1.0000 0.26430  0.94000  0.32790  Biso   1.000  N
  N6       1.0000 0.73570  0.06000  0.67210  Biso   1.000  N
  H9       1.0000 0.21230  0.93740  0.33010  Biso   1.000  H
  H10      1.0000 0.78770  0.06260  0.66990  Biso   1.000  H
  H11      1.0000 0.29320  0.94180  0.36940  Biso   1.000  H
  H12      1.0000 0.70680  0.05820  0.63060  Biso   1.000  H
  N7       1.0000 0.79380  0.88010  0.31970  Biso   1.000  N
  N8       1.0000 0.20620  0.11990  0.68030  Biso   1.000  N
  H13      1.0000 0.80780  0.89930  0.36700  Biso   1.000  H
  H14      1.0000 0.19220  0.10070  0.63300  Biso   1.000  H
  H15      1.0000 0.81060  0.83670  0.30560  Biso   1.000  H
  H16      1.0000 0.18940  0.16330  0.69440  Biso   1.000  H
  N9       1.0000 0.91820  0.26710  0.38000  Biso   1.000  N
  N10      1.0000 0.08180  0.73290  0.62000  Biso   1.000  N
  H17      1.0000 0.96300  0.30710  0.38070  Biso   1.000  H
  H18      1.0000 0.03700  0.69290  0.61930  Biso   1.000  H
  H19      1.0000 0.92410  0.26740  0.42410  Biso   1.000  H
  H20      1.0000 0.07590  0.73260  0.57590  Biso   1.000  H
  N11      1.0000 0.35670  0.46810  0.81060  Biso   1.000  N
  N12      1.0000 0.64330  0.53190  0.18940  Biso   1.000  N
  H21      1.0000 0.37780  0.43200  0.82240  Biso   1.000  H
  H22      1.0000 0.62220  0.56800  0.17760  Biso   1.000  H
  H23      1.0000 0.30800  0.43910  0.77660  Biso   1.000  H
  H24      1.0000 0.69200  0.56090  0.22340  Biso   1.000  H
  N13      1.0000 0.97440  0.60040  0.22110  Biso   1.000  N
  N14      1.0000 0.02560  0.39960  0.77890  Biso   1.000  N
  N15      1.0000 0.55190  0.91720  0.46870  Biso   1.000  N
  N16      1.0000 0.44810  0.08280  0.53130  Biso   1.000  N
  H25      1.0000 0.60630  0.94240  0.47350  Biso   1.000  H
  H26      1.0000 0.39370  0.05760  0.52650  Biso   1.000  H
  H27      1.0000 0.54880  0.88570  0.49520  Biso   1.000  H
  H28      1.0000 0.45120  0.11430  0.50480  Biso   1.000  H
  N17      1.0000 0.22720  0.25780  0.48470  Biso   1.000  N
  N18      1.0000 0.77280  0.74220  0.51530  Biso   1.000  N
  H29      1.0000 0.25080  0.24840  0.52250  Biso   1.000  H
  H30      1.0000 0.74920  0.75160  0.47750  Biso   1.000  H
  H31      1.0000 0.26570  0.26880  0.46180  Biso   1.000  H
  H32      1.0000 0.73430  0.73120  0.53820  Biso   1.000  H
  N19      1.0000 0.14340  0.44180  0.54560  Biso   1.000  N
  N20      1.0000 0.85660  0.55820  0.45440  Biso   1.000  N
  H33      1.0000 0.09460  0.42170  0.55440  Biso   1.000  H
  H34      1.0000 0.90540  0.57830  0.44560  Biso   1.000  H
  H35      1.0000 0.13380  0.46210  0.51140  Biso   1.000  H
  H36      1.0000 0.86620  0.53790  0.48860  Biso   1.000  H
  C1       1.0000 0.14150  0.79770  0.01020  Biso   1.000  C
  C2       1.0000 0.85850  0.20230  0.98980  Biso   1.000  C
  C3       1.0000 0.04910  0.76120  0.00360  Biso   1.000  C
  C4       1.0000 0.95090  0.23880  0.99640  Biso   1.000  C
  H37      1.0000 0.02820  0.80520  0.02170  Biso   1.000  H
  H38      1.0000 0.97180  0.19480  0.97830  Biso   1.000  H
  H39      1.0000 0.01820  0.73150  0.95440  Biso   1.000  H
  H40      1.0000 0.98180  0.26850  0.04560  Biso   1.000  H
  C5       1.0000 0.70820  0.76180  0.92320  Biso   1.000  C
  C6       1.0000 0.29180  0.23820  0.07680  Biso   1.000  C
  C7       1.0000 0.77050  0.71860  0.92130  Biso   1.000  C
  C8       1.0000 0.22950  0.28140  0.07870  Biso   1.000  C
  H41      1.0000 0.77780  0.70230  0.96190  Biso   1.000  H
  H42      1.0000 0.22220  0.29770  0.03810  Biso   1.000  H
  H43      1.0000 0.82400  0.75670  0.92450  Biso   1.000  H
  H44      1.0000 0.17600  0.24330  0.07550  Biso   1.000  H
  C9       1.0000 0.33250  0.99530  0.24990  Biso   1.000  C
  C10      1.0000 0.66750  0.00470  0.75010  Biso   1.000  C
  C11      1.0000 0.30510  0.01470  0.31530  Biso   1.000  C
  C12      1.0000 0.69490  0.98530  0.68470  Biso   1.000  C
  H45      1.0000 0.35340  0.05030  0.35520  Biso   1.000  H
  H46      1.0000 0.64660  0.94970  0.64480  Biso   1.000  H
  H47      1.0000 0.26650  0.04430  0.31120  Biso   1.000  H
  H48      1.0000 0.73350  0.95570  0.68880  Biso   1.000  H
  C13      1.0000 0.67770  0.89600  0.24300  Biso   1.000  C
  C14      1.0000 0.32230  0.10400  0.75700  Biso   1.000  C
  C15      1.0000 0.70340  0.85380  0.29150  Biso   1.000  C
  C16      1.0000 0.29660  0.14620  0.70850  Biso   1.000  C
  H49      1.0000 0.68130  0.79470  0.26620  Biso   1.000  H
  H50      1.0000 0.31870  0.20530  0.73380  Biso   1.000  H
  H51      1.0000 0.67890  0.86540  0.33010  Biso   1.000  H
  H52      1.0000 0.32110  0.13460  0.66990  Biso   1.000  H
  C17      1.0000 0.78240  0.21540  0.29150  Biso   1.000  C
  C18      1.0000 0.21760  0.78460  0.70850  Biso   1.000  C
  C19      1.0000 0.84280  0.28430  0.35700  Biso   1.000  C
  C20      1.0000 0.15720  0.71570  0.64300  Biso   1.000  C
  H53      1.0000 0.81580  0.29190  0.39410  Biso   1.000  H
  H54      1.0000 0.18420  0.70810  0.60590  Biso   1.000  H
  H55      1.0000 0.85790  0.33520  0.34770  Biso   1.000  H
  H56      1.0000 0.14210  0.66480  0.65230  Biso   1.000  H
  C21      1.0000 0.38930  0.60930  0.89050  Biso   1.000  C
  C22      1.0000 0.61070  0.39070  0.10950  Biso   1.000  C
  C23      1.0000 0.34130  0.51880  0.87110  Biso   1.000  C
  C24      1.0000 0.65870  0.48120  0.12890  Biso   1.000  C
  H57      1.0000 0.28190  0.50990  0.86130  Biso   1.000  H
  H58      1.0000 0.71810  0.49010  0.13870  Biso   1.000  H
  H59      1.0000 0.35730  0.50240  0.91060  Biso   1.000  H
  H60      1.0000 0.64270  0.49760  0.08940  Biso   1.000  H
  C25      1.0000 0.11150  0.70750  0.23780  Biso   1.000  C
  C26      1.0000 0.88850  0.29250  0.76220  Biso   1.000  C
  C27      1.0000 0.04860  0.67110  0.27370  Biso   1.000  C
  C28      1.0000 0.95140  0.32890  0.72630  Biso   1.000  C
  H61      1.0000 0.07610  0.65220  0.30740  Biso   1.000  H
  H62      1.0000 0.92390  0.34780  0.69260  Biso   1.000  H
  H63      1.0000 0.02970  0.71360  0.29900  Biso   1.000  H
  H64      1.0000 0.97030  0.28640  0.70100  Biso   1.000  H
  C29      1.0000 0.42330  0.87220  0.37080  Biso   1.000  C
  C30      1.0000 0.57670  0.12780  0.62920  Biso   1.000  C
  C31      1.0000 0.50840  0.86580  0.39500  Biso   1.000  C
  C32      1.0000 0.49160  0.13420  0.60500  Biso   1.000  C
  H65      1.0000 0.50150  0.80880  0.38860  Biso   1.000  H
  H66      1.0000 0.49850  0.19120  0.61140  Biso   1.000  H
  H67      1.0000 0.54260  0.88210  0.36600  Biso   1.000  H
  H68      1.0000 0.45740  0.11790  0.63400  Biso   1.000  H
  C33      1.0000 0.08370  0.21070  0.41290  Biso   1.000  C
  C34      1.0000 0.91630  0.78930  0.58710  Biso   1.000  C
  C35      1.0000 0.15510  0.18490  0.43830  Biso   1.000  C
  C36      1.0000 0.84490  0.81510  0.56170  Biso   1.000  C
  H69      1.0000 0.17020  0.15500  0.39850  Biso   1.000  H
  H70      1.0000 0.82980  0.84500  0.60150  Biso   1.000  H
  H71      1.0000 0.13840  0.14860  0.46360  Biso   1.000  H
  H72      1.0000 0.86160  0.85140  0.53640  Biso   1.000  H
  C37      1.0000 0.27900  0.48560  0.63330  Biso   1.000  C
  C38      1.0000 0.72100  0.51440  0.36670  Biso   1.000  C
  C39      1.0000 0.20360  0.50760  0.60940  Biso   1.000  C
  C40      1.0000 0.79640  0.49240  0.39060  Biso   1.000  C
  H73      1.0000 0.22150  0.55830  0.60010  Biso   1.000  H
  H74      1.0000 0.77850  0.44170  0.39990  Biso   1.000  H
  H75      1.0000 0.17660  0.51700  0.64650  Biso   1.000  H
  H76      1.0000 0.82340  0.48300  0.35350  Biso   1.000  H
  O1       1.0000 0.19290  0.78440  0.05500  Biso   1.000  O
  O2       1.0000 0.80710  0.21560  0.94500  Biso   1.000  O
  O3       1.0000 0.16160  0.84030  0.97490  Biso   1.000  O
  O4       1.0000 0.83840  0.15970  0.02510  Biso   1.000  O
  O5       1.0000 0.63880  0.72580  0.87240  Biso   1.000  O
  O6       1.0000 0.36120  0.27420  0.12760  Biso   1.000  O
  O7       1.0000 0.72390  0.82400  0.97300  Biso   1.000  O
  O8       1.0000 0.27610  0.17600  0.02700  Biso   1.000  O
  O9       1.0000 0.32150  0.91910  0.21540  Biso   1.000  O
  O10      1.0000 0.67850  0.08090  0.78460  Biso   1.000  O
  O11      1.0000 0.36730  0.05340  0.23280  Biso   1.000  O
  O12      1.0000 0.63270  0.94660  0.76720  Biso   1.000  O
  O13      1.0000 0.73810  0.94790  0.23340  Biso   1.000  O
  O14      1.0000 0.26190  0.05210  0.76660  Biso   1.000  O
  O15      1.0000 0.60310  0.87960  0.21580  Biso   1.000  O
  O16      1.0000 0.39690  0.12040  0.78420  Biso   1.000  O
  O17      1.0000 0.80670  0.15480  0.26430  Biso   1.000  O
  O18      1.0000 0.19330  0.84520  0.73570  Biso   1.000  O
  O19      1.0000 0.71460  0.22060  0.26670  Biso   1.000  O
  O20      1.0000 0.28540  0.77940  0.73330  Biso   1.000  O
  O21      1.0000 0.43370  0.62910  0.85040  Biso   1.000  O
  O22      1.0000 0.56630  0.37090  0.14960  Biso   1.000  O
  O23      1.0000 0.38500  0.65990  0.94310  Biso   1.000  O
  O24      1.0000 0.61500  0.34010  0.05690  Biso   1.000  O
  O25      1.0000 0.17690  0.76350  0.27730  Biso   1.000  O
  O26      1.0000 0.82310  0.23650  0.72270  Biso   1.000  O
  O27      1.0000 0.09040  0.67700  0.17130  Biso   1.000  O
  O28      1.0000 0.90960  0.32300  0.82870  Biso   1.000  O
  O29      1.0000 0.40730  0.93040  0.41770  Biso   1.000  O
  O30      1.0000 0.59270  0.06960  0.58230  Biso   1.000  O
  O31      1.0000 0.37630  0.82780  0.31480  Biso   1.000  O
  O32      1.0000 0.62370  0.17220  0.68520  Biso   1.000  O
  O33      1.0000 0.08770  0.28190  0.43850  Biso   1.000  O
  O34      1.0000 0.91230  0.71810  0.56150  Biso   1.000  O
  O35      1.0000 0.01950  0.15220  0.36730  Biso   1.000  O
  O36      1.0000 0.98050  0.84780  0.63270  Biso   1.000  O
  O37      1.0000 0.28510  0.42000  0.59730  Biso   1.000  O
  O38      1.0000 0.71490  0.58000  0.40270  Biso   1.000  O
  O39      1.0000 0.33310  0.53630  0.68880  Biso   1.000  O
  O40      1.0000 0.66690  0.46370  0.31120  Biso   1.000  O
  O41      1.0000 0.32680  0.80920  0.98920  Biso   1.000  O
  O42      1.0000 0.67320  0.19080  0.01080  Biso   1.000  O
  O43      1.0000 0.32270  0.94220  0.08320  Biso   1.000  O
  O44      1.0000 0.67730  0.05780  0.91680  Biso   1.000  O
  O45      1.0000 0.26880  0.99980  0.96990  Biso   1.000  O
  O46      1.0000 0.73120  0.00020  0.03010  Biso   1.000  O
  O47      1.0000 0.28020  0.86960  0.87810  Biso   1.000  O
  O48      1.0000 0.71980  0.13040  0.12190  Biso   1.000  O
  O49      1.0000 0.38240  0.11510  0.10920  Biso   1.000  O
  O50      1.0000 0.61760  0.88490  0.89080  Biso   1.000  O
  O51      1.0000 0.46690  0.82160  0.07200  Biso   1.000  O
  O52      1.0000 0.53310  0.17840  0.92800  Biso   1.000  O
  O53      1.0000 0.39550  0.77950  0.86980  Biso   1.000  O
  O54      1.0000 0.60450  0.22050  0.13020  Biso   1.000  O
  O55      1.0000 0.52510  0.13400  0.19530  Biso   1.000  O
  O56      1.0000 0.47490  0.86600  0.80470  Biso   1.000  O
  O57      1.0000 0.63960  0.03910  0.18470  Biso   1.000  O
  O58      1.0000 0.36040  0.96090  0.81530  Biso   1.000  O
  O59      1.0000 0.64530  0.90740  0.08790  Biso   1.000  O
  O60      1.0000 0.35470  0.09260  0.91210  Biso   1.000  O
  O61      1.0000 0.46540  0.95400  0.16520  Biso   1.000  O
  O62      1.0000 0.53460  0.04600  0.83480  Biso   1.000  O
  O63      1.0000 0.53750  0.79260  0.95240  Biso   1.000  O
  O64      1.0000 0.46250  0.20740  0.04760  Biso   1.000  O
  O65      1.0000 0.25600  0.75800  0.16640  Biso   1.000  O
  O66      1.0000 0.74400  0.24200  0.83360  Biso   1.000  O
  O67      1.0000 0.88630  0.04940  0.24720  Biso   1.000  O
  O68      1.0000 0.11370  0.95060  0.75280  Biso   1.000  O
  O69      1.0000 0.51950  0.62090  0.75910  Biso   1.000  O
  O70      1.0000 0.48050  0.37910  0.24090  Biso   1.000  O
  O71      1.0000 0.43380  0.80530  0.19950  Biso   1.000  O
  O72      1.0000 0.56620  0.19470  0.80050  Biso   1.000  O
  O73      1.0000 0.31490  0.68550  0.05270  Biso   1.000  O
  O74      1.0000 0.68510  0.31450  0.94730  Biso   1.000  O
  O75      1.0000 0.88190  0.11590  0.13800  Biso   1.000  O
  O76      1.0000 0.11810  0.88410  0.86200  Biso   1.000  O
  O77      1.0000 0.82140  0.92650  0.11120  Biso   1.000  O
  O78      1.0000 0.17860  0.07350  0.88880  Biso   1.000  O
  O79      1.0000 0.39340  0.69560  0.72660  Biso   1.000  O
  O80      1.0000 0.60660  0.30440  0.27340  Biso   1.000  O
  O81      1.0000 0.57490  0.77930  0.74280  Biso   1.000  O
  O82      1.0000 0.42510  0.22070  0.25720  Biso   1.000  O
  O83      1.0000 0.14940  0.59410  0.03500  Biso   1.000  O
  O84      1.0000 0.85060  0.40590  0.96500  Biso   1.000  O
  O85      1.0000 0.43910  0.43910  0.69870  Biso   1.000  O
  O86      1.0000 0.56090  0.56090  0.30130  Biso   1.000  O
  O87      1.0000 0.96590  0.98240  0.33740  Biso   1.000  O
  O88      1.0000 0.03410  0.01760  0.66260  Biso   1.000  O
  O89      1.0000 0.62660  0.52550  0.72580  Biso   1.000  O
  O90      1.0000 0.37340  0.47450  0.27420  Biso   1.000  O
  O91      1.0000 0.56270  0.54200  0.86370  Biso   1.000  O
  O92      1.0000 0.43730  0.45800  0.13630  Biso   1.000  O
  O93      1.0000 0.84280  0.08290  0.38370  Biso   1.000  O
  O94      1.0000 0.15720  0.91710  0.61630  Biso   1.000  O
  O95      1.0000 0.00050  0.76820  0.74350  Biso   1.000  O
  O96      1.0000 0.99950  0.23180  0.25650  Biso   1.000  O
  O97      1.0000 0.93700  0.61100  0.71200  Biso   1.000  O
  O98      1.0000 0.06300  0.38900  0.28800  Biso   1.000  O
  O99      1.0000 0.76000  0.21300  0.55300  Biso   1.000  O
  O100     1.0000 0.24000  0.78700  0.44700  Biso   1.000  O
  O101     1.0000 0.70100  0.33740  0.64130  Biso   1.000  O
  O102     1.0000 0.29900  0.66260  0.35870  Biso   1.000  O
  O103     1.0000 0.00900  0.07800  0.55500  Biso   1.000  O
  O104     1.0000 0.99100  0.92200  0.44500  Biso   1.000  O
  O105     1.0000 0.15940  0.17520  0.81510  Biso   1.000  O
  O106     1.0000 0.84060  0.82480  0.18490  Biso   1.000  O
  O107     1.0000 0.92900  0.20400  0.52240  Biso   1.000  O
  O108     1.0000 0.07100  0.79600  0.47760  Biso   1.000  O
  O109     1.0000 0.49820  0.40800  0.38370  Biso   1.000  O
  O110     1.0000 0.50180  0.59200  0.61630  Biso   1.000  O
  O111     1.0000 0.76300  0.52500  0.68100  Biso   1.000  O
  O112     1.0000 0.23700  0.47500  0.31900  Biso   1.000  O
  O113     1.0000 0.42000  0.61000  0.16800  Biso   1.000  O
  O114     1.0000 0.58000  0.39000  0.83200  Biso   1.000  O
  O115     1.0000 0.71100  0.53800  0.55060  Biso   1.000  O
  O116     1.0000 0.28900  0.46200  0.44940  Biso   1.000  O
  O117     1.0000 0.97940  0.93120  0.80280  Biso   1.000  O
  O118     1.0000 0.02060  0.06880  0.19720  Biso   1.000  O
  O119     1.0000 0.29300  0.64110  0.21490  Biso   1.000  O
  O120     1.0000 0.70700  0.35890  0.78510  Biso   1.000  O
  O121     1.0000 0.56640  0.29100  0.39360  Biso   1.000  O
  O122     1.0000 0.43360  0.70900  0.60640  Biso   1.000  O
  O123     1.0000 0.44300  0.02020  0.03130  Biso   1.000  O
  O124     1.0000 0.55700  0.97980  0.96870  Biso   1.000  O
  O125     1.0000 0.53140  0.94760  0.02540  Biso   1.000  O
  O126     1.0000 0.46860  0.05240  0.97460  Biso   1.000  O
  O127     1.0000 0.43610  0.92790  0.95830  Biso   1.000  O
  O128     1.0000 0.56390  0.07210  0.04170  Biso   1.000  O
  O129     1.0000 0.48780  0.99230  0.93330  Biso   1.000  O
  O130     1.0000 0.51220  0.00770  0.06670  Biso   1.000  O
  O131     1.0000 0.08300  0.02960  0.06350  Biso   1.000  O
  O132     1.0000 0.91700  0.97040  0.93650  Biso   1.000  O
  O133     1.0000 0.98470  0.03650  0.95250  Biso   1.000  O
  O134     1.0000 0.01530  0.96350  0.04750  Biso   1.000  O
  O135     1.0000 0.97180  0.91500  0.94070  Biso   1.000  O
  O136     1.0000 0.02820  0.08500  0.05930  Biso   1.000  O
  O137     1.0000 0.91730  0.98870  0.01200  Biso   1.000  O
  O138     1.0000 0.08270  0.01130  0.98800  Biso   1.000  O
  O139     1.0000 0.15030  0.70650  0.81580  Biso   1.000  O
  O140     1.0000 0.84970  0.29350  0.18420  Biso   1.000  O
  O141     1.0000 0.18610  0.65150  0.89840  Biso   1.000  O
  O142     1.0000 0.81390  0.34850  0.10160  Biso   1.000  O
  O143     1.0000 0.24300  0.63600  0.80340  Biso   1.000  O
  O144     1.0000 0.75700  0.36400  0.19660  Biso   1.000  O
  O145     1.0000 0.10090  0.56740  0.78500  Biso   1.000  O
  O146     1.0000 0.89910  0.43260  0.21500  Biso   1.000  O
  O147     1.0000 0.75820  0.54680  0.01910  Biso   1.000  O
  O148     1.0000 0.24180  0.45320  0.98090  Biso   1.000  O
  O149     1.0000 0.81740  0.62660  0.13650  Biso   1.000  O
  O150     1.0000 0.18260  0.37340  0.86350  Biso   1.000  O
  O151     1.0000 0.85560  0.67890  0.05430  Biso   1.000  O
  O152     1.0000 0.14440  0.32110  0.94570  Biso   1.000  O
  O153     1.0000 0.89710  0.57380  0.06830  Biso   1.000  O
  O154     1.0000 0.10290  0.42620  0.93170  Biso   1.000  O
  O155     1.0000 0.56720  0.14360  0.34230  Biso   1.000  O
  O156     1.0000 0.43280  0.85640  0.65770  Biso   1.000  O
  O157     1.0000 0.51740  0.00360  0.31680  Biso   1.000  O
  O158     1.0000 0.48260  0.99640  0.68320  Biso   1.000  O
  O159     1.0000 0.65810  0.07190  0.34010  Biso   1.000  O
  O160     1.0000 0.34190  0.92810  0.65990  Biso   1.000  O
  O161     1.0000 0.59400  0.09120  0.43040  Biso   1.000  O
  O162     1.0000 0.40600  0.90880  0.56960  Biso   1.000  O
  O163     1.0000 0.08030  0.37930  0.14750  Biso   1.000  O
  O164     1.0000 0.91970  0.62070  0.85250  Biso   1.000  O
  O165     1.0000 0.16460  0.48810  0.12570  Biso   1.000  O
  O166     1.0000 0.83540  0.51190  0.87430  Biso   1.000  O
  O167     1.0000 0.10000  0.51600  0.21150  Biso   1.000  O
  O168     1.0000 0.90000  0.48400  0.78850  Biso   1.000  O
  O169     1.0000 0.02110  0.45780  0.09580  Biso   1.000  O
  O170     1.0000 0.97890  0.54220  0.90420  Biso   1.000  O
  O171     1.0000 0.97670  0.17000  0.77200  Biso   1.000  O
  O172     1.0000 0.02330  0.83000  0.22800  Biso   1.000  O
  O173     1.0000 0.89890  0.03510  0.74450  Biso   1.000  O
  O174     1.0000 0.10110  0.96490  0.25550  Biso   1.000  O
  O175     1.0000 0.99280  0.11280  0.85340  Biso   1.000  O
  O176     1.0000 0.00720  0.88720  0.14660  Biso   1.000  O
  O177     1.0000 0.86790  0.13710  0.82170  Biso   1.000  O
  O178     1.0000 0.13210  0.86290  0.17830  Biso   1.000  O
  O179     1.0000 0.83320  0.94400  0.47430  Biso   1.000  O
  O180     1.0000 0.16680  0.05600  0.52570  Biso   1.000  O
  O181     1.0000 0.73570  0.00400  0.47000  Biso   1.000  O
  O182     1.0000 0.26430  0.99600  0.53000  Biso   1.000  O
  O183     1.0000 0.73270  0.92590  0.53450  Biso   1.000  O
  O184     1.0000 0.26730  0.07410  0.46550  Biso   1.000  O
  O185     1.0000 0.84340  0.03600  0.57070  Biso   1.000  O
  O186     1.0000 0.15660  0.96400  0.42930  Biso   1.000  O
  O187     1.0000 0.57750  0.66200  0.00160  Biso   1.000  O
  O188     1.0000 0.42250  0.33800  0.99840  Biso   1.000  O
  O189     1.0000 0.51780  0.69050  0.09150  Biso   1.000  O
  O190     1.0000 0.48220  0.30950  0.90850  Biso   1.000  O
  O191     1.0000 0.65660  0.74740  0.09780  Biso   1.000  O
  O192     1.0000 0.34340  0.25260  0.90220  Biso   1.000  O
  O193     1.0000 0.60400  0.61790  0.08800  Biso   1.000  O
  O194     1.0000 0.39600  0.38210  0.91200  Biso   1.000  O
  O195     1.0000 0.11950  0.28200  0.59340  Biso   1.000  O
  O196     1.0000 0.88050  0.71800  0.40660  Biso   1.000  O
  O197     1.0000 0.23300  0.29890  0.68220  Biso   1.000  O
  O198     1.0000 0.76700  0.70110  0.31780  Biso   1.000  O
  O199     1.0000 0.15890  0.38710  0.70290  Biso   1.000  O
  O200     1.0000 0.84110  0.61290  0.29710  Biso   1.000  O
  O201     1.0000 0.09680  0.24740  0.68830  Biso   1.000  O
  O202     1.0000 0.90320  0.75260  0.31170  Biso   1.000  O
  O203     1.0000 0.17900  0.23300  0.21110  Biso   1.000  O
  O204     1.0000 0.82100  0.76700  0.78890  Biso   1.000  O
  O205     1.0000 0.18530  0.25400  0.31600  Biso   1.000  O
  O206     1.0000 0.81470  0.74600  0.68400  Biso   1.000  O
  O207     1.0000 0.23390  0.15970  0.26000  Biso   1.000  O
  O208     1.0000 0.76610  0.84030  0.74000  Biso   1.000  O
  O209     1.0000 0.30260  0.29680  0.27820  Biso   1.000  O
  O210     1.0000 0.69740  0.70320  0.72180  Biso   1.000  O
  O211     1.0000 0.97500  0.53600  0.59800  Biso   1.000  O
  O212     1.0000 0.02500  0.46400  0.40200  Biso   1.000  O
  O213     1.0000 0.88800  0.42500  0.51770  Biso   1.000  O
  O214     1.0000 0.11200  0.57500  0.48230  Biso   1.000  O
  O215     1.0000 0.98200  0.40700  0.58800  Biso   1.000  O
  O216     1.0000 0.01800  0.59300  0.41200  Biso   1.000  O
  O217     1.0000 0.88500  0.43000  0.62100  Biso   1.000  O
  O218     1.0000 0.11500  0.57000  0.37900  Biso   1.000  O
  O219     1.0000 0.41200  0.31400  0.47100  Biso   1.000  O
  O220     1.0000 0.58800  0.68600  0.52900  Biso   1.000  O
  O221     1.0000 0.54000  0.36200  0.58800  Biso   1.000  O
  O222     1.0000 0.46000  0.63800  0.41200  Biso   1.000  O
  O223     1.0000 0.40700  0.26800  0.55800  Biso   1.000  O
  O224     1.0000 0.59300  0.73200  0.44200  Biso   1.000  O
  O225     1.0000 0.49500  0.24700  0.48500  Biso   1.000  O
  O226     1.0000 0.50500  0.75300  0.51500  Biso   1.000  O
