data_image0
_cell_length_a       8.046
_cell_length_b       12.259
_cell_length_c       12.38
_cell_angle_alpha    68.841
_cell_angle_beta     89.083
_cell_angle_gamma    85.11

_symmetry_space_group_name_H-M    "P 1"
_symmetry_int_tables_number       1

loop_
  _symmetry_equiv_pos_as_xyz
  'x, y, z'

loop_
  _atom_site_label
  _atom_site_occupancy
  _atom_site_fract_x
  _atom_site_fract_y
  _atom_site_fract_z
  _atom_site_thermal_displace_type
  _atom_site_B_iso_or_equiv
  _atom_site_type_symbol
  Cu1      1.0000 0.91211  0.76254  0.64480  Biso   1.000  Cu
  Cu2      1.0000 0.08789  0.23746  0.35520  Biso   1.000  Cu
  O1       1.0000 0.96910  0.89089  0.69101  Biso   1.000  O
  O2       1.0000 0.03090  0.10911  0.30899  Biso   1.000  O
  O3       1.0000 0.75070  0.82672  0.79953  Biso   1.000  O
  O4       1.0000 0.24930  0.17328  0.20047  Biso   1.000  O
  O5       1.0000 0.04940  0.64212  0.76425  Biso   1.000  O
  O6       1.0000 0.95060  0.35788  0.23575  Biso   1.000  O
  O7       1.0000 0.24050  0.70531  0.62909  Biso   1.000  O
  O8       1.0000 0.75950  0.29469  0.37091  Biso   1.000  O
  C1       1.0000 0.81980  0.27880  0.02610  Biso   1.000  C
  C2       1.0000 0.18020  0.72120  0.97390  Biso   1.000  C
  H1       1.0000 0.86700  0.21260  0.09150  Biso   1.000  H
  H2       1.0000 0.13300  0.78740  0.90850  Biso   1.000  H
  H3       1.0000 0.84650  0.35000  0.03670  Biso   1.000  H
  H4       1.0000 0.15350  0.65000  0.96330  Biso   1.000  H
  N1       1.0000 0.77180  0.87263  0.50840  Biso   1.000  N
  N2       1.0000 0.22820  0.12737  0.49160  Biso   1.000  N
  N3       1.0000 0.83330  0.64132  0.58564  Biso   1.000  N
  N4       1.0000 0.16670  0.35868  0.41436  Biso   1.000  N
  C3       1.0000 0.70090  0.81500  0.44718  Biso   1.000  C
  C4       1.0000 0.29910  0.18500  0.55282  Biso   1.000  C
  C5       1.0000 0.67030  0.62460  0.42900  Biso   1.000  C
  C6       1.0000 0.32970  0.37540  0.57100  Biso   1.000  C
  C7       1.0000 0.73520  0.69050  0.48858  Biso   1.000  C
  C8       1.0000 0.26480  0.30950  0.51142  Biso   1.000  C
  C9       1.0000 0.70870  0.50150  0.47600  Biso   1.000  C
  C10      1.0000 0.29130  0.49850  0.52400  Biso   1.000  C
  H5       1.0000 0.66800  0.45380  0.44040  Biso   1.000  H
  H6       1.0000 0.33200  0.54620  0.55960  Biso   1.000  H
  C11      1.0000 0.80590  0.45320  0.57390  Biso   1.000  C
  C12      1.0000 0.19410  0.54680  0.42610  Biso   1.000  C
  H7       1.0000 0.83130  0.37240  0.60530  Biso   1.000  H
  H8       1.0000 0.16870  0.62760  0.39470  Biso   1.000  H
  C13      1.0000 0.86740  0.52480  0.62720  Biso   1.000  C
  C14      1.0000 0.13260  0.47520  0.37280  Biso   1.000  C
  H9       1.0000 0.93390  0.49030  0.69360  Biso   1.000  H
  H10      1.0000 0.06610  0.50970  0.30640  Biso   1.000  H
  C15      1.0000 0.60000  0.87250  0.34720  Biso   1.000  C
  C16      1.0000 0.40000  0.12750  0.65280  Biso   1.000  C
  C17      1.0000 0.64400  0.05290  0.37260  Biso   1.000  C
  C18      1.0000 0.35600  0.94710  0.62740  Biso   1.000  C
  H11      1.0000 0.62650  0.13410  0.34970  Biso   1.000  H
  H12      1.0000 0.37350  0.86590  0.65030  Biso   1.000  H
  C19      1.0000 0.57010  0.68520  0.32680  Biso   1.000  C
  C20      1.0000 0.42990  0.31480  0.67320  Biso   1.000  C
  H13      1.0000 0.52760  0.64280  0.28620  Biso   1.000  H
  H14      1.0000 0.47240  0.35720  0.71380  Biso   1.000  H
  C21      1.0000 0.53620  0.80320  0.28850  Biso   1.000  C
  C22      1.0000 0.46380  0.19680  0.71150  Biso   1.000  C
  H15      1.0000 0.46990  0.84010  0.22240  Biso   1.000  H
  H16      1.0000 0.53010  0.15990  0.77760  Biso   1.000  H
  C23      1.0000 0.57280  0.99640  0.31100  Biso   1.000  C
  C24      1.0000 0.42720  0.00360  0.68900  Biso   1.000  C
  H17      1.0000 0.50710  0.03870  0.24580  Biso   1.000  H
  H18      1.0000 0.49290  0.96130  0.75420  Biso   1.000  H
  C25      1.0000 0.74380  0.98860  0.47070  Biso   1.000  C
  C26      1.0000 0.25620  0.01140  0.52930  Biso   1.000  C
  H19      1.0000 0.79240  0.02910  0.51090  Biso   1.000  H
  H20      1.0000 0.20760  0.97090  0.48910  Biso   1.000  H
  C27      1.0000 0.32070  0.54610  0.80460  Biso   1.000  C
  C28      1.0000 0.67930  0.45390  0.19540  Biso   1.000  C
  C29      1.0000 0.54700  0.37020  0.94930  Biso   1.000  C
  C30      1.0000 0.45300  0.62980  0.05070  Biso   1.000  C
  C31      1.0000 0.49210  0.55600  0.79610  Biso   1.000  C
  C32      1.0000 0.50790  0.44400  0.20390  Biso   1.000  C
  H21      1.0000 0.53170  0.62230  0.74080  Biso   1.000  H
  H22      1.0000 0.46830  0.37770  0.25920  Biso   1.000  H
  C33      1.0000 0.26470  0.44540  0.88940  Biso   1.000  C
  C34      1.0000 0.73530  0.55460  0.11060  Biso   1.000  C
  H23      1.0000 0.15070  0.43770  0.89760  Biso   1.000  H
  H24      1.0000 0.84930  0.56230  0.10240  Biso   1.000  H
  C35      1.0000 0.60510  0.46950  0.86810  Biso   1.000  C
  C36      1.0000 0.39490  0.53050  0.13190  Biso   1.000  C
  H25      1.0000 0.71890  0.47830  0.86190  Biso   1.000  H
  H26      1.0000 0.28110  0.52170  0.13810  Biso   1.000  H
  C37      1.0000 0.37500  0.35790  0.96040  Biso   1.000  C
  C38      1.0000 0.62500  0.64210  0.03960  Biso   1.000  C
  H27      1.0000 0.33590  0.29120  0.01520  Biso   1.000  H
  H28      1.0000 0.66410  0.70880  0.98480  Biso   1.000  H
  C39      1.0000 0.19840  0.63900  0.72530  Biso   1.000  C
  C40      1.0000 0.80160  0.36100  0.27470  Biso   1.000  C
  O9       1.0000 0.64470  0.27619  0.02497  Biso   1.000  O
  O10      1.0000 0.35530  0.72381  0.97503  Biso   1.000  O
  O11      1.0000 0.89420  0.27462  0.92242  Biso   1.000  O
  O12      1.0000 0.10580  0.72538  0.07758  Biso   1.000  O
  C41      1.0000 0.88550  0.17590  0.89550  Biso   1.000  C
  C42      1.0000 0.11450  0.82410  0.10450  Biso   1.000  C
  C43      1.0000 0.79160  0.08180  0.95440  Biso   1.000  C
  C44      1.0000 0.20840  0.91820  0.04560  Biso   1.000  C
  H29      1.0000 0.73300  0.08040  0.02020  Biso   1.000  H
  H30      1.0000 0.26700  0.91960  0.97980  Biso   1.000  H
  C45      1.0000 0.97830  0.17480  0.80010  Biso   1.000  C
  C46      1.0000 0.02170  0.82520  0.19990  Biso   1.000  C
  H31      1.0000 0.04490  0.23560  0.76320  Biso   1.000  H
  H32      1.0000 0.95510  0.76440  0.23680  Biso   1.000  H
  C47      1.0000 0.86180  0.89520  0.76740  Biso   1.000  C
  C48      1.0000 0.13820  0.10480  0.23260  Biso   1.000  C
  C49      1.0000 0.87430  0.99100  0.81534  Biso   1.000  C
  C50      1.0000 0.12570  0.00900  0.18466  Biso   1.000  C
  C51      1.0000 0.97170  0.08370  0.76020  Biso   1.000  C
  C52      1.0000 0.02830  0.91630  0.23980  Biso   1.000  C
  H33      1.0000 0.03300  0.08410  0.69570  Biso   1.000  H
  H34      1.0000 0.96700  0.91590  0.30430  Biso   1.000  H
  C53      1.0000 0.78690  0.99100  0.91360  Biso   1.000  C
  C54      1.0000 0.21310  0.00900  0.08640  Biso   1.000  C
  H35      1.0000 0.72400  0.92850  0.95240  Biso   1.000  H
  H36      1.0000 0.27600  0.07150  0.04760  Biso   1.000  H
