data_image0
_cell_length_a       11.604
_cell_length_b       18.511
_cell_length_c       12.6809
_cell_angle_alpha    90
_cell_angle_beta     92.482
_cell_angle_gamma    90

_symmetry_space_group_name_H-M    "P 1"
_symmetry_int_tables_number       1

loop_
  _symmetry_equiv_pos_as_xyz
  'x, y, z'

loop_
  _atom_site_label
  _atom_site_occupancy
  _atom_site_fract_x
  _atom_site_fract_y
  _atom_site_fract_z
  _atom_site_thermal_displace_type
  _atom_site_B_iso_or_equiv
  _atom_site_type_symbol
  Cu1      1.0000 0.00000  0.00000  0.50000  Biso   1.000  Cu
  Cu2      1.0000 0.50000  0.50000  0.50000  Biso   1.000  Cu
  Cu3      1.0000 0.00000  0.00000  0.00000  Biso   1.000  Cu
  Cu4      1.0000 0.50000  0.50000  0.00000  Biso   1.000  Cu
  O1       1.0000 0.97960  0.06990  0.61190  Biso   1.000  O
  O2       1.0000 0.47960  0.56990  0.61190  Biso   1.000  O
  O3       1.0000 0.97960  0.93010  0.11190  Biso   1.000  O
  O4       1.0000 0.47960  0.43010  0.11190  Biso   1.000  O
  O5       1.0000 0.02040  0.93010  0.38810  Biso   1.000  O
  O6       1.0000 0.52040  0.43010  0.38810  Biso   1.000  O
  O7       1.0000 0.02040  0.06990  0.88810  Biso   1.000  O
  O8       1.0000 0.52040  0.56990  0.88810  Biso   1.000  O
  O9       1.0000 0.17030  0.06970  0.50160  Biso   1.000  O
  O10      1.0000 0.67030  0.56970  0.50160  Biso   1.000  O
  O11      1.0000 0.17030  0.93030  0.00160  Biso   1.000  O
  O12      1.0000 0.67030  0.43030  0.00160  Biso   1.000  O
  O13      1.0000 0.82970  0.93030  0.49840  Biso   1.000  O
  O14      1.0000 0.32970  0.43030  0.49840  Biso   1.000  O
  O15      1.0000 0.82970  0.06970  0.99840  Biso   1.000  O
  O16      1.0000 0.32970  0.56970  0.99840  Biso   1.000  O
  O17      1.0000 0.14250  0.25260  0.82390  Biso   1.000  O
  O18      1.0000 0.64250  0.75260  0.82390  Biso   1.000  O
  O19      1.0000 0.14250  0.74740  0.32390  Biso   1.000  O
  O20      1.0000 0.64250  0.24740  0.32390  Biso   1.000  O
  O21      1.0000 0.85750  0.74740  0.17610  Biso   1.000  O
  O22      1.0000 0.35750  0.24740  0.17610  Biso   1.000  O
  O23      1.0000 0.85750  0.25260  0.67610  Biso   1.000  O
  O24      1.0000 0.35750  0.75260  0.67610  Biso   1.000  O
  O25      1.0000 0.91740  0.06710  0.39870  Biso   1.000  O
  O26      1.0000 0.41740  0.56710  0.39870  Biso   1.000  O
  O27      1.0000 0.91740  0.93290  0.89870  Biso   1.000  O
  O28      1.0000 0.41740  0.43290  0.89870  Biso   1.000  O
  O29      1.0000 0.08260  0.93290  0.60130  Biso   1.000  O
  O30      1.0000 0.58260  0.43290  0.60130  Biso   1.000  O
  O31      1.0000 0.08260  0.06710  0.10130  Biso   1.000  O
  O32      1.0000 0.58260  0.56710  0.10130  Biso   1.000  O
  O33      1.0000 0.81220  0.99870  0.73300  Biso   1.000  O
  O34      1.0000 0.31220  0.49870  0.73300  Biso   1.000  O
  O35      1.0000 0.81220  0.00130  0.23300  Biso   1.000  O
  O36      1.0000 0.31220  0.50130  0.23300  Biso   1.000  O
  O37      1.0000 0.18780  0.00130  0.26700  Biso   1.000  O
  O38      1.0000 0.68780  0.50130  0.26700  Biso   1.000  O
  O39      1.0000 0.18780  0.99870  0.76700  Biso   1.000  O
  O40      1.0000 0.68780  0.49870  0.76700  Biso   1.000  O
  O41      1.0000 0.26850  0.34000  0.97410  Biso   1.000  O
  O42      1.0000 0.76850  0.84000  0.97410  Biso   1.000  O
  O43      1.0000 0.26850  0.66000  0.47410  Biso   1.000  O
  O44      1.0000 0.76850  0.16000  0.47410  Biso   1.000  O
  O45      1.0000 0.73150  0.66000  0.02590  Biso   1.000  O
  O46      1.0000 0.23150  0.16000  0.02590  Biso   1.000  O
  O47      1.0000 0.73150  0.34000  0.52590  Biso   1.000  O
  O48      1.0000 0.23150  0.84000  0.52590  Biso   1.000  O
  O49      1.0000 0.56910  0.97860  0.67180  Biso   1.000  O
  O50      1.0000 0.06910  0.47860  0.67180  Biso   1.000  O
  O51      1.0000 0.56910  0.02140  0.17180  Biso   1.000  O
  O52      1.0000 0.06910  0.52140  0.17180  Biso   1.000  O
  O53      1.0000 0.43090  0.02140  0.32820  Biso   1.000  O
  O54      1.0000 0.93090  0.52140  0.32820  Biso   1.000  O
  O55      1.0000 0.43090  0.97860  0.82820  Biso   1.000  O
  O56      1.0000 0.93090  0.47860  0.82820  Biso   1.000  O
  C1       1.0000 0.05830  0.11740  0.63690  Biso   1.000  C
  C2       1.0000 0.55830  0.61740  0.63690  Biso   1.000  C
  C3       1.0000 0.05830  0.88260  0.13690  Biso   1.000  C
  C4       1.0000 0.55830  0.38260  0.13690  Biso   1.000  C
  C5       1.0000 0.94170  0.88260  0.36310  Biso   1.000  C
  C6       1.0000 0.44170  0.38260  0.36310  Biso   1.000  C
  C7       1.0000 0.94170  0.11740  0.86310  Biso   1.000  C
  C8       1.0000 0.44170  0.61740  0.86310  Biso   1.000  C
  C9       1.0000 0.16290  0.11390  0.57220  Biso   1.000  C
  C10      1.0000 0.66290  0.61390  0.57220  Biso   1.000  C
  C11      1.0000 0.16290  0.88610  0.07220  Biso   1.000  C
  C12      1.0000 0.66290  0.38610  0.07220  Biso   1.000  C
  C13      1.0000 0.83710  0.88610  0.42780  Biso   1.000  C
  C14      1.0000 0.33710  0.38610  0.42780  Biso   1.000  C
  C15      1.0000 0.83710  0.11390  0.92780  Biso   1.000  C
  C16      1.0000 0.33710  0.61390  0.92780  Biso   1.000  C
  C17      1.0000 0.25660  0.16770  0.59390  Biso   1.000  C
  C18      1.0000 0.75660  0.66770  0.59390  Biso   1.000  C
  C19      1.0000 0.25660  0.83230  0.09390  Biso   1.000  C
  C20      1.0000 0.75660  0.33230  0.09390  Biso   1.000  C
  C21      1.0000 0.74340  0.83230  0.40610  Biso   1.000  C
  C22      1.0000 0.24340  0.33230  0.40610  Biso   1.000  C
  C23      1.0000 0.74340  0.16770  0.90610  Biso   1.000  C
  C24      1.0000 0.24340  0.66770  0.90610  Biso   1.000  C
  C25      1.0000 0.35120  0.16980  0.53030  Biso   1.000  C
  C26      1.0000 0.85120  0.66980  0.53030  Biso   1.000  C
  C27      1.0000 0.35120  0.83020  0.03030  Biso   1.000  C
  C28      1.0000 0.85120  0.33020  0.03030  Biso   1.000  C
  C29      1.0000 0.64880  0.83020  0.46970  Biso   1.000  C
  C30      1.0000 0.14880  0.33020  0.46970  Biso   1.000  C
  C31      1.0000 0.64880  0.16980  0.96970  Biso   1.000  C
  C32      1.0000 0.14880  0.66980  0.96970  Biso   1.000  C
  C33      1.0000 0.43350  0.22310  0.54840  Biso   1.000  C
  C34      1.0000 0.93350  0.72310  0.54840  Biso   1.000  C
  C35      1.0000 0.43350  0.77690  0.04840  Biso   1.000  C
  C36      1.0000 0.93350  0.27690  0.04840  Biso   1.000  C
  C37      1.0000 0.56650  0.77690  0.45160  Biso   1.000  C
  C38      1.0000 0.06650  0.27690  0.45160  Biso   1.000  C
  C39      1.0000 0.56650  0.22310  0.95160  Biso   1.000  C
  C40      1.0000 0.06650  0.72310  0.95160  Biso   1.000  C
  C41      1.0000 0.42380  0.27230  0.62800  Biso   1.000  C
  C42      1.0000 0.92380  0.77230  0.62800  Biso   1.000  C
  C43      1.0000 0.42380  0.72770  0.12800  Biso   1.000  C
  C44      1.0000 0.92380  0.22770  0.12800  Biso   1.000  C
  C45      1.0000 0.57620  0.72770  0.37200  Biso   1.000  C
  C46      1.0000 0.07620  0.22770  0.37200  Biso   1.000  C
  C47      1.0000 0.57620  0.27230  0.87200  Biso   1.000  C
  C48      1.0000 0.07620  0.77230  0.87200  Biso   1.000  C
  C49      1.0000 0.33010  0.26990  0.69180  Biso   1.000  C
  C50      1.0000 0.83010  0.76990  0.69180  Biso   1.000  C
  C51      1.0000 0.33010  0.73010  0.19180  Biso   1.000  C
  C52      1.0000 0.83010  0.23010  0.19180  Biso   1.000  C
  C53      1.0000 0.66990  0.73010  0.30820  Biso   1.000  C
  C54      1.0000 0.16990  0.23010  0.30820  Biso   1.000  C
  C55      1.0000 0.66990  0.26990  0.80820  Biso   1.000  C
  C56      1.0000 0.16990  0.76990  0.80820  Biso   1.000  C
  C57      1.0000 0.24500  0.21720  0.67650  Biso   1.000  C
  C58      1.0000 0.74500  0.71720  0.67650  Biso   1.000  C
  C59      1.0000 0.24500  0.78280  0.17650  Biso   1.000  C
  C60      1.0000 0.74500  0.28280  0.17650  Biso   1.000  C
  C61      1.0000 0.75500  0.78280  0.32350  Biso   1.000  C
  C62      1.0000 0.25500  0.28280  0.32350  Biso   1.000  C
  C63      1.0000 0.75500  0.21720  0.82350  Biso   1.000  C
  C64      1.0000 0.25500  0.71720  0.82350  Biso   1.000  C
  C65      1.0000 0.14300  0.21380  0.74530  Biso   1.000  C
  C66      1.0000 0.64300  0.71380  0.74530  Biso   1.000  C
  C67      1.0000 0.14300  0.78620  0.24530  Biso   1.000  C
  C68      1.0000 0.64300  0.28620  0.24530  Biso   1.000  C
  C69      1.0000 0.85700  0.78620  0.25470  Biso   1.000  C
  C70      1.0000 0.35700  0.28620  0.25470  Biso   1.000  C
  C71      1.0000 0.85700  0.21380  0.75470  Biso   1.000  C
  C72      1.0000 0.35700  0.71380  0.75470  Biso   1.000  C
  C73      1.0000 0.05050  0.16450  0.71780  Biso   1.000  C
  C74      1.0000 0.55050  0.66450  0.71780  Biso   1.000  C
  C75      1.0000 0.05050  0.83550  0.21780  Biso   1.000  C
  C76      1.0000 0.55050  0.33550  0.21780  Biso   1.000  C
  C77      1.0000 0.94950  0.83550  0.28220  Biso   1.000  C
  C78      1.0000 0.44950  0.33550  0.28220  Biso   1.000  C
  C79      1.0000 0.94950  0.16450  0.78220  Biso   1.000  C
  C80      1.0000 0.44950  0.66450  0.78220  Biso   1.000  C
  C81      1.0000 0.49900  0.92920  0.69500  Biso   1.000  C
  C82      1.0000 0.99900  0.42920  0.69500  Biso   1.000  C
  C83      1.0000 0.49900  0.07080  0.19500  Biso   1.000  C
  C84      1.0000 0.99900  0.57080  0.19500  Biso   1.000  C
  C85      1.0000 0.50100  0.07080  0.30500  Biso   1.000  C
  C86      1.0000 0.00100  0.57080  0.30500  Biso   1.000  C
  C87      1.0000 0.50100  0.92920  0.80500  Biso   1.000  C
  C88      1.0000 0.00100  0.42920  0.80500  Biso   1.000  C
  C89      1.0000 0.50400  0.04000  0.69500  Biso   1.000  C
  C90      1.0000 0.00400  0.54000  0.69500  Biso   1.000  C
  C91      1.0000 0.50400  0.96000  0.19500  Biso   1.000  C
  C92      1.0000 0.00400  0.46000  0.19500  Biso   1.000  C
  C93      1.0000 0.49600  0.96000  0.30500  Biso   1.000  C
  C94      1.0000 0.99600  0.46000  0.30500  Biso   1.000  C
  C95      1.0000 0.49600  0.04000  0.80500  Biso   1.000  C
  C96      1.0000 0.99600  0.54000  0.80500  Biso   1.000  C
  H1       1.0000 0.36120  0.13560  0.47750  Biso   1.000  H
  H2       1.0000 0.86120  0.63560  0.47750  Biso   1.000  H
  H3       1.0000 0.36120  0.86440  0.97750  Biso   1.000  H
  H4       1.0000 0.86120  0.36440  0.97750  Biso   1.000  H
  H5       1.0000 0.63880  0.86440  0.52250  Biso   1.000  H
  H6       1.0000 0.13880  0.36440  0.52250  Biso   1.000  H
  H7       1.0000 0.63880  0.13560  0.02250  Biso   1.000  H
  H8       1.0000 0.13880  0.63560  0.02250  Biso   1.000  H
  H9       1.0000 0.49700  0.22710  0.50530  Biso   1.000  H
  H10      1.0000 0.99700  0.72710  0.50530  Biso   1.000  H
  H11      1.0000 0.49700  0.77290  0.00530  Biso   1.000  H
  H12      1.0000 0.99700  0.27290  0.00530  Biso   1.000  H
  H13      1.0000 0.50300  0.77290  0.49470  Biso   1.000  H
  H14      1.0000 0.00300  0.27290  0.49470  Biso   1.000  H
  H15      1.0000 0.50300  0.22710  0.99470  Biso   1.000  H
  H16      1.0000 0.00300  0.72710  0.99470  Biso   1.000  H
  H17      1.0000 0.48030  0.30910  0.63810  Biso   1.000  H
  H18      1.0000 0.98030  0.80910  0.63810  Biso   1.000  H
  H19      1.0000 0.48030  0.69090  0.13810  Biso   1.000  H
  H20      1.0000 0.98030  0.19090  0.13810  Biso   1.000  H
  H21      1.0000 0.51970  0.69090  0.36190  Biso   1.000  H
  H22      1.0000 0.01970  0.19090  0.36190  Biso   1.000  H
  H23      1.0000 0.51970  0.30910  0.86190  Biso   1.000  H
  H24      1.0000 0.01970  0.80910  0.86190  Biso   1.000  H
  H25      1.0000 0.32570  0.30430  0.74460  Biso   1.000  H
  H26      1.0000 0.82570  0.80430  0.74460  Biso   1.000  H
  H27      1.0000 0.32570  0.69570  0.24460  Biso   1.000  H
  H28      1.0000 0.82570  0.19570  0.24460  Biso   1.000  H
  H29      1.0000 0.67430  0.69570  0.25540  Biso   1.000  H
  H30      1.0000 0.17430  0.19570  0.25540  Biso   1.000  H
  H31      1.0000 0.67430  0.30430  0.75540  Biso   1.000  H
  H32      1.0000 0.17430  0.80430  0.75540  Biso   1.000  H
  H33      1.0000 0.89200  0.04900  0.35000  Biso   1.000  H
  H34      1.0000 0.39200  0.54900  0.35000  Biso   1.000  H
  H35      1.0000 0.89200  0.95100  0.85000  Biso   1.000  H
  H36      1.0000 0.39200  0.45100  0.85000  Biso   1.000  H
  H37      1.0000 0.10800  0.95100  0.65000  Biso   1.000  H
  H38      1.0000 0.60800  0.45100  0.65000  Biso   1.000  H
  H39      1.0000 0.10800  0.04900  0.15000  Biso   1.000  H
  H40      1.0000 0.60800  0.54900  0.15000  Biso   1.000  H
  H41      1.0000 0.84200  0.08300  0.43100  Biso   1.000  H
  H42      1.0000 0.34200  0.58300  0.43100  Biso   1.000  H
  H43      1.0000 0.84200  0.91700  0.93100  Biso   1.000  H
  H44      1.0000 0.34200  0.41700  0.93100  Biso   1.000  H
  H45      1.0000 0.15800  0.91700  0.56900  Biso   1.000  H
  H46      1.0000 0.65800  0.41700  0.56900  Biso   1.000  H
  H47      1.0000 0.15800  0.08300  0.06900  Biso   1.000  H
  H48      1.0000 0.65800  0.58300  0.06900  Biso   1.000  H
  H49      1.0000 0.87400  0.02100  0.68900  Biso   1.000  H
  H50      1.0000 0.37400  0.52100  0.68900  Biso   1.000  H
  H51      1.0000 0.87400  0.97900  0.18900  Biso   1.000  H
  H52      1.0000 0.37400  0.47900  0.18900  Biso   1.000  H
  H53      1.0000 0.12600  0.97900  0.31100  Biso   1.000  H
  H54      1.0000 0.62600  0.47900  0.31100  Biso   1.000  H
  H55      1.0000 0.12600  0.02100  0.81100  Biso   1.000  H
  H56      1.0000 0.62600  0.52100  0.81100  Biso   1.000  H
  H57      1.0000 0.73500  0.98100  0.70600  Biso   1.000  H
  H58      1.0000 0.23500  0.48100  0.70600  Biso   1.000  H
  H59      1.0000 0.73500  0.01900  0.20600  Biso   1.000  H
  H60      1.0000 0.23500  0.51900  0.20600  Biso   1.000  H
  H61      1.0000 0.26500  0.01900  0.29400  Biso   1.000  H
  H62      1.0000 0.76500  0.51900  0.29400  Biso   1.000  H
  H63      1.0000 0.26500  0.98100  0.79400  Biso   1.000  H
  H64      1.0000 0.76500  0.48100  0.79400  Biso   1.000  H
  H65      1.0000 0.22900  0.36900  0.03100  Biso   1.000  H
  H66      1.0000 0.72900  0.86900  0.03100  Biso   1.000  H
  H67      1.0000 0.22900  0.63100  0.53100  Biso   1.000  H
  H68      1.0000 0.72900  0.13100  0.53100  Biso   1.000  H
  H69      1.0000 0.77100  0.63100  0.96900  Biso   1.000  H
  H70      1.0000 0.27100  0.13100  0.96900  Biso   1.000  H
  H71      1.0000 0.77100  0.36900  0.46900  Biso   1.000  H
  H72      1.0000 0.27100  0.86900  0.46900  Biso   1.000  H
  H73      1.0000 0.26800  0.30900  0.95600  Biso   1.000  H
  H74      1.0000 0.76800  0.80900  0.95600  Biso   1.000  H
  H75      1.0000 0.26800  0.69100  0.45600  Biso   1.000  H
  H76      1.0000 0.76800  0.19100  0.45600  Biso   1.000  H
  H77      1.0000 0.73200  0.69100  0.04400  Biso   1.000  H
  H78      1.0000 0.23200  0.19100  0.04400  Biso   1.000  H
  H79      1.0000 0.73200  0.30900  0.54400  Biso   1.000  H
  H80      1.0000 0.23200  0.80900  0.54400  Biso   1.000  H
  H81      1.0000 0.41860  0.93870  0.67000  Biso   1.000  H
  H82      1.0000 0.91860  0.43870  0.67000  Biso   1.000  H
  H83      1.0000 0.41860  0.06130  0.17000  Biso   1.000  H
  H84      1.0000 0.91860  0.56130  0.17000  Biso   1.000  H
  H85      1.0000 0.58140  0.06130  0.33000  Biso   1.000  H
  H86      1.0000 0.08140  0.56130  0.33000  Biso   1.000  H
  H87      1.0000 0.58140  0.93870  0.83000  Biso   1.000  H
  H88      1.0000 0.08140  0.43870  0.83000  Biso   1.000  H
  H89      1.0000 0.51850  0.88320  0.66660  Biso   1.000  H
  H90      1.0000 0.01850  0.38320  0.66660  Biso   1.000  H
  H91      1.0000 0.51850  0.11680  0.16660  Biso   1.000  H
  H92      1.0000 0.01850  0.61680  0.16660  Biso   1.000  H
  H93      1.0000 0.48150  0.11680  0.33340  Biso   1.000  H
  H94      1.0000 0.98150  0.61680  0.33340  Biso   1.000  H
  H95      1.0000 0.48150  0.88320  0.83340  Biso   1.000  H
  H96      1.0000 0.98150  0.38320  0.83340  Biso   1.000  H
  H97      1.0000 0.52480  0.08430  0.67290  Biso   1.000  H
  H98      1.0000 0.02480  0.58430  0.67290  Biso   1.000  H
  H99      1.0000 0.52480  0.91570  0.17290  Biso   1.000  H
  H100     1.0000 0.02480  0.41570  0.17290  Biso   1.000  H
  H101     1.0000 0.47520  0.91570  0.32710  Biso   1.000  H
  H102     1.0000 0.97520  0.41570  0.32710  Biso   1.000  H
  H103     1.0000 0.47520  0.08430  0.82710  Biso   1.000  H
  H104     1.0000 0.97520  0.58430  0.82710  Biso   1.000  H
  H105     1.0000 0.41880  0.03330  0.67530  Biso   1.000  H
  H106     1.0000 0.91880  0.53330  0.67530  Biso   1.000  H
  H107     1.0000 0.41880  0.96670  0.17530  Biso   1.000  H
  H108     1.0000 0.91880  0.46670  0.17530  Biso   1.000  H
  H109     1.0000 0.58120  0.96670  0.32470  Biso   1.000  H
  H110     1.0000 0.08120  0.46670  0.32470  Biso   1.000  H
  H111     1.0000 0.58120  0.03330  0.82470  Biso   1.000  H
  H112     1.0000 0.08120  0.53330  0.82470  Biso   1.000  H
