data_image0
_cell_length_a       11.163
_cell_length_b       20.953
_cell_length_c       12.898
_cell_angle_alpha    90
_cell_angle_beta     105.73
_cell_angle_gamma    90

_symmetry_space_group_name_H-M    "P 1"
_symmetry_int_tables_number       1

loop_
  _symmetry_equiv_pos_as_xyz
  'x, y, z'

loop_
  _atom_site_label
  _atom_site_occupancy
  _atom_site_fract_x
  _atom_site_fract_y
  _atom_site_fract_z
  _atom_site_thermal_displace_type
  _atom_site_B_iso_or_equiv
  _atom_site_type_symbol
  Cu1      1.0000 0.00000  0.00000  0.50000  Biso   1.000  Cu
  Cu2      1.0000 0.50000  0.50000  0.50000  Biso   1.000  Cu
  Cu3      1.0000 0.00000  0.00000  0.00000  Biso   1.000  Cu
  Cu4      1.0000 0.50000  0.50000  0.00000  Biso   1.000  Cu
  O1       1.0000 0.03080  0.94696  0.62350  Biso   1.000  O
  O2       1.0000 0.53080  0.44696  0.62350  Biso   1.000  O
  O3       1.0000 0.03080  0.05304  0.12350  Biso   1.000  O
  O4       1.0000 0.53080  0.55304  0.12350  Biso   1.000  O
  O5       1.0000 0.96920  0.05304  0.37650  Biso   1.000  O
  O6       1.0000 0.46920  0.55304  0.37650  Biso   1.000  O
  O7       1.0000 0.96920  0.94696  0.87650  Biso   1.000  O
  O8       1.0000 0.46920  0.44696  0.87650  Biso   1.000  O
  O9       1.0000 0.84250  0.94524  0.45060  Biso   1.000  O
  O10      1.0000 0.34250  0.44524  0.45060  Biso   1.000  O
  O11      1.0000 0.84250  0.05476  0.95060  Biso   1.000  O
  O12      1.0000 0.34250  0.55476  0.95060  Biso   1.000  O
  O13      1.0000 0.15750  0.05476  0.54940  Biso   1.000  O
  O14      1.0000 0.65750  0.55476  0.54940  Biso   1.000  O
  O15      1.0000 0.15750  0.94524  0.04940  Biso   1.000  O
  O16      1.0000 0.65750  0.44524  0.04940  Biso   1.000  O
  O17      1.0000 0.83900  0.78292  0.76900  Biso   1.000  O
  O18      1.0000 0.33900  0.28292  0.76900  Biso   1.000  O
  O19      1.0000 0.83900  0.21708  0.26900  Biso   1.000  O
  O20      1.0000 0.33900  0.71708  0.26900  Biso   1.000  O
  O21      1.0000 0.16100  0.21708  0.23100  Biso   1.000  O
  O22      1.0000 0.66100  0.71708  0.23100  Biso   1.000  O
  O23      1.0000 0.16100  0.78292  0.73100  Biso   1.000  O
  O24      1.0000 0.66100  0.28292  0.73100  Biso   1.000  O
  O25      1.0000 0.88190  0.07000  0.57510  Biso   1.000  O
  O26      1.0000 0.38190  0.57000  0.57510  Biso   1.000  O
  O27      1.0000 0.88190  0.93000  0.07510  Biso   1.000  O
  O28      1.0000 0.38190  0.43000  0.07510  Biso   1.000  O
  O29      1.0000 0.11810  0.93000  0.42490  Biso   1.000  O
  O30      1.0000 0.61810  0.43000  0.42490  Biso   1.000  O
  O31      1.0000 0.11810  0.07000  0.92490  Biso   1.000  O
  O32      1.0000 0.61810  0.57000  0.92490  Biso   1.000  O
  O33      1.0000 0.53580  0.99940  0.72490  Biso   1.000  O
  O34      1.0000 0.03580  0.49940  0.72490  Biso   1.000  O
  O35      1.0000 0.53580  0.00060  0.22490  Biso   1.000  O
  O36      1.0000 0.03580  0.50060  0.22490  Biso   1.000  O
  O37      1.0000 0.46420  0.00060  0.27510  Biso   1.000  O
  O38      1.0000 0.96420  0.50060  0.27510  Biso   1.000  O
  O39      1.0000 0.46420  0.99940  0.77510  Biso   1.000  O
  O40      1.0000 0.96420  0.49940  0.77510  Biso   1.000  O
  C1       1.0000 0.94530  0.90600  0.62130  Biso   1.000  C
  C2       1.0000 0.44530  0.40600  0.62130  Biso   1.000  C
  C3       1.0000 0.94530  0.09400  0.12130  Biso   1.000  C
  C4       1.0000 0.44530  0.59400  0.12130  Biso   1.000  C
  C5       1.0000 0.05470  0.09400  0.37870  Biso   1.000  C
  C6       1.0000 0.55470  0.59400  0.37870  Biso   1.000  C
  C7       1.0000 0.05470  0.90600  0.87870  Biso   1.000  C
  C8       1.0000 0.55470  0.40600  0.87870  Biso   1.000  C
  C9       1.0000 0.83680  0.90580  0.52160  Biso   1.000  C
  C10      1.0000 0.33680  0.40580  0.52160  Biso   1.000  C
  C11      1.0000 0.83680  0.09420  0.02160  Biso   1.000  C
  C12      1.0000 0.33680  0.59420  0.02160  Biso   1.000  C
  C13      1.0000 0.16320  0.09420  0.47840  Biso   1.000  C
  C14      1.0000 0.66320  0.59420  0.47840  Biso   1.000  C
  C15      1.0000 0.16320  0.90580  0.97840  Biso   1.000  C
  C16      1.0000 0.66320  0.40580  0.97840  Biso   1.000  C
  C17      1.0000 0.73330  0.86230  0.51080  Biso   1.000  C
  C18      1.0000 0.23330  0.36230  0.51080  Biso   1.000  C
  C19      1.0000 0.73330  0.13770  0.01080  Biso   1.000  C
  C20      1.0000 0.23330  0.63770  0.01080  Biso   1.000  C
  C21      1.0000 0.26670  0.13770  0.48920  Biso   1.000  C
  C22      1.0000 0.76670  0.63770  0.48920  Biso   1.000  C
  C23      1.0000 0.26670  0.86230  0.98920  Biso   1.000  C
  C24      1.0000 0.76670  0.36230  0.98920  Biso   1.000  C
  C25      1.0000 0.63480  0.86240  0.41900  Biso   1.000  C
  C26      1.0000 0.13480  0.36240  0.41900  Biso   1.000  C
  C27      1.0000 0.63480  0.13760  0.91900  Biso   1.000  C
  C28      1.0000 0.13480  0.63760  0.91900  Biso   1.000  C
  C29      1.0000 0.36520  0.13760  0.58100  Biso   1.000  C
  C30      1.0000 0.86520  0.63760  0.58100  Biso   1.000  C
  C31      1.0000 0.36520  0.86240  0.08100  Biso   1.000  C
  C32      1.0000 0.86520  0.36240  0.08100  Biso   1.000  C
  C33      1.0000 0.53960  0.81820  0.40840  Biso   1.000  C
  C34      1.0000 0.03960  0.31820  0.40840  Biso   1.000  C
  C35      1.0000 0.53960  0.18180  0.90840  Biso   1.000  C
  C36      1.0000 0.03960  0.68180  0.90840  Biso   1.000  C
  C37      1.0000 0.46040  0.18180  0.59160  Biso   1.000  C
  C38      1.0000 0.96040  0.68180  0.59160  Biso   1.000  C
  C39      1.0000 0.46040  0.81820  0.09160  Biso   1.000  C
  C40      1.0000 0.96040  0.31820  0.09160  Biso   1.000  C
  C41      1.0000 0.54140  0.77610  0.49010  Biso   1.000  C
  C42      1.0000 0.04140  0.27610  0.49010  Biso   1.000  C
  C43      1.0000 0.54140  0.22390  0.99010  Biso   1.000  C
  C44      1.0000 0.04140  0.72390  0.99010  Biso   1.000  C
  C45      1.0000 0.45860  0.22390  0.50990  Biso   1.000  C
  C46      1.0000 0.95860  0.72390  0.50990  Biso   1.000  C
  C47      1.0000 0.45860  0.77610  0.00990  Biso   1.000  C
  C48      1.0000 0.95860  0.27610  0.00990  Biso   1.000  C
  C49      1.0000 0.63910  0.77640  0.58230  Biso   1.000  C
  C50      1.0000 0.13910  0.27640  0.58230  Biso   1.000  C
  C51      1.0000 0.63910  0.22360  0.08230  Biso   1.000  C
  C52      1.0000 0.13910  0.72360  0.08230  Biso   1.000  C
  C53      1.0000 0.36090  0.22360  0.41770  Biso   1.000  C
  C54      1.0000 0.86090  0.72360  0.41770  Biso   1.000  C
  C55      1.0000 0.36090  0.77640  0.91770  Biso   1.000  C
  C56      1.0000 0.86090  0.27640  0.91770  Biso   1.000  C
  C57      1.0000 0.73630  0.81940  0.59520  Biso   1.000  C
  C58      1.0000 0.23630  0.31940  0.59520  Biso   1.000  C
  C59      1.0000 0.73630  0.18060  0.09520  Biso   1.000  C
  C60      1.0000 0.23630  0.68060  0.09520  Biso   1.000  C
  C61      1.0000 0.26370  0.18060  0.40480  Biso   1.000  C
  C62      1.0000 0.76370  0.68060  0.40480  Biso   1.000  C
  C63      1.0000 0.26370  0.81940  0.90480  Biso   1.000  C
  C64      1.0000 0.76370  0.31940  0.90480  Biso   1.000  C
  C65      1.0000 0.84330  0.81900  0.69450  Biso   1.000  C
  C66      1.0000 0.34330  0.31900  0.69450  Biso   1.000  C
  C67      1.0000 0.84330  0.18100  0.19450  Biso   1.000  C
  C68      1.0000 0.34330  0.68100  0.19450  Biso   1.000  C
  C69      1.0000 0.15670  0.18100  0.30550  Biso   1.000  C
  C70      1.0000 0.65670  0.68100  0.30550  Biso   1.000  C
  C71      1.0000 0.15670  0.81900  0.80550  Biso   1.000  C
  C72      1.0000 0.65670  0.31900  0.80550  Biso   1.000  C
  C73      1.0000 0.94700  0.86230  0.70110  Biso   1.000  C
  C74      1.0000 0.44700  0.36230  0.70110  Biso   1.000  C
  C75      1.0000 0.94700  0.13770  0.20110  Biso   1.000  C
  C76      1.0000 0.44700  0.63770  0.20110  Biso   1.000  C
  C77      1.0000 0.05300  0.13770  0.29890  Biso   1.000  C
  C78      1.0000 0.55300  0.63770  0.29890  Biso   1.000  C
  C79      1.0000 0.05300  0.86230  0.79890  Biso   1.000  C
  C80      1.0000 0.55300  0.36230  0.79890  Biso   1.000  C
  C81      1.0000 0.82640  0.05910  0.65970  Biso   1.000  C
  C82      1.0000 0.32640  0.55910  0.65970  Biso   1.000  C
  C83      1.0000 0.82640  0.94090  0.15970  Biso   1.000  C
  C84      1.0000 0.32640  0.44090  0.15970  Biso   1.000  C
  C85      1.0000 0.17360  0.94090  0.34030  Biso   1.000  C
  C86      1.0000 0.67360  0.44090  0.34030  Biso   1.000  C
  C87      1.0000 0.17360  0.05910  0.84030  Biso   1.000  C
  C88      1.0000 0.67360  0.55910  0.84030  Biso   1.000  C
  C89      1.0000 0.79960  0.11900  0.69850  Biso   1.000  C
  C90      1.0000 0.29960  0.61900  0.69850  Biso   1.000  C
  C91      1.0000 0.79960  0.88100  0.19850  Biso   1.000  C
  C92      1.0000 0.29960  0.38100  0.19850  Biso   1.000  C
  C93      1.0000 0.20040  0.88100  0.30150  Biso   1.000  C
  C94      1.0000 0.70040  0.38100  0.30150  Biso   1.000  C
  C95      1.0000 0.20040  0.11900  0.80150  Biso   1.000  C
  C96      1.0000 0.70040  0.61900  0.80150  Biso   1.000  C
  C97      1.0000 0.81350  0.16690  0.61170  Biso   1.000  C
  C98      1.0000 0.31350  0.66690  0.61170  Biso   1.000  C
  C99      1.0000 0.81350  0.83310  0.11170  Biso   1.000  C
  C100     1.0000 0.31350  0.33310  0.11170  Biso   1.000  C
  C101     1.0000 0.18650  0.83310  0.38830  Biso   1.000  C
  C102     1.0000 0.68650  0.33310  0.38830  Biso   1.000  C
  C103     1.0000 0.18650  0.16690  0.88830  Biso   1.000  C
  C104     1.0000 0.68650  0.66690  0.88830  Biso   1.000  C
  C105     1.0000 0.84980  0.13060  0.54020  Biso   1.000  C
  C106     1.0000 0.34980  0.63060  0.54020  Biso   1.000  C
  C107     1.0000 0.84980  0.86940  0.04020  Biso   1.000  C
  C108     1.0000 0.34980  0.36940  0.04020  Biso   1.000  C
  C109     1.0000 0.15020  0.86940  0.45980  Biso   1.000  C
  C110     1.0000 0.65020  0.36940  0.45980  Biso   1.000  C
  C111     1.0000 0.15020  0.13060  0.95980  Biso   1.000  C
  C112     1.0000 0.65020  0.63060  0.95980  Biso   1.000  C
  C113     1.0000 0.61400  0.95900  0.79500  Biso   1.000  C
  C114     1.0000 0.11400  0.45900  0.79500  Biso   1.000  C
  C115     1.0000 0.61400  0.04100  0.29500  Biso   1.000  C
  C116     1.0000 0.11400  0.54100  0.29500  Biso   1.000  C
  C117     1.0000 0.38600  0.04100  0.20500  Biso   1.000  C
  C118     1.0000 0.88600  0.54100  0.20500  Biso   1.000  C
  C119     1.0000 0.38600  0.95900  0.70500  Biso   1.000  C
  C120     1.0000 0.88600  0.45900  0.70500  Biso   1.000  C
  C121     1.0000 0.50800  0.91300  0.82000  Biso   1.000  C
  C122     1.0000 0.00800  0.41300  0.82000  Biso   1.000  C
  C123     1.0000 0.50800  0.08700  0.32000  Biso   1.000  C
  C124     1.0000 0.00800  0.58700  0.32000  Biso   1.000  C
  C125     1.0000 0.49200  0.08700  0.18000  Biso   1.000  C
  C126     1.0000 0.99200  0.58700  0.18000  Biso   1.000  C
  C127     1.0000 0.49200  0.91300  0.68000  Biso   1.000  C
  C128     1.0000 0.99200  0.41300  0.68000  Biso   1.000  C
  C129     1.0000 0.42500  0.90420  0.71400  Biso   1.000  C
  C130     1.0000 0.92500  0.40420  0.71400  Biso   1.000  C
  C131     1.0000 0.42500  0.09580  0.21400  Biso   1.000  C
  C132     1.0000 0.92500  0.59580  0.21400  Biso   1.000  C
  C133     1.0000 0.57500  0.09580  0.28600  Biso   1.000  C
  C134     1.0000 0.07500  0.59580  0.28600  Biso   1.000  C
  C135     1.0000 0.57500  0.90420  0.78600  Biso   1.000  C
  C136     1.0000 0.07500  0.40420  0.78600  Biso   1.000  C
  C137     1.0000 0.45500  0.95900  0.64500  Biso   1.000  C
  C138     1.0000 0.95500  0.45900  0.64500  Biso   1.000  C
  C139     1.0000 0.45500  0.04100  0.14500  Biso   1.000  C
  C140     1.0000 0.95500  0.54100  0.14500  Biso   1.000  C
  C141     1.0000 0.54500  0.04100  0.35500  Biso   1.000  C
  C142     1.0000 0.04500  0.54100  0.35500  Biso   1.000  C
  C143     1.0000 0.54500  0.95900  0.85500  Biso   1.000  C
  C144     1.0000 0.04500  0.45900  0.85500  Biso   1.000  C
  H1       1.0000 0.63090  0.89100  0.36320  Biso   1.000  H
  H2       1.0000 0.13090  0.39100  0.36320  Biso   1.000  H
  H3       1.0000 0.63090  0.10900  0.86320  Biso   1.000  H
  H4       1.0000 0.13090  0.60900  0.86320  Biso   1.000  H
  H5       1.0000 0.36910  0.10900  0.63680  Biso   1.000  H
  H6       1.0000 0.86910  0.60900  0.63680  Biso   1.000  H
  H7       1.0000 0.36910  0.89100  0.13680  Biso   1.000  H
  H8       1.0000 0.86910  0.39100  0.13680  Biso   1.000  H
  H9       1.0000 0.47270  0.81680  0.34410  Biso   1.000  H
  H10      1.0000 0.97270  0.31680  0.34410  Biso   1.000  H
  H11      1.0000 0.47270  0.18320  0.84410  Biso   1.000  H
  H12      1.0000 0.97270  0.68320  0.84410  Biso   1.000  H
  H13      1.0000 0.52730  0.18320  0.65590  Biso   1.000  H
  H14      1.0000 0.02730  0.68320  0.65590  Biso   1.000  H
  H15      1.0000 0.52730  0.81680  0.15590  Biso   1.000  H
  H16      1.0000 0.02730  0.31680  0.15590  Biso   1.000  H
  H17      1.0000 0.47520  0.74830  0.48390  Biso   1.000  H
  H18      1.0000 0.97520  0.24830  0.48390  Biso   1.000  H
  H19      1.0000 0.47520  0.25170  0.98390  Biso   1.000  H
  H20      1.0000 0.97520  0.75170  0.98390  Biso   1.000  H
  H21      1.0000 0.52480  0.25170  0.51610  Biso   1.000  H
  H22      1.0000 0.02480  0.75170  0.51610  Biso   1.000  H
  H23      1.0000 0.52480  0.74830  0.01610  Biso   1.000  H
  H24      1.0000 0.02480  0.24830  0.01610  Biso   1.000  H
  H25      1.0000 0.63930  0.74620  0.63760  Biso   1.000  H
  H26      1.0000 0.13930  0.24620  0.63760  Biso   1.000  H
  H27      1.0000 0.63930  0.25380  0.13760  Biso   1.000  H
  H28      1.0000 0.13930  0.75380  0.13760  Biso   1.000  H
  H29      1.0000 0.36070  0.25380  0.36240  Biso   1.000  H
  H30      1.0000 0.86070  0.75380  0.36240  Biso   1.000  H
  H31      1.0000 0.36070  0.74620  0.86240  Biso   1.000  H
  H32      1.0000 0.86070  0.24620  0.86240  Biso   1.000  H
  H33      1.0000 0.74860  0.03500  0.63600  Biso   1.000  H
  H34      1.0000 0.24860  0.53500  0.63600  Biso   1.000  H
  H35      1.0000 0.74860  0.96500  0.13600  Biso   1.000  H
  H36      1.0000 0.24860  0.46500  0.13600  Biso   1.000  H
  H37      1.0000 0.25140  0.96500  0.36400  Biso   1.000  H
  H38      1.0000 0.75140  0.46500  0.36400  Biso   1.000  H
  H39      1.0000 0.25140  0.03500  0.86400  Biso   1.000  H
  H40      1.0000 0.75140  0.53500  0.86400  Biso   1.000  H
  H41      1.0000 0.87930  0.03310  0.71760  Biso   1.000  H
  H42      1.0000 0.37930  0.53310  0.71760  Biso   1.000  H
  H43      1.0000 0.87930  0.96690  0.21760  Biso   1.000  H
  H44      1.0000 0.37930  0.46690  0.21760  Biso   1.000  H
  H45      1.0000 0.12070  0.96690  0.28240  Biso   1.000  H
  H46      1.0000 0.62070  0.46690  0.28240  Biso   1.000  H
  H47      1.0000 0.12070  0.03310  0.78240  Biso   1.000  H
  H48      1.0000 0.62070  0.53310  0.78240  Biso   1.000  H
  H49      1.0000 0.72120  0.12470  0.71350  Biso   1.000  H
  H50      1.0000 0.22120  0.62470  0.71350  Biso   1.000  H
  H51      1.0000 0.72120  0.87530  0.21350  Biso   1.000  H
  H52      1.0000 0.22120  0.37530  0.21350  Biso   1.000  H
  H53      1.0000 0.27880  0.87530  0.28650  Biso   1.000  H
  H54      1.0000 0.77880  0.37530  0.28650  Biso   1.000  H
  H55      1.0000 0.27880  0.12470  0.78650  Biso   1.000  H
  H56      1.0000 0.77880  0.62470  0.78650  Biso   1.000  H
  H57      1.0000 0.86230  0.13130  0.76980  Biso   1.000  H
  H58      1.0000 0.36230  0.63130  0.76980  Biso   1.000  H
  H59      1.0000 0.86230  0.86870  0.26980  Biso   1.000  H
  H60      1.0000 0.36230  0.36870  0.26980  Biso   1.000  H
  H61      1.0000 0.13770  0.86870  0.23020  Biso   1.000  H
  H62      1.0000 0.63770  0.36870  0.23020  Biso   1.000  H
  H63      1.0000 0.13770  0.13130  0.73020  Biso   1.000  H
  H64      1.0000 0.63770  0.63130  0.73020  Biso   1.000  H
  H65      1.0000 0.88000  0.20030  0.64690  Biso   1.000  H
  H66      1.0000 0.38000  0.70030  0.64690  Biso   1.000  H
  H67      1.0000 0.88000  0.79970  0.14690  Biso   1.000  H
  H68      1.0000 0.38000  0.29970  0.14690  Biso   1.000  H
  H69      1.0000 0.12000  0.79970  0.35310  Biso   1.000  H
  H70      1.0000 0.62000  0.29970  0.35310  Biso   1.000  H
  H71      1.0000 0.12000  0.20030  0.85310  Biso   1.000  H
  H72      1.0000 0.62000  0.70030  0.85310  Biso   1.000  H
  H73      1.0000 0.73910  0.19350  0.59020  Biso   1.000  H
  H74      1.0000 0.23910  0.69350  0.59020  Biso   1.000  H
  H75      1.0000 0.73910  0.80650  0.09020  Biso   1.000  H
  H76      1.0000 0.23910  0.30650  0.09020  Biso   1.000  H
  H77      1.0000 0.26090  0.80650  0.40980  Biso   1.000  H
  H78      1.0000 0.76090  0.30650  0.40980  Biso   1.000  H
  H79      1.0000 0.26090  0.19350  0.90980  Biso   1.000  H
  H80      1.0000 0.76090  0.69350  0.90980  Biso   1.000  H
  H81      1.0000 0.90930  0.15210  0.51060  Biso   1.000  H
  H82      1.0000 0.40930  0.65210  0.51060  Biso   1.000  H
  H83      1.0000 0.90930  0.84790  0.01060  Biso   1.000  H
  H84      1.0000 0.40930  0.34790  0.01060  Biso   1.000  H
  H85      1.0000 0.09070  0.84790  0.48940  Biso   1.000  H
  H86      1.0000 0.59070  0.34790  0.48940  Biso   1.000  H
  H87      1.0000 0.09070  0.15210  0.98940  Biso   1.000  H
  H88      1.0000 0.59070  0.65210  0.98940  Biso   1.000  H
  H89      1.0000 0.77220  0.12910  0.47360  Biso   1.000  H
  H90      1.0000 0.27220  0.62910  0.47360  Biso   1.000  H
  H91      1.0000 0.77220  0.87090  0.97360  Biso   1.000  H
  H92      1.0000 0.27220  0.37090  0.97360  Biso   1.000  H
  H93      1.0000 0.22780  0.87090  0.52640  Biso   1.000  H
  H94      1.0000 0.72780  0.37090  0.52640  Biso   1.000  H
  H95      1.0000 0.22780  0.12910  0.02640  Biso   1.000  H
  H96      1.0000 0.72780  0.62910  0.02640  Biso   1.000  H
