data_image0
_cell_length_a       16.402
_cell_length_b       22.618
_cell_length_c       19.711
_cell_angle_alpha    90
_cell_angle_beta     94.438
_cell_angle_gamma    90

_symmetry_space_group_name_H-M    "P 1"
_symmetry_int_tables_number       1

loop_
  _symmetry_equiv_pos_as_xyz
  'x, y, z'

loop_
  _atom_site_label
  _atom_site_occupancy
  _atom_site_fract_x
  _atom_site_fract_y
  _atom_site_fract_z
  _atom_site_thermal_displace_type
  _atom_site_B_iso_or_equiv
  _atom_site_type_symbol
  Cu1      1.0000 0.36033  0.23343  0.88816  Biso   1.000  Cu
  Cu2      1.0000 0.63967  0.73343  0.61184  Biso   1.000  Cu
  Cu3      1.0000 0.63967  0.76657  0.11184  Biso   1.000  Cu
  Cu4      1.0000 0.36033  0.26657  0.38816  Biso   1.000  Cu
  Cu5      1.0000 0.50000  0.50000  0.50000  Biso   1.000  Cu
  Cu6      1.0000 0.50000  0.00000  0.00000  Biso   1.000  Cu
  F1       1.0000 0.15299  0.31660  0.05923  Biso   1.000  F
  F2       1.0000 0.84701  0.81660  0.44077  Biso   1.000  F
  F3       1.0000 0.84701  0.68340  0.94077  Biso   1.000  F
  F4       1.0000 0.15299  0.18340  0.55923  Biso   1.000  F
  F5       1.0000 0.18256  0.37259  0.97750  Biso   1.000  F
  F6       1.0000 0.81744  0.87259  0.52250  Biso   1.000  F
  F7       1.0000 0.81744  0.62741  0.02250  Biso   1.000  F
  F8       1.0000 0.18256  0.12741  0.47750  Biso   1.000  F
  F9       1.0000 0.27497  0.34993  0.05588  Biso   1.000  F
  F10      1.0000 0.72503  0.84993  0.44412  Biso   1.000  F
  F11      1.0000 0.72503  0.65007  0.94412  Biso   1.000  F
  F12      1.0000 0.27497  0.15007  0.55588  Biso   1.000  F
  F13      1.0000 0.15698  0.08861  0.97098  Biso   1.000  F
  F14      1.0000 0.84302  0.58861  0.52902  Biso   1.000  F
  F15      1.0000 0.84302  0.91139  0.02902  Biso   1.000  F
  F16      1.0000 0.15698  0.41139  0.47098  Biso   1.000  F
  F17      1.0000 0.12230  0.10395  0.86532  Biso   1.000  F
  F18      1.0000 0.87770  0.60395  0.63468  Biso   1.000  F
  F19      1.0000 0.87770  0.89605  0.13468  Biso   1.000  F
  F20      1.0000 0.12230  0.39605  0.36532  Biso   1.000  F
  F21      1.0000 0.05865  0.14854  0.94174  Biso   1.000  F
  F22      1.0000 0.94135  0.64854  0.55826  Biso   1.000  F
  F23      1.0000 0.94135  0.85146  0.05826  Biso   1.000  F
  F24      1.0000 0.05865  0.35146  0.44174  Biso   1.000  F
  F25      1.0000 0.27011  0.30555  0.68116  Biso   1.000  F
  F26      1.0000 0.72989  0.80555  0.81884  Biso   1.000  F
  F27      1.0000 0.72989  0.69445  0.31884  Biso   1.000  F
  F28      1.0000 0.27011  0.19445  0.18116  Biso   1.000  F
  F29      1.0000 0.23330  0.37775  0.74193  Biso   1.000  F
  F30      1.0000 0.76670  0.87775  0.75807  Biso   1.000  F
  F31      1.0000 0.76670  0.62225  0.25807  Biso   1.000  F
  F32      1.0000 0.23330  0.12225  0.24193  Biso   1.000  F
  F33      1.0000 0.33926  0.38576  0.68461  Biso   1.000  F
  F34      1.0000 0.66074  0.88576  0.81539  Biso   1.000  F
  F35      1.0000 0.66074  0.61424  0.31539  Biso   1.000  F
  F36      1.0000 0.33926  0.11424  0.18461  Biso   1.000  F
  F37      1.0000 0.55730  0.42115  0.83461  Biso   1.000  F
  F38      1.0000 0.44270  0.92115  0.66539  Biso   1.000  F
  F39      1.0000 0.44270  0.57885  0.16539  Biso   1.000  F
  F40      1.0000 0.55730  0.07885  0.33461  Biso   1.000  F
  F41      1.0000 0.52240  0.41991  0.93538  Biso   1.000  F
  F42      1.0000 0.47760  0.91991  0.56462  Biso   1.000  F
  F43      1.0000 0.47760  0.58009  0.06462  Biso   1.000  F
  F44      1.0000 0.52240  0.08009  0.43538  Biso   1.000  F
  F45      1.0000 0.60730  0.35811  0.90530  Biso   1.000  F
  F46      1.0000 0.39270  0.85811  0.59470  Biso   1.000  F
  F47      1.0000 0.39270  0.64189  0.09470  Biso   1.000  F
  F48      1.0000 0.60730  0.14189  0.40530  Biso   1.000  F
  F49      1.0000 0.73811  0.40435  0.58046  Biso   1.000  F
  F50      1.0000 0.26189  0.90435  0.91954  Biso   1.000  F
  F51      1.0000 0.26189  0.59565  0.41954  Biso   1.000  F
  F52      1.0000 0.73811  0.09565  0.08046  Biso   1.000  F
  F53      1.0000 0.75890  0.49554  0.60720  Biso   1.000  F
  F54      1.0000 0.24110  0.99554  0.89280  Biso   1.000  F
  F55      1.0000 0.24110  0.50446  0.39280  Biso   1.000  F
  F56      1.0000 0.75890  0.00446  0.10720  Biso   1.000  F
  F57      1.0000 0.81571  0.45845  0.52252  Biso   1.000  F
  F58      1.0000 0.18429  0.95845  0.97748  Biso   1.000  F
  F59      1.0000 0.18429  0.54155  0.47748  Biso   1.000  F
  F60      1.0000 0.81571  0.04155  0.02252  Biso   1.000  F
  F61      1.0000 0.59317  0.41540  0.30048  Biso   1.000  F
  F62      1.0000 0.40683  0.91540  0.19952  Biso   1.000  F
  F63      1.0000 0.40683  0.58460  0.69952  Biso   1.000  F
  F64      1.0000 0.59317  0.08460  0.80048  Biso   1.000  F
  F65      1.0000 0.68840  0.48121  0.30035  Biso   1.000  F
  F66      1.0000 0.31160  0.98121  0.19965  Biso   1.000  F
  F67      1.0000 0.31160  0.51879  0.69965  Biso   1.000  F
  F68      1.0000 0.68840  0.01879  0.80035  Biso   1.000  F
  F69      1.0000 0.56147  0.50646  0.28183  Biso   1.000  F
  F70      1.0000 0.43853  0.00646  0.21817  Biso   1.000  F
  F71      1.0000 0.43853  0.49354  0.71817  Biso   1.000  F
  F72      1.0000 0.56147  0.99354  0.78183  Biso   1.000  F
  O1       1.0000 0.30037  0.28683  0.94645  Biso   1.000  O
  O2       1.0000 0.69963  0.78683  0.55355  Biso   1.000  O
  O3       1.0000 0.69963  0.71317  0.05355  Biso   1.000  O
  O4       1.0000 0.30037  0.21317  0.44645  Biso   1.000  O
  O5       1.0000 0.25030  0.17299  0.88773  Biso   1.000  O
  O6       1.0000 0.74970  0.67299  0.61227  Biso   1.000  O
  O7       1.0000 0.74970  0.82701  0.11227  Biso   1.000  O
  O8       1.0000 0.25030  0.32701  0.38773  Biso   1.000  O
  O9       1.0000 0.32207  0.27625  0.80606  Biso   1.000  O
  O10      1.0000 0.67793  0.77625  0.69394  Biso   1.000  O
  O11      1.0000 0.67793  0.72375  0.19394  Biso   1.000  O
  O12      1.0000 0.32207  0.22375  0.30606  Biso   1.000  O
  O13      1.0000 0.46610  0.29950  0.90324  Biso   1.000  O
  O14      1.0000 0.53390  0.79950  0.59676  Biso   1.000  O
  O15      1.0000 0.53390  0.70050  0.09676  Biso   1.000  O
  O16      1.0000 0.46610  0.20050  0.40324  Biso   1.000  O
  O17      1.0000 0.60926  0.48116  0.54220  Biso   1.000  O
  O18      1.0000 0.39074  0.98116  0.95780  Biso   1.000  O
  O19      1.0000 0.39074  0.51884  0.45780  Biso   1.000  O
  O20      1.0000 0.60926  0.01884  0.04220  Biso   1.000  O
  O21      1.0000 0.53172  0.48273  0.40900  Biso   1.000  O
  O22      1.0000 0.46828  0.98273  0.09100  Biso   1.000  O
  O23      1.0000 0.46828  0.51727  0.59100  Biso   1.000  O
  O24      1.0000 0.53172  0.01727  0.90900  Biso   1.000  O
  O25      1.0000 0.42015  0.17537  0.83716  Biso   1.000  O
  O26      1.0000 0.57985  0.67537  0.66284  Biso   1.000  O
  O27      1.0000 0.57985  0.82463  0.16284  Biso   1.000  O
  O28      1.0000 0.42015  0.32463  0.33716  Biso   1.000  O
  N1       1.0000 0.41017  0.31041  0.47119  Biso   1.000  N
  N2       1.0000 0.58983  0.81041  0.02881  Biso   1.000  N
  N3       1.0000 0.58983  0.68959  0.52881  Biso   1.000  N
  N4       1.0000 0.41017  0.18959  0.97119  Biso   1.000  N
  N5       1.0000 0.46081  0.40040  0.51899  Biso   1.000  N
  N6       1.0000 0.53919  0.90040  0.98101  Biso   1.000  N
  N7       1.0000 0.53919  0.59960  0.48101  Biso   1.000  N
  N8       1.0000 0.46081  0.09960  0.01899  Biso   1.000  N
  N9       1.0000 0.41619  0.17324  0.77113  Biso   1.000  N
  N10      1.0000 0.58381  0.67324  0.72887  Biso   1.000  N
  N11      1.0000 0.58381  0.82676  0.22887  Biso   1.000  N
  N12      1.0000 0.41619  0.32676  0.27113  Biso   1.000  N
  C1       1.0000 0.21070  0.32873  0.01770  Biso   1.000  C
  C2       1.0000 0.78930  0.82873  0.48230  Biso   1.000  C
  C3       1.0000 0.78930  0.67127  0.98230  Biso   1.000  C
  C4       1.0000 0.21070  0.17127  0.51770  Biso   1.000  C
  C5       1.0000 0.23590  0.27637  0.97504  Biso   1.000  C
  C6       1.0000 0.76410  0.77637  0.52496  Biso   1.000  C
  C7       1.0000 0.76410  0.72363  0.02496  Biso   1.000  C
  C8       1.0000 0.23590  0.22363  0.47504  Biso   1.000  C
  C9       1.0000 0.18450  0.22755  0.97129  Biso   1.000  C
  C10      1.0000 0.81550  0.72755  0.52871  Biso   1.000  C
  C11      1.0000 0.81550  0.77245  0.02871  Biso   1.000  C
  C12      1.0000 0.18450  0.27245  0.47129  Biso   1.000  C
  H1       1.0000 0.14050  0.22610  0.99990  Biso   1.000  H
  H2       1.0000 0.85950  0.72610  0.50010  Biso   1.000  H
  H3       1.0000 0.85950  0.77390  0.00010  Biso   1.000  H
  H4       1.0000 0.14050  0.27390  0.49990  Biso   1.000  H
  C13      1.0000 0.19540  0.17989  0.92629  Biso   1.000  C
  C14      1.0000 0.80460  0.67989  0.57371  Biso   1.000  C
  C15      1.0000 0.80460  0.82011  0.07371  Biso   1.000  C
  C16      1.0000 0.19540  0.32011  0.42629  Biso   1.000  C
  C17      1.0000 0.13200  0.13031  0.92560  Biso   1.000  C
  C18      1.0000 0.86800  0.63031  0.57440  Biso   1.000  C
  C19      1.0000 0.86800  0.86969  0.07440  Biso   1.000  C
  C20      1.0000 0.13200  0.36969  0.42560  Biso   1.000  C
  C21      1.0000 0.29850  0.34899  0.72250  Biso   1.000  C
  C22      1.0000 0.70150  0.84899  0.77750  Biso   1.000  C
  C23      1.0000 0.70150  0.65101  0.27750  Biso   1.000  C
  C24      1.0000 0.29850  0.15101  0.22250  Biso   1.000  C
  C25      1.0000 0.35000  0.32443  0.78495  Biso   1.000  C
  C26      1.0000 0.65000  0.82443  0.71505  Biso   1.000  C
  C27      1.0000 0.65000  0.67557  0.21505  Biso   1.000  C
  C28      1.0000 0.35000  0.17557  0.28495  Biso   1.000  C
  C29      1.0000 0.41590  0.35815  0.80818  Biso   1.000  C
  C30      1.0000 0.58410  0.85815  0.69182  Biso   1.000  C
  C31      1.0000 0.58410  0.64185  0.19182  Biso   1.000  C
  C32      1.0000 0.41590  0.14185  0.30818  Biso   1.000  C
  H5       1.0000 0.42670  0.39350  0.78440  Biso   1.000  H
  H6       1.0000 0.57330  0.89350  0.71560  Biso   1.000  H
  H7       1.0000 0.57330  0.60650  0.21560  Biso   1.000  H
  H8       1.0000 0.42670  0.10650  0.28440  Biso   1.000  H
  C33      1.0000 0.46940  0.34283  0.86640  Biso   1.000  C
  C34      1.0000 0.53060  0.84283  0.63360  Biso   1.000  C
  C35      1.0000 0.53060  0.65717  0.13360  Biso   1.000  C
  C36      1.0000 0.46940  0.15717  0.36640  Biso   1.000  C
  C37      1.0000 0.54030  0.38580  0.88480  Biso   1.000  C
  C38      1.0000 0.45970  0.88580  0.61520  Biso   1.000  C
  C39      1.0000 0.45970  0.61420  0.11520  Biso   1.000  C
  C40      1.0000 0.54030  0.11420  0.38480  Biso   1.000  C
  C41      1.0000 0.74760  0.45871  0.55510  Biso   1.000  C
  C42      1.0000 0.25240  0.95871  0.94490  Biso   1.000  C
  C43      1.0000 0.25240  0.54129  0.44490  Biso   1.000  C
  C44      1.0000 0.74760  0.04129  0.05510  Biso   1.000  C
  C45      1.0000 0.67120  0.47514  0.50920  Biso   1.000  C
  C46      1.0000 0.32880  0.97514  0.99080  Biso   1.000  C
  C47      1.0000 0.32880  0.52486  0.49080  Biso   1.000  C
  C48      1.0000 0.67120  0.02486  0.00920  Biso   1.000  C
  C49      1.0000 0.67530  0.47779  0.43867  Biso   1.000  C
  C50      1.0000 0.32470  0.97779  0.06133  Biso   1.000  C
  C51      1.0000 0.32470  0.52221  0.56133  Biso   1.000  C
  C52      1.0000 0.67530  0.02221  0.93867  Biso   1.000  C
  H9       1.0000 0.72740  0.47850  0.42060  Biso   1.000  H
  H10      1.0000 0.27260  0.97850  0.07940  Biso   1.000  H
  H11      1.0000 0.27260  0.52150  0.57940  Biso   1.000  H
  H12      1.0000 0.72740  0.02150  0.92060  Biso   1.000  H
  C53      1.0000 0.60540  0.47938  0.39454  Biso   1.000  C
  C54      1.0000 0.39460  0.97938  0.10546  Biso   1.000  C
  C55      1.0000 0.39460  0.52062  0.60546  Biso   1.000  C
  C56      1.0000 0.60540  0.02062  0.89454  Biso   1.000  C
  C57      1.0000 0.61350  0.47114  0.31830  Biso   1.000  C
  C58      1.0000 0.38650  0.97114  0.18170  Biso   1.000  C
  C59      1.0000 0.38650  0.52886  0.68170  Biso   1.000  C
  C60      1.0000 0.61350  0.02886  0.81830  Biso   1.000  C
  C61      1.0000 0.43350  0.28209  0.52899  Biso   1.000  C
  C62      1.0000 0.56650  0.78209  0.97101  Biso   1.000  C
  C63      1.0000 0.56650  0.71791  0.47101  Biso   1.000  C
  C64      1.0000 0.43350  0.21791  0.02899  Biso   1.000  C
  H13      1.0000 0.42400  0.24080  0.53190  Biso   1.000  H
  H14      1.0000 0.57600  0.74080  0.96810  Biso   1.000  H
  H15      1.0000 0.57600  0.75920  0.46810  Biso   1.000  H
  H16      1.0000 0.42400  0.25920  0.03190  Biso   1.000  H
  C65      1.0000 0.42460  0.36875  0.46898  Biso   1.000  C
  C66      1.0000 0.57540  0.86875  0.03102  Biso   1.000  C
  C67      1.0000 0.57540  0.63125  0.53102  Biso   1.000  C
  C68      1.0000 0.42460  0.13125  0.96898  Biso   1.000  C
  H17      1.0000 0.40740  0.38900  0.42810  Biso   1.000  H
  H18      1.0000 0.59260  0.88900  0.07190  Biso   1.000  H
  H19      1.0000 0.59260  0.61100  0.57190  Biso   1.000  H
  H20      1.0000 0.40740  0.11100  0.92810  Biso   1.000  H
  C69      1.0000 0.48360  0.37161  0.57699  Biso   1.000  C
  C70      1.0000 0.51640  0.87161  0.92301  Biso   1.000  C
  C71      1.0000 0.51640  0.62839  0.42301  Biso   1.000  C
  C72      1.0000 0.48360  0.12839  0.07699  Biso   1.000  C
  H21      1.0000 0.50910  0.39330  0.61400  Biso   1.000  H
  H22      1.0000 0.49090  0.89330  0.88600  Biso   1.000  H
  H23      1.0000 0.49090  0.60670  0.38600  Biso   1.000  H
  H24      1.0000 0.50910  0.10670  0.11400  Biso   1.000  H
  C73      1.0000 0.47130  0.31131  0.58487  Biso   1.000  C
  C74      1.0000 0.52870  0.81131  0.91513  Biso   1.000  C
  C75      1.0000 0.52870  0.68869  0.41513  Biso   1.000  C
  C76      1.0000 0.47130  0.18869  0.08487  Biso   1.000  C
  C77      1.0000 0.49610  0.28115  0.65044  Biso   1.000  C
  C78      1.0000 0.50390  0.78115  0.84956  Biso   1.000  C
  C79      1.0000 0.50390  0.71885  0.34956  Biso   1.000  C
  C80      1.0000 0.49610  0.21885  0.15044  Biso   1.000  C
  C81      1.0000 0.44500  0.23941  0.67630  Biso   1.000  C
  C82      1.0000 0.55500  0.73941  0.82370  Biso   1.000  C
  C83      1.0000 0.55500  0.76059  0.32370  Biso   1.000  C
  C84      1.0000 0.44500  0.26059  0.17630  Biso   1.000  C
  H25      1.0000 0.39530  0.22840  0.65150  Biso   1.000  H
  H26      1.0000 0.60470  0.72840  0.84850  Biso   1.000  H
  H27      1.0000 0.60470  0.77160  0.34850  Biso   1.000  H
  H28      1.0000 0.39530  0.27160  0.15150  Biso   1.000  H
  C85      1.0000 0.46760  0.21360  0.73971  Biso   1.000  C
  C86      1.0000 0.53240  0.71360  0.76029  Biso   1.000  C
  C87      1.0000 0.53240  0.78640  0.26029  Biso   1.000  C
  C88      1.0000 0.46760  0.28640  0.23971  Biso   1.000  C
  C89      1.0000 0.53980  0.22980  0.77579  Biso   1.000  C
  C90      1.0000 0.46020  0.72980  0.72421  Biso   1.000  C
  C91      1.0000 0.46020  0.77020  0.22421  Biso   1.000  C
  C92      1.0000 0.53980  0.27020  0.27579  Biso   1.000  C
  H29      1.0000 0.55430  0.21280  0.81910  Biso   1.000  H
  H30      1.0000 0.44570  0.71280  0.68090  Biso   1.000  H
  H31      1.0000 0.44570  0.78720  0.18090  Biso   1.000  H
  H32      1.0000 0.55430  0.28720  0.31910  Biso   1.000  H
  C93      1.0000 0.59110  0.27077  0.74877  Biso   1.000  C
  C94      1.0000 0.40890  0.77077  0.75123  Biso   1.000  C
  C95      1.0000 0.40890  0.72923  0.25123  Biso   1.000  C
  C96      1.0000 0.59110  0.22923  0.24877  Biso   1.000  C
  H33      1.0000 0.64110  0.28150  0.77320  Biso   1.000  H
  H34      1.0000 0.35890  0.78150  0.72680  Biso   1.000  H
  H35      1.0000 0.35890  0.71850  0.22680  Biso   1.000  H
  H36      1.0000 0.64110  0.21850  0.27320  Biso   1.000  H
  C97      1.0000 0.56900  0.29601  0.68608  Biso   1.000  C
  C98      1.0000 0.43100  0.79601  0.81392  Biso   1.000  C
  C99      1.0000 0.43100  0.70399  0.31392  Biso   1.000  C
  C100     1.0000 0.56900  0.20399  0.18608  Biso   1.000  C
  H37      1.0000 0.60440  0.32380  0.66740  Biso   1.000  H
  H38      1.0000 0.39560  0.82380  0.83260  Biso   1.000  H
  H39      1.0000 0.39560  0.67620  0.33260  Biso   1.000  H
  H40      1.0000 0.60440  0.17620  0.16740  Biso   1.000  H
  C101     1.0000 0.36260  0.12613  0.73631  Biso   1.000  C
  C102     1.0000 0.63740  0.62613  0.76369  Biso   1.000  C
  C103     1.0000 0.63740  0.87387  0.26369  Biso   1.000  C
  C104     1.0000 0.36260  0.37387  0.23631  Biso   1.000  C
  C105     1.0000 0.35530  0.07561  0.78732  Biso   1.000  C
  C106     1.0000 0.64470  0.57561  0.71268  Biso   1.000  C
  C107     1.0000 0.64470  0.92439  0.21268  Biso   1.000  C
  C108     1.0000 0.35530  0.42439  0.28732  Biso   1.000  C
  H41      1.0000 0.32640  0.04230  0.76460  Biso   1.000  H
  H42      1.0000 0.67360  0.54230  0.73540  Biso   1.000  H
  H43      1.0000 0.67360  0.95770  0.23540  Biso   1.000  H
  H44      1.0000 0.32640  0.45770  0.26460  Biso   1.000  H
  H45      1.0000 0.41000  0.06290  0.80490  Biso   1.000  H
  H46      1.0000 0.59000  0.56290  0.69510  Biso   1.000  H
  H47      1.0000 0.59000  0.93710  0.19510  Biso   1.000  H
  H48      1.0000 0.41000  0.43710  0.30490  Biso   1.000  H
  H49      1.0000 0.32470  0.08930  0.82510  Biso   1.000  H
  H50      1.0000 0.67530  0.58930  0.67490  Biso   1.000  H
  H51      1.0000 0.67530  0.91070  0.17490  Biso   1.000  H
  H52      1.0000 0.32470  0.41070  0.32510  Biso   1.000  H
  C109     1.0000 0.40510  0.10252  0.67513  Biso   1.000  C
  C110     1.0000 0.59490  0.60252  0.82487  Biso   1.000  C
  C111     1.0000 0.59490  0.89748  0.32487  Biso   1.000  C
  C112     1.0000 0.40510  0.39748  0.17513  Biso   1.000  C
  H53      1.0000 0.40660  0.13360  0.64060  Biso   1.000  H
  H54      1.0000 0.59340  0.63360  0.85940  Biso   1.000  H
  H55      1.0000 0.59340  0.86640  0.35940  Biso   1.000  H
  H56      1.0000 0.40660  0.36640  0.14060  Biso   1.000  H
  H57      1.0000 0.46110  0.09050  0.69000  Biso   1.000  H
  H58      1.0000 0.53890  0.59050  0.81000  Biso   1.000  H
  H59      1.0000 0.53890  0.90950  0.31000  Biso   1.000  H
  H60      1.0000 0.46110  0.40950  0.19000  Biso   1.000  H
  H61      1.0000 0.37480  0.06840  0.65570  Biso   1.000  H
  H62      1.0000 0.62520  0.56840  0.84430  Biso   1.000  H
  H63      1.0000 0.62520  0.93160  0.34430  Biso   1.000  H
  H64      1.0000 0.37480  0.43160  0.15570  Biso   1.000  H
  C113     1.0000 0.27840  0.15258  0.71710  Biso   1.000  C
  C114     1.0000 0.72160  0.65258  0.78290  Biso   1.000  C
  C115     1.0000 0.72160  0.84742  0.28290  Biso   1.000  C
  C116     1.0000 0.27840  0.34742  0.21710  Biso   1.000  C
  H65      1.0000 0.28390  0.18650  0.68680  Biso   1.000  H
  H66      1.0000 0.71610  0.68650  0.81320  Biso   1.000  H
  H67      1.0000 0.71610  0.81350  0.31320  Biso   1.000  H
  H68      1.0000 0.28390  0.31350  0.18680  Biso   1.000  H
  H69      1.0000 0.24330  0.12260  0.69380  Biso   1.000  H
  H70      1.0000 0.75670  0.62260  0.80620  Biso   1.000  H
  H71      1.0000 0.75670  0.87740  0.30620  Biso   1.000  H
  H72      1.0000 0.24330  0.37740  0.19380  Biso   1.000  H
  H73      1.0000 0.25390  0.16560  0.75840  Biso   1.000  H
  H74      1.0000 0.74610  0.66560  0.74160  Biso   1.000  H
  H75      1.0000 0.74610  0.83440  0.24160  Biso   1.000  H
  H76      1.0000 0.25390  0.33440  0.25840  Biso   1.000  H
  Cu7      1.0000 0.14010  0.77176  0.39749  Biso   1.000  Cu
  Cu8      1.0000 0.85990  0.27176  0.10251  Biso   1.000  Cu
  Cu9      1.0000 0.85990  0.22824  0.60251  Biso   1.000  Cu
  Cu10     1.0000 0.14010  0.72824  0.89749  Biso   1.000  Cu
  Cu11     1.0000 0.00000  0.50000  0.00000  Biso   1.000  Cu
  Cu12     1.0000 0.00000  0.00000  0.50000  Biso   1.000  Cu
  F73      1.0000 0.31500  0.72247  0.60728  Biso   1.000  F
  F74      1.0000 0.68500  0.22247  0.89272  Biso   1.000  F
  F75      1.0000 0.68500  0.27753  0.39272  Biso   1.000  F
  F76      1.0000 0.31500  0.77753  0.10728  Biso   1.000  F
  F77      1.0000 0.37530  0.66439  0.54177  Biso   1.000  F
  F78      1.0000 0.62470  0.16439  0.95823  Biso   1.000  F
  F79      1.0000 0.62470  0.33561  0.45823  Biso   1.000  F
  F80      1.0000 0.37530  0.83561  0.04177  Biso   1.000  F
  F81      1.0000 0.25027  0.64894  0.56062  Biso   1.000  F
  F82      1.0000 0.74973  0.14894  0.93938  Biso   1.000  F
  F83      1.0000 0.74973  0.35106  0.43938  Biso   1.000  F
  F84      1.0000 0.25027  0.85106  0.06062  Biso   1.000  F
  F85      1.0000 0.45811  0.84129  0.43305  Biso   1.000  F
  F86      1.0000 0.54189  0.34129  0.06695  Biso   1.000  F
  F87      1.0000 0.54189  0.15871  0.56695  Biso   1.000  F
  F88      1.0000 0.45811  0.65871  0.93305  Biso   1.000  F
  F89      1.0000 0.37196  0.91106  0.41330  Biso   1.000  F
  F90      1.0000 0.62804  0.41106  0.08670  Biso   1.000  F
  F91      1.0000 0.62804  0.08894  0.58670  Biso   1.000  F
  F92      1.0000 0.37196  0.58894  0.91330  Biso   1.000  F
  F93      1.0000 0.39343  0.84917  0.33525  Biso   1.000  F
  F94      1.0000 0.60657  0.34917  0.16475  Biso   1.000  F
  F95      1.0000 0.60657  0.15083  0.66475  Biso   1.000  F
  F96      1.0000 0.39343  0.65083  0.83525  Biso   1.000  F
  F97      1.0000 0.21473  0.69174  0.19455  Biso   1.000  F
  F98      1.0000 0.78527  0.19174  0.30545  Biso   1.000  F
  F99      1.0000 0.78527  0.30826  0.80545  Biso   1.000  F
  F100     1.0000 0.21473  0.80826  0.69455  Biso   1.000  F
  F101     1.0000 0.26197  0.62368  0.26258  Biso   1.000  F
  F102     1.0000 0.73803  0.12368  0.23742  Biso   1.000  F
  F103     1.0000 0.73803  0.37632  0.73742  Biso   1.000  F
  F104     1.0000 0.26197  0.87632  0.76258  Biso   1.000  F
  F105     1.0000 0.15027  0.60971  0.19946  Biso   1.000  F
  F106     1.0000 0.84973  0.10971  0.30054  Biso   1.000  F
  F107     1.0000 0.84973  0.39029  0.80054  Biso   1.000  F
  F108     1.0000 0.15027  0.89029  0.69946  Biso   1.000  F
  F109     1.0000 0.93403  0.58823  0.32610  Biso   1.000  F
  F110     1.0000 0.06597  0.08823  0.17390  Biso   1.000  F
  F111     1.0000 0.06597  0.41177  0.67390  Biso   1.000  F
  F112     1.0000 0.93403  0.91177  0.82610  Biso   1.000  F
  F113     1.0000 0.89430  0.65114  0.39661  Biso   1.000  F
  F114     1.0000 0.10570  0.15114  0.10339  Biso   1.000  F
  F115     1.0000 0.10570  0.34886  0.60339  Biso   1.000  F
  F116     1.0000 0.89430  0.84886  0.89661  Biso   1.000  F
  F117     1.0000 0.98130  0.58481  0.43003  Biso   1.000  F
  F118     1.0000 0.01870  0.08481  0.06997  Biso   1.000  F
  F119     1.0000 0.01870  0.41519  0.56997  Biso   1.000  F
  F120     1.0000 0.98130  0.91519  0.93003  Biso   1.000  F
  F121     1.0000 0.73671  0.42851  0.99208  Biso   1.000  F
  F122     1.0000 0.26329  0.92851  0.50792  Biso   1.000  F
  F123     1.0000 0.26329  0.57149  0.00792  Biso   1.000  F
  F124     1.0000 0.73671  0.07149  0.49208  Biso   1.000  F
  F125     1.0000 0.73440  0.50649  0.05410  Biso   1.000  F
  F126     1.0000 0.26560  0.00649  0.44590  Biso   1.000  F
  F127     1.0000 0.26560  0.49351  0.94590  Biso   1.000  F
  F128     1.0000 0.73440  0.99351  0.55410  Biso   1.000  F
  F129     1.0000 0.68198  0.50754  0.95145  Biso   1.000  F
  F130     1.0000 0.31802  0.00754  0.54855  Biso   1.000  F
  F131     1.0000 0.31802  0.49246  0.04855  Biso   1.000  F
  F132     1.0000 0.68198  0.99246  0.45145  Biso   1.000  F
  F133     1.0000 0.96206  0.49365  0.76558  Biso   1.000  F
  F134     1.0000 0.03794  0.99365  0.73442  Biso   1.000  F
  F135     1.0000 0.03794  0.50635  0.23442  Biso   1.000  F
  F136     1.0000 0.96206  0.00635  0.26558  Biso   1.000  F
  F137     1.0000 0.92820  0.58419  0.78253  Biso   1.000  F
  F138     1.0000 0.07180  0.08419  0.71747  Biso   1.000  F
  F139     1.0000 0.07180  0.41581  0.21747  Biso   1.000  F
  F140     1.0000 0.92820  0.91581  0.28253  Biso   1.000  F
  F141     1.0000 0.83542  0.51853  0.75974  Biso   1.000  F
  F142     1.0000 0.16458  0.01853  0.74026  Biso   1.000  F
  F143     1.0000 0.16458  0.48147  0.24026  Biso   1.000  F
  F144     1.0000 0.83542  0.98147  0.25974  Biso   1.000  F
  O29      1.0000 0.20259  0.72507  0.46920  Biso   1.000  O
  O30      1.0000 0.79741  0.22507  0.03080  Biso   1.000  O
  O31      1.0000 0.79741  0.27493  0.53080  Biso   1.000  O
  O32      1.0000 0.20259  0.77493  0.96920  Biso   1.000  O
  O33      1.0000 0.24716  0.82715  0.39420  Biso   1.000  O
  O34      1.0000 0.75284  0.32715  0.10580  Biso   1.000  O
  O35      1.0000 0.75284  0.17285  0.60580  Biso   1.000  O
  O36      1.0000 0.24716  0.67285  0.89420  Biso   1.000  O
  O37      1.0000 0.17759  0.72313  0.31974  Biso   1.000  O
  O38      1.0000 0.82241  0.22313  0.18026  Biso   1.000  O
  O39      1.0000 0.82241  0.27687  0.68026  Biso   1.000  O
  O40      1.0000 0.17759  0.77687  0.81974  Biso   1.000  O
  O41      1.0000 0.03820  0.70682  0.40203  Biso   1.000  O
  O42      1.0000 0.96180  0.20682  0.09797  Biso   1.000  O
  O43      1.0000 0.96180  0.29318  0.59797  Biso   1.000  O
  O44      1.0000 0.03820  0.79318  0.90203  Biso   1.000  O
  O45      1.0000 0.88350  0.50397  0.01474  Biso   1.000  O
  O46      1.0000 0.11650  0.00397  0.48526  Biso   1.000  O
  O47      1.0000 0.11650  0.49603  0.98526  Biso   1.000  O
  O48      1.0000 0.88350  0.99603  0.51474  Biso   1.000  O
  O49      1.0000 0.97769  0.51703  0.90023  Biso   1.000  O
  O50      1.0000 0.02231  0.01703  0.59977  Biso   1.000  O
  O51      1.0000 0.02231  0.48297  0.09977  Biso   1.000  O
  O52      1.0000 0.97769  0.98297  0.40023  Biso   1.000  O
  O53      1.0000 0.07753  0.82808  0.33728  Biso   1.000  O
  O54      1.0000 0.92247  0.32808  0.16272  Biso   1.000  O
  O55      1.0000 0.92247  0.17192  0.66272  Biso   1.000  O
  O56      1.0000 0.07753  0.67192  0.83728  Biso   1.000  O
  N13      1.0000 0.08186  0.68538  0.97694  Biso   1.000  N
  N14      1.0000 0.91814  0.18538  0.52306  Biso   1.000  N
  N15      1.0000 0.91814  0.31462  0.02306  Biso   1.000  N
  N16      1.0000 0.08186  0.81462  0.47694  Biso   1.000  N
  N17      1.0000 0.02300  0.59872  0.01898  Biso   1.000  N
  N18      1.0000 0.97700  0.09872  0.48102  Biso   1.000  N
  N19      1.0000 0.97700  0.40128  0.98102  Biso   1.000  N
  N20      1.0000 0.02300  0.90128  0.51898  Biso   1.000  N
  N21      1.0000 0.08013  0.82916  0.27149  Biso   1.000  N
  N22      1.0000 0.91987  0.32916  0.22851  Biso   1.000  N
  N23      1.0000 0.91987  0.17084  0.72851  Biso   1.000  N
  N24      1.0000 0.08013  0.67084  0.77149  Biso   1.000  N
  C117     1.0000 0.30440  0.69061  0.54990  Biso   1.000  C
  C118     1.0000 0.69560  0.19061  0.95010  Biso   1.000  C
  C119     1.0000 0.69560  0.30939  0.45010  Biso   1.000  C
  C120     1.0000 0.30440  0.80939  0.04990  Biso   1.000  C
  C121     1.0000 0.27600  0.73126  0.48956  Biso   1.000  C
  C122     1.0000 0.72400  0.23126  0.01044  Biso   1.000  C
  C123     1.0000 0.72400  0.26874  0.51044  Biso   1.000  C
  C124     1.0000 0.27600  0.76874  0.98956  Biso   1.000  C
  C125     1.0000 0.33450  0.77024  0.46955  Biso   1.000  C
  C126     1.0000 0.66550  0.27024  0.03045  Biso   1.000  C
  C127     1.0000 0.66550  0.22976  0.53045  Biso   1.000  C
  C128     1.0000 0.33450  0.72976  0.96955  Biso   1.000  C
  H77      1.0000 0.38930  0.76630  0.48840  Biso   1.000  H
  H78      1.0000 0.61070  0.26630  0.01160  Biso   1.000  H
  H79      1.0000 0.61070  0.23370  0.51160  Biso   1.000  H
  H80      1.0000 0.38930  0.73370  0.98840  Biso   1.000  H
  C129     1.0000 0.31550  0.81527  0.42248  Biso   1.000  C
  C130     1.0000 0.68450  0.31527  0.07752  Biso   1.000  C
  C131     1.0000 0.68450  0.18473  0.57752  Biso   1.000  C
  C132     1.0000 0.31550  0.68473  0.92248  Biso   1.000  C
  C133     1.0000 0.38510  0.85498  0.40200  Biso   1.000  C
  C134     1.0000 0.61490  0.35498  0.09800  Biso   1.000  C
  C135     1.0000 0.61490  0.14502  0.59800  Biso   1.000  C
  C136     1.0000 0.38510  0.64502  0.90200  Biso   1.000  C
  C137     1.0000 0.19350  0.65009  0.23800  Biso   1.000  C
  C138     1.0000 0.80650  0.15009  0.26200  Biso   1.000  C
  C139     1.0000 0.80650  0.34991  0.76200  Biso   1.000  C
  C140     1.0000 0.19350  0.84991  0.73800  Biso   1.000  C
  C141     1.0000 0.14650  0.67616  0.29540  Biso   1.000  C
  C142     1.0000 0.85350  0.17616  0.20460  Biso   1.000  C
  C143     1.0000 0.85350  0.32384  0.70460  Biso   1.000  C
  C144     1.0000 0.14650  0.82384  0.79540  Biso   1.000  C
  C145     1.0000 0.07920  0.64517  0.31200  Biso   1.000  C
  C146     1.0000 0.92080  0.14517  0.18800  Biso   1.000  C
  C147     1.0000 0.92080  0.35483  0.68800  Biso   1.000  C
  C148     1.0000 0.07920  0.85483  0.81200  Biso   1.000  C
  H81      1.0000 0.06460  0.61040  0.28700  Biso   1.000  H
  H82      1.0000 0.93540  0.11040  0.21300  Biso   1.000  H
  H83      1.0000 0.93540  0.38960  0.71300  Biso   1.000  H
  H84      1.0000 0.06460  0.88960  0.78700  Biso   1.000  H
  C149     1.0000 0.03050  0.66251  0.36450  Biso   1.000  C
  C150     1.0000 0.96950  0.16251  0.13550  Biso   1.000  C
  C151     1.0000 0.96950  0.33749  0.63550  Biso   1.000  C
  C152     1.0000 0.03050  0.83749  0.86450  Biso   1.000  C
  C153     1.0000 0.95980  0.62200  0.37940  Biso   1.000  C
  C154     1.0000 0.04020  0.12200  0.12060  Biso   1.000  C
  C155     1.0000 0.04020  0.37800  0.62060  Biso   1.000  C
  C156     1.0000 0.95980  0.87800  0.87940  Biso   1.000  C
  C157     1.0000 0.74310  0.48711  0.99170  Biso   1.000  C
  C158     1.0000 0.25690  0.98711  0.50830  Biso   1.000  C
  C159     1.0000 0.25690  0.51289  0.00830  Biso   1.000  C
  C160     1.0000 0.74310  0.01289  0.49170  Biso   1.000  C
  C161     1.0000 0.82750  0.50285  0.96849  Biso   1.000  C
  C162     1.0000 0.17250  0.00285  0.53151  Biso   1.000  C
  C163     1.0000 0.17250  0.49715  0.03151  Biso   1.000  C
  C164     1.0000 0.82750  0.99715  0.46849  Biso   1.000  C
  C165     1.0000 0.83320  0.50946  0.89806  Biso   1.000  C
  C166     1.0000 0.16680  0.00946  0.60194  Biso   1.000  C
  C167     1.0000 0.16680  0.49054  0.10194  Biso   1.000  C
  C168     1.0000 0.83320  0.99054  0.39806  Biso   1.000  C
  H85      1.0000 0.78440  0.50880  0.86870  Biso   1.000  H
  H86      1.0000 0.21560  0.00880  0.63130  Biso   1.000  H
  H87      1.0000 0.21560  0.49120  0.13130  Biso   1.000  H
  H88      1.0000 0.78440  0.99120  0.36870  Biso   1.000  H
  C169     1.0000 0.90710  0.51679  0.87032  Biso   1.000  C
  C170     1.0000 0.09290  0.01679  0.62968  Biso   1.000  C
  C171     1.0000 0.09290  0.48321  0.12968  Biso   1.000  C
  C172     1.0000 0.90710  0.98321  0.37032  Biso   1.000  C
  C173     1.0000 0.90720  0.52774  0.79330  Biso   1.000  C
  C174     1.0000 0.09280  0.02774  0.70670  Biso   1.000  C
  C175     1.0000 0.09280  0.47226  0.20670  Biso   1.000  C
  C176     1.0000 0.90720  0.97226  0.29330  Biso   1.000  C
  C177     1.0000 0.05890  0.71565  0.03094  Biso   1.000  C
  C178     1.0000 0.94110  0.21565  0.46906  Biso   1.000  C
  C179     1.0000 0.94110  0.28435  0.96906  Biso   1.000  C
  C180     1.0000 0.05890  0.78435  0.53094  Biso   1.000  C
  H89      1.0000 0.07080  0.75670  0.03430  Biso   1.000  H
  H90      1.0000 0.92920  0.25670  0.46570  Biso   1.000  H
  H91      1.0000 0.92920  0.24330  0.96570  Biso   1.000  H
  H92      1.0000 0.07080  0.74330  0.53430  Biso   1.000  H
  C181     1.0000 0.06260  0.62849  0.97351  Biso   1.000  C
  C182     1.0000 0.93740  0.12849  0.52649  Biso   1.000  C
  C183     1.0000 0.93740  0.37151  0.02649  Biso   1.000  C
  C184     1.0000 0.06260  0.87151  0.47351  Biso   1.000  C
  H93      1.0000 0.07840  0.60710  0.93520  Biso   1.000  H
  H94      1.0000 0.92160  0.10710  0.56480  Biso   1.000  H
  H95      1.0000 0.92160  0.39290  0.06480  Biso   1.000  H
  H96      1.0000 0.07840  0.89290  0.43520  Biso   1.000  H
  C185     1.0000 0.00150  0.62903  0.07331  Biso   1.000  C
  C186     1.0000 0.99850  0.12903  0.42669  Biso   1.000  C
  C187     1.0000 0.99850  0.37097  0.92669  Biso   1.000  C
  C188     1.0000 0.00150  0.87097  0.57331  Biso   1.000  C
  H97      1.0000 0.97380  0.60890  0.10700  Biso   1.000  H
  H98      1.0000 0.02620  0.10890  0.39300  Biso   1.000  H
  H99      1.0000 0.02620  0.39110  0.89300  Biso   1.000  H
  H100     1.0000 0.97380  0.89110  0.60700  Biso   1.000  H
  C189     1.0000 0.01840  0.68884  0.08201  Biso   1.000  C
  C190     1.0000 0.98160  0.18884  0.41799  Biso   1.000  C
  C191     1.0000 0.98160  0.31116  0.91799  Biso   1.000  C
  C192     1.0000 0.01840  0.81116  0.58201  Biso   1.000  C
  C193     1.0000 0.99400  0.72082  0.14325  Biso   1.000  C
  C194     1.0000 0.00600  0.22082  0.35675  Biso   1.000  C
  C195     1.0000 0.00600  0.27918  0.85675  Biso   1.000  C
  C196     1.0000 0.99400  0.77918  0.64325  Biso   1.000  C
  C197     1.0000 0.04700  0.76233  0.17478  Biso   1.000  C
  C198     1.0000 0.95300  0.26233  0.32522  Biso   1.000  C
  C199     1.0000 0.95300  0.23767  0.82522  Biso   1.000  C
  C200     1.0000 0.04700  0.73767  0.67478  Biso   1.000  C
  H101     1.0000 0.09690  0.77200  0.15600  Biso   1.000  H
  H102     1.0000 0.90310  0.27200  0.34400  Biso   1.000  H
  H103     1.0000 0.90310  0.22800  0.84400  Biso   1.000  H
  H104     1.0000 0.09690  0.72800  0.65600  Biso   1.000  H
  C201     1.0000 0.02550  0.78968  0.23477  Biso   1.000  C
  C202     1.0000 0.97450  0.28968  0.26523  Biso   1.000  C
  C203     1.0000 0.97450  0.21032  0.76523  Biso   1.000  C
  C204     1.0000 0.02550  0.71032  0.73477  Biso   1.000  C
  C205     1.0000 0.95180  0.77685  0.26139  Biso   1.000  C
  C206     1.0000 0.04820  0.27685  0.23861  Biso   1.000  C
  C207     1.0000 0.04820  0.22315  0.73861  Biso   1.000  C
  C208     1.0000 0.95180  0.72315  0.76139  Biso   1.000  C
  H105     1.0000 0.93780  0.79570  0.30200  Biso   1.000  H
  H106     1.0000 0.06220  0.29570  0.19800  Biso   1.000  H
  H107     1.0000 0.06220  0.20430  0.69800  Biso   1.000  H
  H108     1.0000 0.93780  0.70430  0.80200  Biso   1.000  H
  C209     1.0000 0.89900  0.73698  0.22912  Biso   1.000  C
  C210     1.0000 0.10100  0.23698  0.27088  Biso   1.000  C
  C211     1.0000 0.10100  0.26302  0.77088  Biso   1.000  C
  C212     1.0000 0.89900  0.76302  0.72912  Biso   1.000  C
  H109     1.0000 0.84820  0.72860  0.24700  Biso   1.000  H
  H110     1.0000 0.15180  0.22860  0.25300  Biso   1.000  H
  H111     1.0000 0.15180  0.27140  0.75300  Biso   1.000  H
  H112     1.0000 0.84820  0.77140  0.74700  Biso   1.000  H
  C213     1.0000 0.91990  0.70887  0.17038  Biso   1.000  C
  C214     1.0000 0.08010  0.20887  0.32962  Biso   1.000  C
  C215     1.0000 0.08010  0.29113  0.82962  Biso   1.000  C
  C216     1.0000 0.91990  0.79113  0.67038  Biso   1.000  C
  H113     1.0000 0.88320  0.68110  0.14840  Biso   1.000  H
  H114     1.0000 0.11680  0.18110  0.35160  Biso   1.000  H
  H115     1.0000 0.11680  0.31890  0.85160  Biso   1.000  H
  H116     1.0000 0.88320  0.81890  0.64840  Biso   1.000  H
  C217     1.0000 0.13590  0.87402  0.24145  Biso   1.000  C
  C218     1.0000 0.86410  0.37402  0.25855  Biso   1.000  C
  C219     1.0000 0.86410  0.12598  0.75855  Biso   1.000  C
  C220     1.0000 0.13590  0.62598  0.74145  Biso   1.000  C
  C221     1.0000 0.15070  0.92431  0.29330  Biso   1.000  C
  C222     1.0000 0.84930  0.42431  0.20670  Biso   1.000  C
  C223     1.0000 0.84930  0.07569  0.70670  Biso   1.000  C
  C224     1.0000 0.15070  0.57569  0.79330  Biso   1.000  C
  H117     1.0000 0.18020  0.90890  0.33470  Biso   1.000  H
  H118     1.0000 0.81980  0.40890  0.16530  Biso   1.000  H
  H119     1.0000 0.81980  0.09110  0.66530  Biso   1.000  H
  H120     1.0000 0.18020  0.59110  0.83470  Biso   1.000  H
  H121     1.0000 0.18340  0.95540  0.27380  Biso   1.000  H
  H122     1.0000 0.81660  0.45540  0.22620  Biso   1.000  H
  H123     1.0000 0.81660  0.04460  0.72620  Biso   1.000  H
  H124     1.0000 0.18340  0.54460  0.77380  Biso   1.000  H
  H125     1.0000 0.09810  0.94070  0.30450  Biso   1.000  H
  H126     1.0000 0.90190  0.44070  0.19550  Biso   1.000  H
  H127     1.0000 0.90190  0.05930  0.69550  Biso   1.000  H
  H128     1.0000 0.09810  0.55930  0.80450  Biso   1.000  H
  C225     1.0000 0.09330  0.89908  0.17593  Biso   1.000  C
  C226     1.0000 0.90670  0.39908  0.32407  Biso   1.000  C
  C227     1.0000 0.90670  0.10092  0.82407  Biso   1.000  C
  C228     1.0000 0.09330  0.60092  0.67593  Biso   1.000  C
  H129     1.0000 0.03800  0.91190  0.18450  Biso   1.000  H
  H130     1.0000 0.96200  0.41190  0.31550  Biso   1.000  H
  H131     1.0000 0.96200  0.08810  0.81550  Biso   1.000  H
  H132     1.0000 0.03800  0.58810  0.68450  Biso   1.000  H
  H133     1.0000 0.12450  0.93290  0.16070  Biso   1.000  H
  H134     1.0000 0.87550  0.43290  0.33930  Biso   1.000  H
  H135     1.0000 0.87550  0.06710  0.83930  Biso   1.000  H
  H136     1.0000 0.12450  0.56710  0.66070  Biso   1.000  H
  H137     1.0000 0.09020  0.86850  0.14060  Biso   1.000  H
  H138     1.0000 0.90980  0.36850  0.35940  Biso   1.000  H
  H139     1.0000 0.90980  0.13150  0.85940  Biso   1.000  H
  H140     1.0000 0.09020  0.63150  0.64060  Biso   1.000  H
  C229     1.0000 0.21680  0.84363  0.22890  Biso   1.000  C
  C230     1.0000 0.78320  0.34363  0.27110  Biso   1.000  C
  C231     1.0000 0.78320  0.15637  0.77110  Biso   1.000  C
  C232     1.0000 0.21680  0.65637  0.72890  Biso   1.000  C
  H141     1.0000 0.20720  0.81360  0.19340  Biso   1.000  H
  H142     1.0000 0.79280  0.31360  0.30660  Biso   1.000  H
  H143     1.0000 0.79280  0.18640  0.80660  Biso   1.000  H
  H144     1.0000 0.20720  0.68640  0.69340  Biso   1.000  H
  H145     1.0000 0.25560  0.87310  0.21440  Biso   1.000  H
  H146     1.0000 0.74440  0.37310  0.28560  Biso   1.000  H
  H147     1.0000 0.74440  0.12690  0.78560  Biso   1.000  H
  H148     1.0000 0.25560  0.62690  0.71440  Biso   1.000  H
  H149     1.0000 0.23930  0.82480  0.27110  Biso   1.000  H
  H150     1.0000 0.76070  0.32480  0.22890  Biso   1.000  H
  H151     1.0000 0.76070  0.17520  0.72890  Biso   1.000  H
  H152     1.0000 0.23930  0.67520  0.77110  Biso   1.000  H
