data_image0
_cell_length_a       15.1227
_cell_length_b       12.0542
_cell_length_c       20.8771
_cell_angle_alpha    90
_cell_angle_beta     93.1804
_cell_angle_gamma    90

_symmetry_space_group_name_H-M    "P 1"
_symmetry_int_tables_number       1

loop_
  _symmetry_equiv_pos_as_xyz
  'x, y, z'

loop_
  _atom_site_label
  _atom_site_occupancy
  _atom_site_fract_x
  _atom_site_fract_y
  _atom_site_fract_z
  _atom_site_thermal_displace_type
  _atom_site_B_iso_or_equiv
  _atom_site_type_symbol
  Cu1      1.0000 0.11360  0.48887  0.29060  Biso   1.000  Cu
  Cu2      1.0000 0.38640  0.98887  0.20940  Biso   1.000  Cu
  Cu3      1.0000 0.88640  0.51113  0.70940  Biso   1.000  Cu
  Cu4      1.0000 0.61360  0.01113  0.79060  Biso   1.000  Cu
  Cu5      1.0000 0.50000  0.00000  0.50000  Biso   1.000  Cu
  Cu6      1.0000 0.00000  0.50000  0.00000  Biso   1.000  Cu
  O1       1.0000 0.24464  0.58510  0.29376  Biso   1.000  O
  O2       1.0000 0.25536  0.08510  0.20624  Biso   1.000  O
  O3       1.0000 0.75536  0.41490  0.70624  Biso   1.000  O
  O4       1.0000 0.74464  0.91490  0.79376  Biso   1.000  O
  O5       1.0000 0.10629  0.53190  0.38075  Biso   1.000  O
  O6       1.0000 0.39371  0.03190  0.11925  Biso   1.000  O
  O7       1.0000 0.89371  0.46810  0.61925  Biso   1.000  O
  O8       1.0000 0.60629  0.96810  0.88075  Biso   1.000  O
  O9       1.0000 0.18864  0.36140  0.32053  Biso   1.000  O
  O10      1.0000 0.31136  0.86140  0.17947  Biso   1.000  O
  O11      1.0000 0.81136  0.63860  0.67947  Biso   1.000  O
  O12      1.0000 0.68864  0.13860  0.82053  Biso   1.000  O
  O13      1.0000 0.00070  0.36820  0.29539  Biso   1.000  O
  O14      1.0000 0.49930  0.86820  0.20461  Biso   1.000  O
  O15      1.0000 0.99930  0.63180  0.70461  Biso   1.000  O
  O16      1.0000 0.50070  0.13180  0.79539  Biso   1.000  O
  O17      1.0000 0.53280  0.13200  0.45320  Biso   1.000  O
  O18      1.0000 0.96720  0.63200  0.04680  Biso   1.000  O
  O19      1.0000 0.46720  0.86800  0.54680  Biso   1.000  O
  O20      1.0000 0.03280  0.36800  0.95320  Biso   1.000  O
  O21      1.0000 0.41150  0.07960  0.54593  Biso   1.000  O
  O22      1.0000 0.08850  0.57960  0.95407  Biso   1.000  O
  O23      1.0000 0.58850  0.92040  0.45407  Biso   1.000  O
  O24      1.0000 0.91150  0.42040  0.04593  Biso   1.000  O
  O25      1.0000 0.04515  0.61810  0.25884  Biso   1.000  O
  O26      1.0000 0.45485  0.11810  0.24116  Biso   1.000  O
  O27      1.0000 0.95485  0.38190  0.74116  Biso   1.000  O
  O28      1.0000 0.54515  0.88190  0.75884  Biso   1.000  O
  N1       1.0000 0.35780  0.95270  0.30113  Biso   1.000  N
  N2       1.0000 0.14220  0.45270  0.19887  Biso   1.000  N
  N3       1.0000 0.64220  0.04730  0.69887  Biso   1.000  N
  N4       1.0000 0.85780  0.54730  0.80113  Biso   1.000  N
  N5       1.0000 0.99100  0.66980  0.29415  Biso   1.000  N
  N6       1.0000 0.50900  0.16980  0.20585  Biso   1.000  N
  N7       1.0000 0.00900  0.33020  0.70585  Biso   1.000  N
  N8       1.0000 0.49100  0.83020  0.79415  Biso   1.000  N
  N9       1.0000 0.39120  0.94480  0.41302  Biso   1.000  N
  N10      1.0000 0.10880  0.44480  0.08698  Biso   1.000  N
  N11      1.0000 0.60880  0.05520  0.58698  Biso   1.000  N
  N12      1.0000 0.89120  0.55520  0.91302  Biso   1.000  N
  C1       1.0000 0.38790  0.60390  0.33790  Biso   1.000  C
  C2       1.0000 0.11210  0.10390  0.16210  Biso   1.000  C
  C3       1.0000 0.61210  0.39610  0.66210  Biso   1.000  C
  C4       1.0000 0.88790  0.89610  0.83790  Biso   1.000  C
  C5       1.0000 0.28810  0.58640  0.34510  Biso   1.000  C
  C6       1.0000 0.21190  0.08640  0.15490  Biso   1.000  C
  C7       1.0000 0.71190  0.41360  0.65490  Biso   1.000  C
  C8       1.0000 0.78810  0.91360  0.84510  Biso   1.000  C
  C9       1.0000 0.25870  0.57330  0.40720  Biso   1.000  C
  C10      1.0000 0.24130  0.07330  0.09280  Biso   1.000  C
  C11      1.0000 0.74130  0.42670  0.59280  Biso   1.000  C
  C12      1.0000 0.75870  0.92670  0.90720  Biso   1.000  C
  H1       1.0000 0.29950  0.58210  0.44190  Biso   1.000  H
  H2       1.0000 0.20050  0.08210  0.05810  Biso   1.000  H
  H3       1.0000 0.70050  0.41790  0.55810  Biso   1.000  H
  H4       1.0000 0.79950  0.91790  0.94190  Biso   1.000  H
  C13      1.0000 0.17240  0.54800  0.41949  Biso   1.000  C
  C14      1.0000 0.32760  0.04800  0.08051  Biso   1.000  C
  C15      1.0000 0.82760  0.45200  0.58051  Biso   1.000  C
  C16      1.0000 0.67240  0.95200  0.91949  Biso   1.000  C
  C17      1.0000 0.14940  0.53270  0.48920  Biso   1.000  C
  C18      1.0000 0.35060  0.03270  0.01080  Biso   1.000  C
  C19      1.0000 0.85060  0.46730  0.51080  Biso   1.000  C
  C20      1.0000 0.64940  0.96730  0.98920  Biso   1.000  C
  C21      1.0000 0.24290  0.22510  0.38860  Biso   1.000  C
  C22      1.0000 0.25710  0.72510  0.11140  Biso   1.000  C
  C23      1.0000 0.75710  0.77490  0.61140  Biso   1.000  C
  C24      1.0000 0.74290  0.27490  0.88860  Biso   1.000  C
  C25      1.0000 0.16460  0.27950  0.35250  Biso   1.000  C
  C26      1.0000 0.33540  0.77950  0.14750  Biso   1.000  C
  C27      1.0000 0.83540  0.72050  0.64750  Biso   1.000  C
  C28      1.0000 0.66460  0.22050  0.85250  Biso   1.000  C
  C29      1.0000 0.08210  0.23660  0.35800  Biso   1.000  C
  C30      1.0000 0.41790  0.73660  0.14200  Biso   1.000  C
  C31      1.0000 0.91790  0.76340  0.64200  Biso   1.000  C
  C32      1.0000 0.58210  0.26340  0.85800  Biso   1.000  C
  H5       1.0000 0.07600  0.17340  0.38290  Biso   1.000  H
  H6       1.0000 0.42400  0.67340  0.11710  Biso   1.000  H
  H7       1.0000 0.92400  0.82660  0.61710  Biso   1.000  H
  H8       1.0000 0.57600  0.32660  0.88290  Biso   1.000  H
  C33      1.0000 0.00620  0.28300  0.32790  Biso   1.000  C
  C34      1.0000 0.49380  0.78300  0.17210  Biso   1.000  C
  C35      1.0000 0.99380  0.71700  0.67210  Biso   1.000  C
  C36      1.0000 0.50620  0.21700  0.82790  Biso   1.000  C
  C37      1.0000 0.92070  0.22040  0.33390  Biso   1.000  C
  C38      1.0000 0.57930  0.72040  0.16610  Biso   1.000  C
  C39      1.0000 0.07930  0.77960  0.66610  Biso   1.000  C
  C40      1.0000 0.42070  0.27960  0.83390  Biso   1.000  C
  C41      1.0000 0.55860  0.31740  0.42960  Biso   1.000  C
  C42      1.0000 0.94140  0.81740  0.07040  Biso   1.000  C
  C43      1.0000 0.44140  0.68260  0.57040  Biso   1.000  C
  C44      1.0000 0.05860  0.18260  0.92960  Biso   1.000  C
  C45      1.0000 0.51060  0.22850  0.46770  Biso   1.000  C
  C46      1.0000 0.98940  0.72850  0.03230  Biso   1.000  C
  C47      1.0000 0.48940  0.77150  0.53230  Biso   1.000  C
  C48      1.0000 0.01060  0.27150  0.96770  Biso   1.000  C
  C49      1.0000 0.45210  0.25950  0.51270  Biso   1.000  C
  C50      1.0000 0.04790  0.75950  0.98730  Biso   1.000  C
  C51      1.0000 0.54790  0.74050  0.48730  Biso   1.000  C
  C52      1.0000 0.95210  0.24050  0.01270  Biso   1.000  C
  H9       1.0000 0.44320  0.33460  0.52000  Biso   1.000  H
  H10      1.0000 0.05680  0.83460  0.98000  Biso   1.000  H
  H11      1.0000 0.55680  0.66540  0.48000  Biso   1.000  H
  H12      1.0000 0.94320  0.16540  0.02000  Biso   1.000  H
  C53      1.0000 0.40650  0.18410  0.54720  Biso   1.000  C
  C54      1.0000 0.09350  0.68410  0.95280  Biso   1.000  C
  C55      1.0000 0.59350  0.81590  0.45280  Biso   1.000  C
  C56      1.0000 0.90650  0.31590  0.04720  Biso   1.000  C
  C57      1.0000 0.34120  0.22520  0.59430  Biso   1.000  C
  C58      1.0000 0.15880  0.72520  0.90570  Biso   1.000  C
  C59      1.0000 0.65880  0.77480  0.40570  Biso   1.000  C
  C60      1.0000 0.84120  0.27480  0.09430  Biso   1.000  C
  C61      1.0000 0.27640  0.91480  0.31063  Biso   1.000  C
  C62      1.0000 0.22360  0.41480  0.18937  Biso   1.000  C
  C63      1.0000 0.72360  0.08520  0.68937  Biso   1.000  C
  C64      1.0000 0.77640  0.58520  0.81063  Biso   1.000  C
  H13      1.0000 0.23710  0.90520  0.27520  Biso   1.000  H
  H14      1.0000 0.26290  0.40520  0.22480  Biso   1.000  H
  H15      1.0000 0.76290  0.09480  0.72480  Biso   1.000  H
  H16      1.0000 0.73710  0.59480  0.77520  Biso   1.000  H
  C65      1.0000 0.41190  0.96690  0.35335  Biso   1.000  C
  C66      1.0000 0.08810  0.46690  0.14665  Biso   1.000  C
  C67      1.0000 0.58810  0.03310  0.64665  Biso   1.000  C
  C68      1.0000 0.91190  0.53310  0.85335  Biso   1.000  C
  H17      1.0000 0.46830  0.99440  0.34740  Biso   1.000  H
  H18      1.0000 0.03170  0.49440  0.15260  Biso   1.000  H
  H19      1.0000 0.53170  0.00560  0.65260  Biso   1.000  H
  H20      1.0000 0.96830  0.50560  0.84740  Biso   1.000  H
  C69      1.0000 0.31050  0.90560  0.42097  Biso   1.000  C
  C70      1.0000 0.18950  0.40560  0.07903  Biso   1.000  C
  C71      1.0000 0.68950  0.09440  0.57903  Biso   1.000  C
  C72      1.0000 0.81050  0.59440  0.92097  Biso   1.000  C
  H21      1.0000 0.29520  0.88810  0.46230  Biso   1.000  H
  H22      1.0000 0.20480  0.38810  0.03770  Biso   1.000  H
  H23      1.0000 0.70480  0.11190  0.53770  Biso   1.000  H
  H24      1.0000 0.79520  0.61190  0.96230  Biso   1.000  H
  C73      1.0000 0.24800  0.88950  0.37076  Biso   1.000  C
  C74      1.0000 0.25200  0.38950  0.12924  Biso   1.000  C
  C75      1.0000 0.75200  0.11050  0.62924  Biso   1.000  C
  C76      1.0000 0.74800  0.61050  0.87076  Biso   1.000  C
  C77      1.0000 0.15640  0.85060  0.37875  Biso   1.000  C
  C78      1.0000 0.34360  0.35060  0.12125  Biso   1.000  C
  C79      1.0000 0.84360  0.14940  0.62125  Biso   1.000  C
  C80      1.0000 0.65640  0.64940  0.87875  Biso   1.000  C
  C81      1.0000 0.11450  0.78220  0.33331  Biso   1.000  C
  C82      1.0000 0.38550  0.28220  0.16669  Biso   1.000  C
  C83      1.0000 0.88550  0.21780  0.66669  Biso   1.000  C
  C84      1.0000 0.61450  0.71780  0.83331  Biso   1.000  C
  H25      1.0000 0.14430  0.76030  0.29760  Biso   1.000  H
  H26      1.0000 0.35570  0.26030  0.20240  Biso   1.000  H
  H27      1.0000 0.85570  0.23970  0.70240  Biso   1.000  H
  H28      1.0000 0.64430  0.73970  0.79760  Biso   1.000  H
  C85      1.0000 0.02830  0.74560  0.34035  Biso   1.000  C
  C86      1.0000 0.47170  0.24560  0.15965  Biso   1.000  C
  C87      1.0000 0.97170  0.25440  0.65965  Biso   1.000  C
  C88      1.0000 0.52830  0.75440  0.84035  Biso   1.000  C
  C89      1.0000 0.98290  0.77990  0.39320  Biso   1.000  C
  C90      1.0000 0.51710  0.27990  0.10680  Biso   1.000  C
  C91      1.0000 0.01710  0.22010  0.60680  Biso   1.000  C
  C92      1.0000 0.48290  0.72010  0.89320  Biso   1.000  C
  H29      1.0000 0.92480  0.75730  0.39790  Biso   1.000  H
  H30      1.0000 0.57520  0.25730  0.10210  Biso   1.000  H
  H31      1.0000 0.07520  0.24270  0.60210  Biso   1.000  H
  H32      1.0000 0.42480  0.74270  0.89790  Biso   1.000  H
  C93      1.0000 0.02490  0.84740  0.43830  Biso   1.000  C
  C94      1.0000 0.47510  0.34740  0.06170  Biso   1.000  C
  C95      1.0000 0.97510  0.15260  0.56170  Biso   1.000  C
  C96      1.0000 0.52490  0.65260  0.93830  Biso   1.000  C
  H33      1.0000 0.99500  0.86950  0.47390  Biso   1.000  H
  H34      1.0000 0.50500  0.36950  0.02610  Biso   1.000  H
  H35      1.0000 0.00500  0.13050  0.52610  Biso   1.000  H
  H36      1.0000 0.49500  0.63050  0.97390  Biso   1.000  H
  C97      1.0000 0.11080  0.88330  0.43190  Biso   1.000  C
  C98      1.0000 0.38920  0.38330  0.06810  Biso   1.000  C
  C99      1.0000 0.88920  0.11670  0.56810  Biso   1.000  C
  C100     1.0000 0.61080  0.61670  0.93190  Biso   1.000  C
  H37      1.0000 0.13810  0.92910  0.46290  Biso   1.000  H
  H38      1.0000 0.36190  0.42910  0.03710  Biso   1.000  H
  H39      1.0000 0.86190  0.07090  0.53710  Biso   1.000  H
  H40      1.0000 0.63810  0.57090  0.96290  Biso   1.000  H
  C101     1.0000 0.89230  0.65060  0.28030  Biso   1.000  C
  C102     1.0000 0.60770  0.15060  0.21970  Biso   1.000  C
  C103     1.0000 0.10770  0.34940  0.71970  Biso   1.000  C
  C104     1.0000 0.39230  0.84940  0.78030  Biso   1.000  C
  C105     1.0000 0.88160  0.58440  0.21720  Biso   1.000  C
  C106     1.0000 0.61840  0.08440  0.28280  Biso   1.000  C
  C107     1.0000 0.11840  0.41560  0.78280  Biso   1.000  C
  C108     1.0000 0.38160  0.91560  0.71720  Biso   1.000  C
  H41      1.0000 0.90980  0.51350  0.22280  Biso   1.000  H
  H42      1.0000 0.59020  0.01350  0.27720  Biso   1.000  H
  H43      1.0000 0.09020  0.48650  0.77720  Biso   1.000  H
  H44      1.0000 0.40980  0.98650  0.72280  Biso   1.000  H
  H45      1.0000 0.90860  0.62450  0.18370  Biso   1.000  H
  H46      1.0000 0.59140  0.12450  0.31630  Biso   1.000  H
  H47      1.0000 0.09140  0.37550  0.81630  Biso   1.000  H
  H48      1.0000 0.40860  0.87550  0.68370  Biso   1.000  H
  H49      1.0000 0.81980  0.57410  0.20590  Biso   1.000  H
  H50      1.0000 0.68020  0.07410  0.29410  Biso   1.000  H
  H51      1.0000 0.18020  0.42590  0.79410  Biso   1.000  H
  H52      1.0000 0.31980  0.92590  0.70590  Biso   1.000  H
  C109     1.0000 0.84730  0.76280  0.27210  Biso   1.000  C
  C110     1.0000 0.65270  0.26280  0.22790  Biso   1.000  C
  C111     1.0000 0.15270  0.23720  0.72790  Biso   1.000  C
  C112     1.0000 0.34730  0.73720  0.77210  Biso   1.000  C
  H53      1.0000 0.87270  0.80260  0.23780  Biso   1.000  H
  H54      1.0000 0.62730  0.30260  0.26220  Biso   1.000  H
  H55      1.0000 0.12730  0.19740  0.76220  Biso   1.000  H
  H56      1.0000 0.37270  0.69740  0.73780  Biso   1.000  H
  H57      1.0000 0.85560  0.80440  0.31120  Biso   1.000  H
  H58      1.0000 0.64440  0.30440  0.18880  Biso   1.000  H
  H59      1.0000 0.14440  0.19560  0.68880  Biso   1.000  H
  H60      1.0000 0.35560  0.69560  0.81120  Biso   1.000  H
  H61      1.0000 0.78510  0.75220  0.26210  Biso   1.000  H
  H62      1.0000 0.71490  0.25220  0.23790  Biso   1.000  H
  H63      1.0000 0.21490  0.24780  0.73790  Biso   1.000  H
  H64      1.0000 0.28510  0.74780  0.76210  Biso   1.000  H
  C113     1.0000 0.85630  0.58010  0.33460  Biso   1.000  C
  C114     1.0000 0.64370  0.08010  0.16540  Biso   1.000  C
  C115     1.0000 0.14370  0.41990  0.66540  Biso   1.000  C
  C116     1.0000 0.35630  0.91990  0.83460  Biso   1.000  C
  H65      1.0000 0.88730  0.51060  0.33730  Biso   1.000  H
  H66      1.0000 0.61270  0.01060  0.16270  Biso   1.000  H
  H67      1.0000 0.11270  0.48940  0.66270  Biso   1.000  H
  H68      1.0000 0.38730  0.98940  0.83730  Biso   1.000  H
  H69      1.0000 0.79430  0.56670  0.32580  Biso   1.000  H
  H70      1.0000 0.70570  0.06670  0.17420  Biso   1.000  H
  H71      1.0000 0.20570  0.43330  0.67420  Biso   1.000  H
  H72      1.0000 0.29430  0.93330  0.82580  Biso   1.000  H
  H73      1.0000 0.86500  0.61900  0.37460  Biso   1.000  H
  H74      1.0000 0.63500  0.11900  0.12540  Biso   1.000  H
  H75      1.0000 0.13500  0.38100  0.62540  Biso   1.000  H
  H76      1.0000 0.36500  0.88100  0.87460  Biso   1.000  H
  F1       1.0000 0.41890  0.53280  0.29860  Biso   1.000  F
  F2       1.0000 0.08110  0.03280  0.20140  Biso   1.000  F
  F3       1.0000 0.58110  0.46720  0.70140  Biso   1.000  F
  F4       1.0000 0.91890  0.96720  0.79860  Biso   1.000  F
  F5       1.0000 0.43650  0.58850  0.38900  Biso   1.000  F
  F6       1.0000 0.06350  0.08850  0.11100  Biso   1.000  F
  F7       1.0000 0.56350  0.41150  0.61100  Biso   1.000  F
  F8       1.0000 0.93650  0.91150  0.88900  Biso   1.000  F
  F9       1.0000 0.40500  0.69860  0.31520  Biso   1.000  F
  F10      1.0000 0.09500  0.19860  0.18480  Biso   1.000  F
  F11      1.0000 0.59500  0.30140  0.68480  Biso   1.000  F
  F12      1.0000 0.90500  0.80140  0.81520  Biso   1.000  F
  F13      1.0000 0.21420  0.54450  0.53050  Biso   1.000  F
  F14      1.0000 0.28580  0.04450  0.96950  Biso   1.000  F
  F15      1.0000 0.78580  0.45550  0.46950  Biso   1.000  F
  F16      1.0000 0.71420  0.95550  0.03050  Biso   1.000  F
  F17      1.0000 0.08260  0.59410  0.50381  Biso   1.000  F
  F18      1.0000 0.41740  0.09410  0.99619  Biso   1.000  F
  F19      1.0000 0.91740  0.40590  0.49619  Biso   1.000  F
  F20      1.0000 0.58260  0.90590  0.00381  Biso   1.000  F
  F21      1.0000 0.11980  0.43150  0.49895  Biso   1.000  F
  F22      1.0000 0.38020  0.93150  0.00105  Biso   1.000  F
  F23      1.0000 0.88020  0.56850  0.50105  Biso   1.000  F
  F24      1.0000 0.61980  0.06850  0.99895  Biso   1.000  F
  F25      1.0000 0.30330  0.19150  0.35070  Biso   1.000  F
  F26      1.0000 0.19670  0.69150  0.14930  Biso   1.000  F
  F27      1.0000 0.69670  0.80850  0.64930  Biso   1.000  F
  F28      1.0000 0.80330  0.30850  0.85070  Biso   1.000  F
  F29      1.0000 0.22230  0.13700  0.42330  Biso   1.000  F
  F30      1.0000 0.27770  0.63700  0.07670  Biso   1.000  F
  F31      1.0000 0.77770  0.86300  0.57670  Biso   1.000  F
  F32      1.0000 0.72230  0.36300  0.92330  Biso   1.000  F
  F33      1.0000 0.28070  0.29360  0.42930  Biso   1.000  F
  F34      1.0000 0.21930  0.79360  0.07070  Biso   1.000  F
  F35      1.0000 0.71930  0.70640  0.57070  Biso   1.000  F
  F36      1.0000 0.78070  0.20640  0.92930  Biso   1.000  F
  F37      1.0000 0.89770  0.16340  0.28630  Biso   1.000  F
  F38      1.0000 0.60230  0.66340  0.21370  Biso   1.000  F
  F39      1.0000 0.10230  0.83660  0.71370  Biso   1.000  F
  F40      1.0000 0.39770  0.33660  0.78630  Biso   1.000  F
  F41      1.0000 0.91370  0.16540  0.38480  Biso   1.000  F
  F42      1.0000 0.58630  0.66540  0.11520  Biso   1.000  F
  F43      1.0000 0.08630  0.83460  0.61520  Biso   1.000  F
  F44      1.0000 0.41370  0.33460  0.88480  Biso   1.000  F
  F45      1.0000 0.85120  0.28350  0.33500  Biso   1.000  F
  F46      1.0000 0.64880  0.78350  0.16500  Biso   1.000  F
  F47      1.0000 0.14880  0.71650  0.66500  Biso   1.000  F
  F48      1.0000 0.35120  0.21650  0.83500  Biso   1.000  F
  F49      1.0000 0.52080  0.31950  0.37062  Biso   1.000  F
  F50      1.0000 0.97920  0.81950  0.12938  Biso   1.000  F
  F51      1.0000 0.47920  0.68050  0.62938  Biso   1.000  F
  F52      1.0000 0.02080  0.18050  0.87062  Biso   1.000  F
  F53      1.0000 0.64180  0.29380  0.42400  Biso   1.000  F
  F54      1.0000 0.85820  0.79380  0.07600  Biso   1.000  F
  F55      1.0000 0.35820  0.70620  0.57600  Biso   1.000  F
  F56      1.0000 0.14180  0.20620  0.92400  Biso   1.000  F
  F57      1.0000 0.55390  0.41640  0.45430  Biso   1.000  F
  F58      1.0000 0.94610  0.91640  0.04570  Biso   1.000  F
  F59      1.0000 0.44610  0.58360  0.54570  Biso   1.000  F
  F60      1.0000 0.05390  0.08360  0.95430  Biso   1.000  F
  F61      1.0000 0.36290  0.19630  0.65152  Biso   1.000  F
  F62      1.0000 0.13710  0.69630  0.84848  Biso   1.000  F
  F63      1.0000 0.63710  0.80370  0.34848  Biso   1.000  F
  F64      1.0000 0.86290  0.30370  0.15152  Biso   1.000  F
  F65      1.0000 0.26280  0.19230  0.57960  Biso   1.000  F
  F66      1.0000 0.23720  0.69230  0.92040  Biso   1.000  F
  F67      1.0000 0.73720  0.80770  0.42040  Biso   1.000  F
  F68      1.0000 0.76280  0.30770  0.07960  Biso   1.000  F
  F69      1.0000 0.33580  0.33450  0.59600  Biso   1.000  F
  F70      1.0000 0.16420  0.83450  0.90400  Biso   1.000  F
  F71      1.0000 0.66420  0.66550  0.40400  Biso   1.000  F
  F72      1.0000 0.83580  0.16550  0.09600  Biso   1.000  F
