data_image0
_cell_length_a       14.9104
_cell_length_b       11.6878
_cell_length_c       20.5148
_cell_angle_alpha    90
_cell_angle_beta     92.6405
_cell_angle_gamma    90

_symmetry_space_group_name_H-M    "P 1"
_symmetry_int_tables_number       1

loop_
  _symmetry_equiv_pos_as_xyz
  'x, y, z'

loop_
  _atom_site_label
  _atom_site_occupancy
  _atom_site_fract_x
  _atom_site_fract_y
  _atom_site_fract_z
  _atom_site_thermal_displace_type
  _atom_site_B_iso_or_equiv
  _atom_site_type_symbol
  Cu1      1.0000 0.10944  0.48720  0.29088  Biso   1.000  Cu
  Cu2      1.0000 0.39056  0.98720  0.20912  Biso   1.000  Cu
  Cu3      1.0000 0.89056  0.51280  0.70912  Biso   1.000  Cu
  Cu4      1.0000 0.60944  0.01280  0.79088  Biso   1.000  Cu
  Cu5      1.0000 0.50000  0.00000  0.50000  Biso   1.000  Cu
  Cu6      1.0000 0.00000  0.50000  0.00000  Biso   1.000  Cu
  O1       1.0000 0.24250  0.59100  0.29274  Biso   1.000  O
  O2       1.0000 0.25750  0.09100  0.20726  Biso   1.000  O
  O3       1.0000 0.75750  0.40900  0.70726  Biso   1.000  O
  O4       1.0000 0.74250  0.90900  0.79274  Biso   1.000  O
  O5       1.0000 0.10130  0.53470  0.38165  Biso   1.000  O
  O6       1.0000 0.39870  0.03470  0.11835  Biso   1.000  O
  O7       1.0000 0.89870  0.46530  0.61835  Biso   1.000  O
  O8       1.0000 0.60130  0.96530  0.88165  Biso   1.000  O
  O9       1.0000 0.18830  0.35930  0.32239  Biso   1.000  O
  O10      1.0000 0.31170  0.85930  0.17761  Biso   1.000  O
  O11      1.0000 0.81170  0.64070  0.67761  Biso   1.000  O
  O12      1.0000 0.68830  0.14070  0.82239  Biso   1.000  O
  O13      1.0000 0.99610  0.36060  0.29706  Biso   1.000  O
  O14      1.0000 0.50390  0.86060  0.20294  Biso   1.000  O
  O15      1.0000 0.00390  0.63940  0.70294  Biso   1.000  O
  O16      1.0000 0.49610  0.13940  0.79706  Biso   1.000  O
  O17      1.0000 0.53840  0.13110  0.44889  Biso   1.000  O
  O18      1.0000 0.96160  0.63110  0.05111  Biso   1.000  O
  O19      1.0000 0.46160  0.86890  0.55111  Biso   1.000  O
  O20      1.0000 0.03840  0.36890  0.94889  Biso   1.000  O
  O21      1.0000 0.41200  0.09030  0.54509  Biso   1.000  O
  O22      1.0000 0.08800  0.59030  0.95491  Biso   1.000  O
  O23      1.0000 0.58800  0.90970  0.45491  Biso   1.000  O
  O24      1.0000 0.91200  0.40970  0.04509  Biso   1.000  O
  O25      1.0000 0.03939  0.61810  0.25720  Biso   1.000  O
  O26      1.0000 0.46061  0.11810  0.24280  Biso   1.000  O
  O27      1.0000 0.96061  0.38190  0.74280  Biso   1.000  O
  O28      1.0000 0.53939  0.88190  0.75720  Biso   1.000  O
  N1       1.0000 0.35970  0.95040  0.30124  Biso   1.000  N
  N2       1.0000 0.14030  0.45040  0.19876  Biso   1.000  N
  N3       1.0000 0.64030  0.04960  0.69876  Biso   1.000  N
  N4       1.0000 0.85970  0.54960  0.80124  Biso   1.000  N
  N5       1.0000 0.98310  0.67060  0.29338  Biso   1.000  N
  N6       1.0000 0.51690  0.17060  0.20662  Biso   1.000  N
  N7       1.0000 0.01690  0.32940  0.70662  Biso   1.000  N
  N8       1.0000 0.48310  0.82940  0.79338  Biso   1.000  N
  N9       1.0000 0.39190  0.94230  0.41504  Biso   1.000  N
  N10      1.0000 0.10810  0.44230  0.08496  Biso   1.000  N
  N11      1.0000 0.60810  0.05770  0.58496  Biso   1.000  N
  N12      1.0000 0.89190  0.55770  0.91504  Biso   1.000  N
  C1       1.0000 0.39010  0.59370  0.33710  Biso   1.000  C
  C2       1.0000 0.10990  0.09370  0.16290  Biso   1.000  C
  C3       1.0000 0.60990  0.40630  0.66290  Biso   1.000  C
  C4       1.0000 0.89010  0.90630  0.83710  Biso   1.000  C
  C5       1.0000 0.28800  0.58600  0.34450  Biso   1.000  C
  C6       1.0000 0.21200  0.08600  0.15550  Biso   1.000  C
  C7       1.0000 0.71200  0.41400  0.65550  Biso   1.000  C
  C8       1.0000 0.78800  0.91400  0.84450  Biso   1.000  C
  C9       1.0000 0.25680  0.57510  0.40830  Biso   1.000  C
  C10      1.0000 0.24320  0.07510  0.09170  Biso   1.000  C
  C11      1.0000 0.74320  0.42490  0.59170  Biso   1.000  C
  C12      1.0000 0.75680  0.92490  0.90830  Biso   1.000  C
  H1       1.0000 0.29850  0.58510  0.44430  Biso   1.000  H
  H2       1.0000 0.20150  0.08510  0.05570  Biso   1.000  H
  H3       1.0000 0.70150  0.41490  0.55570  Biso   1.000  H
  H4       1.0000 0.79850  0.91490  0.94430  Biso   1.000  H
  C13      1.0000 0.16850  0.55050  0.42080  Biso   1.000  C
  C14      1.0000 0.33150  0.05050  0.07920  Biso   1.000  C
  C15      1.0000 0.83150  0.44950  0.57920  Biso   1.000  C
  C16      1.0000 0.66850  0.94950  0.92080  Biso   1.000  C
  C17      1.0000 0.14470  0.53480  0.49170  Biso   1.000  C
  C18      1.0000 0.35530  0.03480  0.00830  Biso   1.000  C
  C19      1.0000 0.85530  0.46520  0.50830  Biso   1.000  C
  C20      1.0000 0.64470  0.96520  0.99170  Biso   1.000  C
  C21      1.0000 0.24490  0.22460  0.39590  Biso   1.000  C
  C22      1.0000 0.25510  0.72460  0.10410  Biso   1.000  C
  C23      1.0000 0.75510  0.77540  0.60410  Biso   1.000  C
  C24      1.0000 0.74490  0.27540  0.89590  Biso   1.000  C
  C25      1.0000 0.16500  0.27590  0.35660  Biso   1.000  C
  C26      1.0000 0.33500  0.77590  0.14340  Biso   1.000  C
  C27      1.0000 0.83500  0.72410  0.64340  Biso   1.000  C
  C28      1.0000 0.66500  0.22410  0.85660  Biso   1.000  C
  C29      1.0000 0.08090  0.22800  0.36340  Biso   1.000  C
  C30      1.0000 0.41910  0.72800  0.13660  Biso   1.000  C
  C31      1.0000 0.91910  0.77200  0.63660  Biso   1.000  C
  C32      1.0000 0.58090  0.27200  0.86340  Biso   1.000  C
  H5       1.0000 0.07560  0.16240  0.39030  Biso   1.000  H
  H6       1.0000 0.42440  0.66240  0.10970  Biso   1.000  H
  H7       1.0000 0.92440  0.83760  0.60970  Biso   1.000  H
  H8       1.0000 0.57560  0.33760  0.89030  Biso   1.000  H
  C33      1.0000 0.00360  0.27320  0.33170  Biso   1.000  C
  C34      1.0000 0.49640  0.77320  0.16830  Biso   1.000  C
  C35      1.0000 0.99640  0.72680  0.66830  Biso   1.000  C
  C36      1.0000 0.50360  0.22680  0.83170  Biso   1.000  C
  C37      1.0000 0.91570  0.20610  0.33850  Biso   1.000  C
  C38      1.0000 0.58430  0.70610  0.16150  Biso   1.000  C
  C39      1.0000 0.08430  0.79390  0.66150  Biso   1.000  C
  C40      1.0000 0.41570  0.29390  0.83850  Biso   1.000  C
  C41      1.0000 0.57070  0.32060  0.42390  Biso   1.000  C
  C42      1.0000 0.92930  0.82060  0.07610  Biso   1.000  C
  C43      1.0000 0.42930  0.67940  0.57610  Biso   1.000  C
  C44      1.0000 0.07070  0.17940  0.92390  Biso   1.000  C
  C45      1.0000 0.52130  0.23310  0.46420  Biso   1.000  C
  C46      1.0000 0.97870  0.73310  0.03580  Biso   1.000  C
  C47      1.0000 0.47870  0.76690  0.53580  Biso   1.000  C
  C48      1.0000 0.02130  0.26690  0.96420  Biso   1.000  C
  C49      1.0000 0.46380  0.27280  0.51100  Biso   1.000  C
  C50      1.0000 0.03620  0.77280  0.98900  Biso   1.000  C
  C51      1.0000 0.53620  0.72720  0.48900  Biso   1.000  C
  C52      1.0000 0.96380  0.22720  0.01100  Biso   1.000  C
  H9       1.0000 0.45980  0.35270  0.51890  Biso   1.000  H
  H10      1.0000 0.04020  0.85270  0.98110  Biso   1.000  H
  H11      1.0000 0.54020  0.64730  0.48110  Biso   1.000  H
  H12      1.0000 0.95980  0.14730  0.01890  Biso   1.000  H
  C53      1.0000 0.41240  0.19770  0.54630  Biso   1.000  C
  C54      1.0000 0.08760  0.69770  0.95370  Biso   1.000  C
  C55      1.0000 0.58760  0.80230  0.45370  Biso   1.000  C
  C56      1.0000 0.91240  0.30230  0.04630  Biso   1.000  C
  C57      1.0000 0.34770  0.24750  0.59420  Biso   1.000  C
  C58      1.0000 0.15230  0.74750  0.90580  Biso   1.000  C
  C59      1.0000 0.65230  0.75250  0.40580  Biso   1.000  C
  C60      1.0000 0.84770  0.25250  0.09420  Biso   1.000  C
  C61      1.0000 0.27550  0.91410  0.31040  Biso   1.000  C
  C62      1.0000 0.22450  0.41410  0.18960  Biso   1.000  C
  C63      1.0000 0.72450  0.08590  0.68960  Biso   1.000  C
  C64      1.0000 0.77550  0.58590  0.81040  Biso   1.000  C
  H13      1.0000 0.23540  0.90420  0.27350  Biso   1.000  H
  H14      1.0000 0.26460  0.40420  0.22650  Biso   1.000  H
  H15      1.0000 0.76460  0.09580  0.72650  Biso   1.000  H
  H16      1.0000 0.73540  0.59580  0.77350  Biso   1.000  H
  C65      1.0000 0.41420  0.96380  0.35380  Biso   1.000  C
  C66      1.0000 0.08580  0.46380  0.14620  Biso   1.000  C
  C67      1.0000 0.58580  0.03620  0.64620  Biso   1.000  C
  C68      1.0000 0.91420  0.53620  0.85380  Biso   1.000  C
  H17      1.0000 0.47330  0.99060  0.34740  Biso   1.000  H
  H18      1.0000 0.02670  0.49060  0.15260  Biso   1.000  H
  H19      1.0000 0.52670  0.00940  0.65260  Biso   1.000  H
  H20      1.0000 0.97330  0.50940  0.84740  Biso   1.000  H
  C69      1.0000 0.30900  0.90500  0.42350  Biso   1.000  C
  C70      1.0000 0.19100  0.40500  0.07650  Biso   1.000  C
  C71      1.0000 0.69100  0.09500  0.57650  Biso   1.000  C
  C72      1.0000 0.80900  0.59500  0.92350  Biso   1.000  C
  H21      1.0000 0.29210  0.88730  0.46650  Biso   1.000  H
  H22      1.0000 0.20790  0.38730  0.03350  Biso   1.000  H
  H23      1.0000 0.70790  0.11270  0.53350  Biso   1.000  H
  H24      1.0000 0.79210  0.61270  0.96650  Biso   1.000  H
  C73      1.0000 0.24560  0.89070  0.37180  Biso   1.000  C
  C74      1.0000 0.25440  0.39070  0.12820  Biso   1.000  C
  C75      1.0000 0.75440  0.10930  0.62820  Biso   1.000  C
  C76      1.0000 0.74560  0.60930  0.87180  Biso   1.000  C
  C77      1.0000 0.15140  0.85320  0.38030  Biso   1.000  C
  C78      1.0000 0.34860  0.35320  0.11970  Biso   1.000  C
  C79      1.0000 0.84860  0.14680  0.61970  Biso   1.000  C
  C80      1.0000 0.65140  0.64680  0.88030  Biso   1.000  C
  C81      1.0000 0.10880  0.78460  0.33330  Biso   1.000  C
  C82      1.0000 0.39120  0.28460  0.16670  Biso   1.000  C
  C83      1.0000 0.89120  0.21540  0.66670  Biso   1.000  C
  C84      1.0000 0.60880  0.71540  0.83330  Biso   1.000  C
  H25      1.0000 0.14010  0.76140  0.29630  Biso   1.000  H
  H26      1.0000 0.35990  0.26140  0.20370  Biso   1.000  H
  H27      1.0000 0.85990  0.23860  0.70370  Biso   1.000  H
  H28      1.0000 0.64010  0.73860  0.79630  Biso   1.000  H
  C85      1.0000 0.02000  0.74910  0.34000  Biso   1.000  C
  C86      1.0000 0.48000  0.24910  0.16000  Biso   1.000  C
  C87      1.0000 0.98000  0.25090  0.66000  Biso   1.000  C
  C88      1.0000 0.52000  0.75090  0.84000  Biso   1.000  C
  C89      1.0000 0.97380  0.78450  0.39410  Biso   1.000  C
  C90      1.0000 0.52620  0.28450  0.10590  Biso   1.000  C
  C91      1.0000 0.02620  0.21550  0.60590  Biso   1.000  C
  C92      1.0000 0.47380  0.71550  0.89410  Biso   1.000  C
  H29      1.0000 0.91340  0.76170  0.39890  Biso   1.000  H
  H30      1.0000 0.58660  0.26170  0.10110  Biso   1.000  H
  H31      1.0000 0.08660  0.23830  0.60110  Biso   1.000  H
  H32      1.0000 0.41340  0.73830  0.89890  Biso   1.000  H
  C93      1.0000 0.01710  0.85350  0.44090  Biso   1.000  C
  C94      1.0000 0.48290  0.35350  0.05910  Biso   1.000  C
  C95      1.0000 0.98290  0.14650  0.55910  Biso   1.000  C
  C96      1.0000 0.51710  0.64650  0.94090  Biso   1.000  C
  H33      1.0000 0.98570  0.87760  0.47780  Biso   1.000  H
  H34      1.0000 0.51430  0.37760  0.02220  Biso   1.000  H
  H35      1.0000 0.01430  0.12240  0.52220  Biso   1.000  H
  H36      1.0000 0.48570  0.62240  0.97780  Biso   1.000  H
  C97      1.0000 0.10500  0.88740  0.43480  Biso   1.000  C
  C98      1.0000 0.39500  0.38740  0.06520  Biso   1.000  C
  C99      1.0000 0.89500  0.11260  0.56520  Biso   1.000  C
  C100     1.0000 0.60500  0.61260  0.93480  Biso   1.000  C
  H37      1.0000 0.13390  0.93390  0.46750  Biso   1.000  H
  H38      1.0000 0.36610  0.43390  0.03250  Biso   1.000  H
  H39      1.0000 0.86610  0.06610  0.53250  Biso   1.000  H
  H40      1.0000 0.63390  0.56610  0.96750  Biso   1.000  H
  C101     1.0000 0.88350  0.64830  0.27940  Biso   1.000  C
  C102     1.0000 0.61650  0.14830  0.22060  Biso   1.000  C
  C103     1.0000 0.11650  0.35170  0.72060  Biso   1.000  C
  C104     1.0000 0.38350  0.85170  0.77940  Biso   1.000  C
  C105     1.0000 0.87400  0.58070  0.21510  Biso   1.000  C
  C106     1.0000 0.62600  0.08070  0.28490  Biso   1.000  C
  C107     1.0000 0.12600  0.41930  0.78490  Biso   1.000  C
  C108     1.0000 0.37400  0.91930  0.71510  Biso   1.000  C
  H41      1.0000 0.90350  0.50620  0.22070  Biso   1.000  H
  H42      1.0000 0.59650  0.00620  0.27930  Biso   1.000  H
  H43      1.0000 0.09650  0.49380  0.77930  Biso   1.000  H
  H44      1.0000 0.40350  0.99380  0.72070  Biso   1.000  H
  H45      1.0000 0.90230  0.62350  0.18050  Biso   1.000  H
  H46      1.0000 0.59770  0.12350  0.31950  Biso   1.000  H
  H47      1.0000 0.09770  0.37650  0.81950  Biso   1.000  H
  H48      1.0000 0.40230  0.87650  0.68050  Biso   1.000  H
  H49      1.0000 0.81020  0.56930  0.20320  Biso   1.000  H
  H50      1.0000 0.68980  0.06930  0.29680  Biso   1.000  H
  H51      1.0000 0.18980  0.43070  0.79680  Biso   1.000  H
  H52      1.0000 0.31020  0.93070  0.70320  Biso   1.000  H
  C109     1.0000 0.83630  0.76400  0.27060  Biso   1.000  C
  C110     1.0000 0.66370  0.26400  0.22940  Biso   1.000  C
  C111     1.0000 0.16370  0.23600  0.72940  Biso   1.000  C
  C112     1.0000 0.33630  0.73600  0.77060  Biso   1.000  C
  H53      1.0000 0.86250  0.80610  0.23480  Biso   1.000  H
  H54      1.0000 0.63750  0.30610  0.26520  Biso   1.000  H
  H55      1.0000 0.13750  0.19390  0.76520  Biso   1.000  H
  H56      1.0000 0.36250  0.69390  0.73480  Biso   1.000  H
  H57      1.0000 0.84390  0.80840  0.31100  Biso   1.000  H
  H58      1.0000 0.65610  0.30840  0.18900  Biso   1.000  H
  H59      1.0000 0.15610  0.19160  0.68900  Biso   1.000  H
  H60      1.0000 0.34390  0.69160  0.81100  Biso   1.000  H
  H61      1.0000 0.77210  0.75160  0.26040  Biso   1.000  H
  H62      1.0000 0.72790  0.25160  0.23960  Biso   1.000  H
  H63      1.0000 0.22790  0.24840  0.73960  Biso   1.000  H
  H64      1.0000 0.27210  0.74840  0.76040  Biso   1.000  H
  C113     1.0000 0.84730  0.57550  0.33400  Biso   1.000  C
  C114     1.0000 0.65270  0.07550  0.16600  Biso   1.000  C
  C115     1.0000 0.15270  0.42450  0.66600  Biso   1.000  C
  C116     1.0000 0.34730  0.92450  0.83400  Biso   1.000  C
  H65      1.0000 0.87990  0.50280  0.33660  Biso   1.000  H
  H66      1.0000 0.62010  0.00280  0.16340  Biso   1.000  H
  H67      1.0000 0.12010  0.49720  0.66340  Biso   1.000  H
  H68      1.0000 0.37990  0.99720  0.83660  Biso   1.000  H
  H69      1.0000 0.78330  0.56060  0.32480  Biso   1.000  H
  H70      1.0000 0.71670  0.06060  0.17520  Biso   1.000  H
  H71      1.0000 0.21670  0.43940  0.67520  Biso   1.000  H
  H72      1.0000 0.28330  0.93940  0.82480  Biso   1.000  H
  H73      1.0000 0.85540  0.61640  0.37550  Biso   1.000  H
  H74      1.0000 0.64460  0.11640  0.12450  Biso   1.000  H
  H75      1.0000 0.14460  0.38360  0.62450  Biso   1.000  H
  H76      1.0000 0.35540  0.88360  0.87550  Biso   1.000  H
  F1       1.0000 0.41490  0.52920  0.28809  Biso   1.000  F
  F2       1.0000 0.08510  0.02920  0.21191  Biso   1.000  F
  F3       1.0000 0.58510  0.47080  0.71191  Biso   1.000  F
  F4       1.0000 0.91490  0.97080  0.78809  Biso   1.000  F
  F5       1.0000 0.43820  0.55980  0.38940  Biso   1.000  F
  F6       1.0000 0.06180  0.05980  0.11060  Biso   1.000  F
  F7       1.0000 0.56180  0.44020  0.61060  Biso   1.000  F
  F8       1.0000 0.93820  0.94020  0.88940  Biso   1.000  F
  F9       1.0000 0.41480  0.70060  0.32440  Biso   1.000  F
  F10      1.0000 0.08520  0.20060  0.17560  Biso   1.000  F
  F11      1.0000 0.58520  0.29940  0.67560  Biso   1.000  F
  F12      1.0000 0.91480  0.79940  0.82440  Biso   1.000  F
  F13      1.0000 0.21340  0.55290  0.53456  Biso   1.000  F
  F14      1.0000 0.28660  0.05290  0.96544  Biso   1.000  F
  F15      1.0000 0.78660  0.44710  0.46544  Biso   1.000  F
  F16      1.0000 0.71340  0.94710  0.03456  Biso   1.000  F
  F17      1.0000 0.07880  0.60450  0.50794  Biso   1.000  F
  F18      1.0000 0.42120  0.10450  0.99206  Biso   1.000  F
  F19      1.0000 0.92120  0.39550  0.49206  Biso   1.000  F
  F20      1.0000 0.57880  0.89550  0.00794  Biso   1.000  F
  F21      1.0000 0.11630  0.42800  0.50178  Biso   1.000  F
  F22      1.0000 0.38370  0.92800  0.99822  Biso   1.000  F
  F23      1.0000 0.88370  0.57200  0.49822  Biso   1.000  F
  F24      1.0000 0.61630  0.07200  0.00178  Biso   1.000  F
  F25      1.0000 0.30840  0.18930  0.35764  Biso   1.000  F
  F26      1.0000 0.19160  0.68930  0.14236  Biso   1.000  F
  F27      1.0000 0.69160  0.81070  0.64236  Biso   1.000  F
  F28      1.0000 0.80840  0.31070  0.85764  Biso   1.000  F
  F29      1.0000 0.22300  0.13500  0.43312  Biso   1.000  F
  F30      1.0000 0.27700  0.63500  0.06688  Biso   1.000  F
  F31      1.0000 0.77700  0.86500  0.56688  Biso   1.000  F
  F32      1.0000 0.72300  0.36500  0.93312  Biso   1.000  F
  F33      1.0000 0.28060  0.30260  0.43661  Biso   1.000  F
  F34      1.0000 0.21940  0.80260  0.06339  Biso   1.000  F
  F35      1.0000 0.71940  0.69740  0.56339  Biso   1.000  F
  F36      1.0000 0.78060  0.19740  0.93661  Biso   1.000  F
  F37      1.0000 0.89580  0.14490  0.28619  Biso   1.000  F
  F38      1.0000 0.60420  0.64490  0.21381  Biso   1.000  F
  F39      1.0000 0.10420  0.85510  0.71381  Biso   1.000  F
  F40      1.0000 0.39580  0.35510  0.78619  Biso   1.000  F
  F41      1.0000 0.91760  0.13590  0.38940  Biso   1.000  F
  F42      1.0000 0.58240  0.63590  0.11060  Biso   1.000  F
  F43      1.0000 0.08240  0.86410  0.61060  Biso   1.000  F
  F44      1.0000 0.41760  0.36410  0.88940  Biso   1.000  F
  F45      1.0000 0.84580  0.27540  0.34570  Biso   1.000  F
  F46      1.0000 0.65420  0.77540  0.15430  Biso   1.000  F
  F47      1.0000 0.15420  0.72460  0.65430  Biso   1.000  F
  F48      1.0000 0.34580  0.22460  0.84570  Biso   1.000  F
  F49      1.0000 0.52940  0.33280  0.36501  Biso   1.000  F
  F50      1.0000 0.97060  0.83280  0.13499  Biso   1.000  F
  F51      1.0000 0.47060  0.66720  0.63499  Biso   1.000  F
  F52      1.0000 0.02940  0.16720  0.86501  Biso   1.000  F
  F53      1.0000 0.65437  0.28770  0.41465  Biso   1.000  F
  F54      1.0000 0.84563  0.78770  0.08535  Biso   1.000  F
  F55      1.0000 0.34563  0.71230  0.58535  Biso   1.000  F
  F56      1.0000 0.15437  0.21230  0.91465  Biso   1.000  F
  F57      1.0000 0.57520  0.42390  0.45210  Biso   1.000  F
  F58      1.0000 0.92480  0.92390  0.04790  Biso   1.000  F
  F59      1.0000 0.42480  0.57610  0.54790  Biso   1.000  F
  F60      1.0000 0.07520  0.07610  0.95210  Biso   1.000  F
  F61      1.0000 0.37110  0.21540  0.65491  Biso   1.000  F
  F62      1.0000 0.12890  0.71540  0.84509  Biso   1.000  F
  F63      1.0000 0.62890  0.78460  0.34509  Biso   1.000  F
  F64      1.0000 0.87110  0.28460  0.15491  Biso   1.000  F
  F65      1.0000 0.26472  0.20850  0.58125  Biso   1.000  F
  F66      1.0000 0.23528  0.70850  0.91875  Biso   1.000  F
  F67      1.0000 0.73528  0.79150  0.41875  Biso   1.000  F
  F68      1.0000 0.76472  0.29150  0.08125  Biso   1.000  F
  F69      1.0000 0.34380  0.36020  0.59350  Biso   1.000  F
  F70      1.0000 0.15620  0.86020  0.90650  Biso   1.000  F
  F71      1.0000 0.65620  0.63980  0.40650  Biso   1.000  F
  F72      1.0000 0.84380  0.13980  0.09350  Biso   1.000  F
