data_image0
_cell_length_a       16.545
_cell_length_b       22.703
_cell_length_c       19.72
_cell_angle_alpha    90
_cell_angle_beta     94.231
_cell_angle_gamma    90

_symmetry_space_group_name_H-M    "P 1"
_symmetry_int_tables_number       1

loop_
  _symmetry_equiv_pos_as_xyz
  'x, y, z'

loop_
  _atom_site_label
  _atom_site_occupancy
  _atom_site_fract_x
  _atom_site_fract_y
  _atom_site_fract_z
  _atom_site_thermal_displace_type
  _atom_site_B_iso_or_equiv
  _atom_site_type_symbol
  Cu1      1.0000 0.35983  0.23313  0.88858  Biso   1.000  Cu
  Cu2      1.0000 0.64017  0.73313  0.61142  Biso   1.000  Cu
  Cu3      1.0000 0.64017  0.76687  0.11142  Biso   1.000  Cu
  Cu4      1.0000 0.35983  0.26687  0.38858  Biso   1.000  Cu
  Cu5      1.0000 0.50000  0.50000  0.50000  Biso   1.000  Cu
  Cu6      1.0000 0.50000  0.00000  0.00000  Biso   1.000  Cu
  F1       1.0000 0.15330  0.31510  0.05810  Biso   1.000  F
  F2       1.0000 0.84670  0.81510  0.44190  Biso   1.000  F
  F3       1.0000 0.84670  0.68490  0.94190  Biso   1.000  F
  F4       1.0000 0.15330  0.18490  0.55810  Biso   1.000  F
  F5       1.0000 0.18120  0.37039  0.97710  Biso   1.000  F
  F6       1.0000 0.81880  0.87039  0.52290  Biso   1.000  F
  F7       1.0000 0.81880  0.62961  0.02290  Biso   1.000  F
  F8       1.0000 0.18120  0.12961  0.47710  Biso   1.000  F
  F9       1.0000 0.27190  0.34918  0.05463  Biso   1.000  F
  F10      1.0000 0.72810  0.84918  0.44537  Biso   1.000  F
  F11      1.0000 0.72810  0.65082  0.94537  Biso   1.000  F
  F12      1.0000 0.27190  0.15082  0.55463  Biso   1.000  F
  F13      1.0000 0.15390  0.09000  0.96872  Biso   1.000  F
  F14      1.0000 0.84610  0.59000  0.53128  Biso   1.000  F
  F15      1.0000 0.84610  0.91000  0.03128  Biso   1.000  F
  F16      1.0000 0.15390  0.41000  0.46872  Biso   1.000  F
  F17      1.0000 0.12570  0.10431  0.86285  Biso   1.000  F
  F18      1.0000 0.87430  0.60431  0.63715  Biso   1.000  F
  F19      1.0000 0.87430  0.89569  0.13715  Biso   1.000  F
  F20      1.0000 0.12570  0.39569  0.36285  Biso   1.000  F
  F21      1.0000 0.05890  0.14967  0.93603  Biso   1.000  F
  F22      1.0000 0.94110  0.64967  0.56397  Biso   1.000  F
  F23      1.0000 0.94110  0.85033  0.06397  Biso   1.000  F
  F24      1.0000 0.05890  0.35033  0.43603  Biso   1.000  F
  F25      1.0000 0.26696  0.30591  0.68341  Biso   1.000  F
  F26      1.0000 0.73304  0.80591  0.81659  Biso   1.000  F
  F27      1.0000 0.73304  0.69409  0.31659  Biso   1.000  F
  F28      1.0000 0.26696  0.19409  0.18341  Biso   1.000  F
  F29      1.0000 0.23050  0.37630  0.74462  Biso   1.000  F
  F30      1.0000 0.76950  0.87630  0.75538  Biso   1.000  F
  F31      1.0000 0.76950  0.62370  0.25538  Biso   1.000  F
  F32      1.0000 0.23050  0.12370  0.24462  Biso   1.000  F
  F33      1.0000 0.33504  0.38551  0.68643  Biso   1.000  F
  F34      1.0000 0.66496  0.88551  0.81357  Biso   1.000  F
  F35      1.0000 0.66496  0.61449  0.31357  Biso   1.000  F
  F36      1.0000 0.33504  0.11449  0.18643  Biso   1.000  F
  F37      1.0000 0.55240  0.42040  0.83490  Biso   1.000  F
  F38      1.0000 0.44760  0.92040  0.66510  Biso   1.000  F
  F39      1.0000 0.44760  0.57960  0.16510  Biso   1.000  F
  F40      1.0000 0.55240  0.07960  0.33490  Biso   1.000  F
  F41      1.0000 0.51690  0.42150  0.93280  Biso   1.000  F
  F42      1.0000 0.48310  0.92150  0.56720  Biso   1.000  F
  F43      1.0000 0.48310  0.57850  0.06720  Biso   1.000  F
  F44      1.0000 0.51690  0.07850  0.43280  Biso   1.000  F
  F45      1.0000 0.60000  0.36110  0.90730  Biso   1.000  F
  F46      1.0000 0.40000  0.86110  0.59270  Biso   1.000  F
  F47      1.0000 0.40000  0.63890  0.09270  Biso   1.000  F
  F48      1.0000 0.60000  0.13890  0.40730  Biso   1.000  F
  F49      1.0000 0.73560  0.40531  0.58063  Biso   1.000  F
  F50      1.0000 0.26440  0.90531  0.91937  Biso   1.000  F
  F51      1.0000 0.26440  0.59469  0.41937  Biso   1.000  F
  F52      1.0000 0.73560  0.09469  0.08063  Biso   1.000  F
  F53      1.0000 0.75541  0.49590  0.60633  Biso   1.000  F
  F54      1.0000 0.24459  0.99590  0.89367  Biso   1.000  F
  F55      1.0000 0.24459  0.50410  0.39367  Biso   1.000  F
  F56      1.0000 0.75541  0.00410  0.10633  Biso   1.000  F
  F57      1.0000 0.81191  0.45846  0.52261  Biso   1.000  F
  F58      1.0000 0.18809  0.95846  0.97739  Biso   1.000  F
  F59      1.0000 0.18809  0.54154  0.47739  Biso   1.000  F
  F60      1.0000 0.81191  0.04154  0.02261  Biso   1.000  F
  F61      1.0000 0.59160  0.41599  0.30072  Biso   1.000  F
  F62      1.0000 0.40840  0.91599  0.19928  Biso   1.000  F
  F63      1.0000 0.40840  0.58401  0.69928  Biso   1.000  F
  F64      1.0000 0.59160  0.08401  0.80072  Biso   1.000  F
  F65      1.0000 0.68685  0.48034  0.30110  Biso   1.000  F
  F66      1.0000 0.31315  0.98034  0.19890  Biso   1.000  F
  F67      1.0000 0.31315  0.51966  0.69890  Biso   1.000  F
  F68      1.0000 0.68685  0.01966  0.80110  Biso   1.000  F
  F69      1.0000 0.56205  0.50652  0.28262  Biso   1.000  F
  F70      1.0000 0.43795  0.00652  0.21738  Biso   1.000  F
  F71      1.0000 0.43795  0.49348  0.71738  Biso   1.000  F
  F72      1.0000 0.56205  0.99348  0.78262  Biso   1.000  F
  O1       1.0000 0.30060  0.28542  0.94783  Biso   1.000  O
  O2       1.0000 0.69940  0.78542  0.55217  Biso   1.000  O
  O3       1.0000 0.69940  0.71458  0.05217  Biso   1.000  O
  O4       1.0000 0.30060  0.21458  0.44783  Biso   1.000  O
  O5       1.0000 0.25226  0.17258  0.88826  Biso   1.000  O
  O6       1.0000 0.74774  0.67258  0.61174  Biso   1.000  O
  O7       1.0000 0.74774  0.82742  0.11174  Biso   1.000  O
  O8       1.0000 0.25226  0.32742  0.38826  Biso   1.000  O
  O9       1.0000 0.32075  0.27600  0.80735  Biso   1.000  O
  O10      1.0000 0.67925  0.77600  0.69265  Biso   1.000  O
  O11      1.0000 0.67925  0.72400  0.19265  Biso   1.000  O
  O12      1.0000 0.32075  0.22400  0.30735  Biso   1.000  O
  O13      1.0000 0.46354  0.29973  0.90277  Biso   1.000  O
  O14      1.0000 0.53646  0.79973  0.59723  Biso   1.000  O
  O15      1.0000 0.53646  0.70027  0.09723  Biso   1.000  O
  O16      1.0000 0.46354  0.20027  0.40277  Biso   1.000  O
  O17      1.0000 0.60817  0.48142  0.54195  Biso   1.000  O
  O18      1.0000 0.39183  0.98142  0.95805  Biso   1.000  O
  O19      1.0000 0.39183  0.51858  0.45805  Biso   1.000  O
  O20      1.0000 0.60817  0.01858  0.04195  Biso   1.000  O
  O21      1.0000 0.53147  0.48268  0.40914  Biso   1.000  O
  O22      1.0000 0.46853  0.98268  0.09086  Biso   1.000  O
  O23      1.0000 0.46853  0.51732  0.59086  Biso   1.000  O
  O24      1.0000 0.53147  0.01732  0.90914  Biso   1.000  O
  O25      1.0000 0.41934  0.17562  0.83638  Biso   1.000  O
  O26      1.0000 0.58066  0.67562  0.66362  Biso   1.000  O
  O27      1.0000 0.58066  0.82438  0.16362  Biso   1.000  O
  O28      1.0000 0.41934  0.32438  0.33638  Biso   1.000  O
  N1       1.0000 0.41020  0.31082  0.47131  Biso   1.000  N
  N2       1.0000 0.58980  0.81082  0.02869  Biso   1.000  N
  N3       1.0000 0.58980  0.68918  0.52869  Biso   1.000  N
  N4       1.0000 0.41020  0.18918  0.97131  Biso   1.000  N
  N5       1.0000 0.46030  0.40001  0.51872  Biso   1.000  N
  N6       1.0000 0.53970  0.90001  0.98128  Biso   1.000  N
  N7       1.0000 0.53970  0.59999  0.48128  Biso   1.000  N
  N8       1.0000 0.46030  0.09999  0.01872  Biso   1.000  N
  N9       1.0000 0.41510  0.17399  0.77061  Biso   1.000  N
  N10      1.0000 0.58490  0.67399  0.72939  Biso   1.000  N
  N11      1.0000 0.58490  0.82601  0.22939  Biso   1.000  N
  N12      1.0000 0.41510  0.32601  0.27061  Biso   1.000  N
  C1       1.0000 0.20920  0.32730  0.01750  Biso   1.000  C
  C2       1.0000 0.79080  0.82730  0.48250  Biso   1.000  C
  C3       1.0000 0.79080  0.67270  0.98250  Biso   1.000  C
  C4       1.0000 0.20920  0.17270  0.51750  Biso   1.000  C
  C5       1.0000 0.23540  0.27550  0.97490  Biso   1.000  C
  C6       1.0000 0.76460  0.77550  0.52510  Biso   1.000  C
  C7       1.0000 0.76460  0.72450  0.02510  Biso   1.000  C
  C8       1.0000 0.23540  0.22450  0.47490  Biso   1.000  C
  C9       1.0000 0.18440  0.22760  0.96900  Biso   1.000  C
  C10      1.0000 0.81560  0.72760  0.53100  Biso   1.000  C
  C11      1.0000 0.81560  0.77240  0.03100  Biso   1.000  C
  C12      1.0000 0.18440  0.27240  0.46900  Biso   1.000  C
  H1       1.0000 0.13920  0.22650  0.99600  Biso   1.000  H
  H2       1.0000 0.86080  0.72650  0.50400  Biso   1.000  H
  H3       1.0000 0.86080  0.77350  0.00400  Biso   1.000  H
  H4       1.0000 0.13920  0.27350  0.49600  Biso   1.000  H
  C13      1.0000 0.19600  0.17980  0.92450  Biso   1.000  C
  C14      1.0000 0.80400  0.67980  0.57550  Biso   1.000  C
  C15      1.0000 0.80400  0.82020  0.07550  Biso   1.000  C
  C16      1.0000 0.19600  0.32020  0.42450  Biso   1.000  C
  C17      1.0000 0.13240  0.13120  0.92290  Biso   1.000  C
  C18      1.0000 0.86760  0.63120  0.57710  Biso   1.000  C
  C19      1.0000 0.86760  0.86880  0.07710  Biso   1.000  C
  C20      1.0000 0.13240  0.36880  0.42290  Biso   1.000  C
  C21      1.0000 0.29580  0.34870  0.72500  Biso   1.000  C
  C22      1.0000 0.70420  0.84870  0.77500  Biso   1.000  C
  C23      1.0000 0.70420  0.65130  0.27500  Biso   1.000  C
  C24      1.0000 0.29580  0.15130  0.22500  Biso   1.000  C
  C25      1.0000 0.34700  0.32477  0.78650  Biso   1.000  C
  C26      1.0000 0.65300  0.82477  0.71350  Biso   1.000  C
  C27      1.0000 0.65300  0.67523  0.21350  Biso   1.000  C
  C28      1.0000 0.34700  0.17523  0.28650  Biso   1.000  C
  C29      1.0000 0.41160  0.35788  0.80910  Biso   1.000  C
  C30      1.0000 0.58840  0.85788  0.69090  Biso   1.000  C
  C31      1.0000 0.58840  0.64212  0.19090  Biso   1.000  C
  C32      1.0000 0.41160  0.14212  0.30910  Biso   1.000  C
  H5       1.0000 0.42170  0.39310  0.78520  Biso   1.000  H
  H6       1.0000 0.57830  0.89310  0.71480  Biso   1.000  H
  H7       1.0000 0.57830  0.60690  0.21480  Biso   1.000  H
  H8       1.0000 0.42170  0.10690  0.28520  Biso   1.000  H
  C33      1.0000 0.46530  0.34330  0.86640  Biso   1.000  C
  C34      1.0000 0.53470  0.84330  0.63360  Biso   1.000  C
  C35      1.0000 0.53470  0.65670  0.13360  Biso   1.000  C
  C36      1.0000 0.46530  0.15670  0.36640  Biso   1.000  C
  C37      1.0000 0.53550  0.38650  0.88350  Biso   1.000  C
  C38      1.0000 0.46450  0.88650  0.61650  Biso   1.000  C
  C39      1.0000 0.46450  0.61350  0.11650  Biso   1.000  C
  C40      1.0000 0.53550  0.11350  0.38350  Biso   1.000  C
  C41      1.0000 0.74460  0.45910  0.55500  Biso   1.000  C
  C42      1.0000 0.25540  0.95910  0.94500  Biso   1.000  C
  C43      1.0000 0.25540  0.54090  0.44500  Biso   1.000  C
  C44      1.0000 0.74460  0.04090  0.05500  Biso   1.000  C
  C45      1.0000 0.66860  0.47483  0.50930  Biso   1.000  C
  C46      1.0000 0.33140  0.97483  0.99070  Biso   1.000  C
  C47      1.0000 0.33140  0.52517  0.49070  Biso   1.000  C
  C48      1.0000 0.66860  0.02517  0.00930  Biso   1.000  C
  C49      1.0000 0.67300  0.47703  0.43910  Biso   1.000  C
  C50      1.0000 0.32700  0.97703  0.06090  Biso   1.000  C
  C51      1.0000 0.32700  0.52297  0.56090  Biso   1.000  C
  C52      1.0000 0.67300  0.02297  0.93910  Biso   1.000  C
  H9       1.0000 0.72470  0.47740  0.42120  Biso   1.000  H
  H10      1.0000 0.27530  0.97740  0.07880  Biso   1.000  H
  H11      1.0000 0.27530  0.52260  0.57880  Biso   1.000  H
  H12      1.0000 0.72470  0.02260  0.92120  Biso   1.000  H
  C53      1.0000 0.60460  0.47870  0.39480  Biso   1.000  C
  C54      1.0000 0.39540  0.97870  0.10520  Biso   1.000  C
  C55      1.0000 0.39540  0.52130  0.60520  Biso   1.000  C
  C56      1.0000 0.60460  0.02130  0.89480  Biso   1.000  C
  C57      1.0000 0.61240  0.47090  0.31870  Biso   1.000  C
  C58      1.0000 0.38760  0.97090  0.18130  Biso   1.000  C
  C59      1.0000 0.38760  0.52910  0.68130  Biso   1.000  C
  C60      1.0000 0.61240  0.02910  0.81870  Biso   1.000  C
  C61      1.0000 0.43250  0.28273  0.52900  Biso   1.000  C
  C62      1.0000 0.56750  0.78273  0.97100  Biso   1.000  C
  C63      1.0000 0.56750  0.71727  0.47100  Biso   1.000  C
  C64      1.0000 0.43250  0.21727  0.02900  Biso   1.000  C
  H13      1.0000 0.42260  0.24160  0.53210  Biso   1.000  H
  H14      1.0000 0.57740  0.74160  0.96790  Biso   1.000  H
  H15      1.0000 0.57740  0.75840  0.46790  Biso   1.000  H
  H16      1.0000 0.42260  0.25840  0.03210  Biso   1.000  H
  C65      1.0000 0.42520  0.36833  0.46914  Biso   1.000  C
  C66      1.0000 0.57480  0.86833  0.03086  Biso   1.000  C
  C67      1.0000 0.57480  0.63167  0.53086  Biso   1.000  C
  C68      1.0000 0.42520  0.13167  0.96914  Biso   1.000  C
  H17      1.0000 0.40910  0.38830  0.42800  Biso   1.000  H
  H18      1.0000 0.59090  0.88830  0.07200  Biso   1.000  H
  H19      1.0000 0.59090  0.61170  0.57200  Biso   1.000  H
  H20      1.0000 0.40910  0.11170  0.92800  Biso   1.000  H
  C69      1.0000 0.48220  0.37142  0.57617  Biso   1.000  C
  C70      1.0000 0.51780  0.87142  0.92383  Biso   1.000  C
  C71      1.0000 0.51780  0.62858  0.42383  Biso   1.000  C
  C72      1.0000 0.48220  0.12858  0.07617  Biso   1.000  C
  H21      1.0000 0.50770  0.39310  0.61300  Biso   1.000  H
  H22      1.0000 0.49230  0.89310  0.88700  Biso   1.000  H
  H23      1.0000 0.49230  0.60690  0.38700  Biso   1.000  H
  H24      1.0000 0.50770  0.10690  0.11300  Biso   1.000  H
  C73      1.0000 0.46980  0.31183  0.58465  Biso   1.000  C
  C74      1.0000 0.53020  0.81183  0.91535  Biso   1.000  C
  C75      1.0000 0.53020  0.68817  0.41535  Biso   1.000  C
  C76      1.0000 0.46980  0.18817  0.08465  Biso   1.000  C
  C77      1.0000 0.49410  0.28158  0.65039  Biso   1.000  C
  C78      1.0000 0.50590  0.78158  0.84961  Biso   1.000  C
  C79      1.0000 0.50590  0.71842  0.34961  Biso   1.000  C
  C80      1.0000 0.49410  0.21842  0.15039  Biso   1.000  C
  C81      1.0000 0.44370  0.24025  0.67642  Biso   1.000  C
  C82      1.0000 0.55630  0.74025  0.82358  Biso   1.000  C
  C83      1.0000 0.55630  0.75975  0.32358  Biso   1.000  C
  C84      1.0000 0.44370  0.25975  0.17642  Biso   1.000  C
  H25      1.0000 0.39440  0.22950  0.65180  Biso   1.000  H
  H26      1.0000 0.60560  0.72950  0.84820  Biso   1.000  H
  H27      1.0000 0.60560  0.77050  0.34820  Biso   1.000  H
  H28      1.0000 0.39440  0.27050  0.15180  Biso   1.000  H
  C85      1.0000 0.46580  0.21424  0.73934  Biso   1.000  C
  C86      1.0000 0.53420  0.71424  0.76066  Biso   1.000  C
  C87      1.0000 0.53420  0.78576  0.26066  Biso   1.000  C
  C88      1.0000 0.46580  0.28576  0.23934  Biso   1.000  C
  C89      1.0000 0.53770  0.22993  0.77460  Biso   1.000  C
  C90      1.0000 0.46230  0.72993  0.72540  Biso   1.000  C
  C91      1.0000 0.46230  0.77007  0.22540  Biso   1.000  C
  C92      1.0000 0.53770  0.27007  0.27460  Biso   1.000  C
  H29      1.0000 0.55210  0.21290  0.81780  Biso   1.000  H
  H30      1.0000 0.44790  0.71290  0.68220  Biso   1.000  H
  H31      1.0000 0.44790  0.78710  0.18220  Biso   1.000  H
  H32      1.0000 0.55210  0.28710  0.31780  Biso   1.000  H
  C93      1.0000 0.58880  0.27010  0.74750  Biso   1.000  C
  C94      1.0000 0.41120  0.77010  0.75250  Biso   1.000  C
  C95      1.0000 0.41120  0.72990  0.25250  Biso   1.000  C
  C96      1.0000 0.58880  0.22990  0.24750  Biso   1.000  C
  H33      1.0000 0.63890  0.28000  0.77130  Biso   1.000  H
  H34      1.0000 0.36110  0.78000  0.72870  Biso   1.000  H
  H35      1.0000 0.36110  0.72000  0.22870  Biso   1.000  H
  H36      1.0000 0.63890  0.22000  0.27130  Biso   1.000  H
  C97      1.0000 0.56640  0.29600  0.68530  Biso   1.000  C
  C98      1.0000 0.43360  0.79600  0.81470  Biso   1.000  C
  C99      1.0000 0.43360  0.70400  0.31470  Biso   1.000  C
  C100     1.0000 0.56640  0.20400  0.18530  Biso   1.000  C
  H37      1.0000 0.60130  0.32400  0.66660  Biso   1.000  H
  H38      1.0000 0.39870  0.82400  0.83340  Biso   1.000  H
  H39      1.0000 0.39870  0.67600  0.33340  Biso   1.000  H
  H40      1.0000 0.60130  0.17600  0.16660  Biso   1.000  H
  C101     1.0000 0.36150  0.12719  0.73641  Biso   1.000  C
  C102     1.0000 0.63850  0.62719  0.76359  Biso   1.000  C
  C103     1.0000 0.63850  0.87281  0.26359  Biso   1.000  C
  C104     1.0000 0.36150  0.37281  0.23641  Biso   1.000  C
  C105     1.0000 0.35430  0.07695  0.78670  Biso   1.000  C
  C106     1.0000 0.64570  0.57695  0.71330  Biso   1.000  C
  C107     1.0000 0.64570  0.92305  0.21330  Biso   1.000  C
  C108     1.0000 0.35430  0.42305  0.28670  Biso   1.000  C
  H41      1.0000 0.32620  0.04370  0.76380  Biso   1.000  H
  H42      1.0000 0.67380  0.54370  0.73620  Biso   1.000  H
  H43      1.0000 0.67380  0.95630  0.23620  Biso   1.000  H
  H44      1.0000 0.32620  0.45630  0.26380  Biso   1.000  H
  H45      1.0000 0.40860  0.06450  0.80440  Biso   1.000  H
  H46      1.0000 0.59140  0.56450  0.69560  Biso   1.000  H
  H47      1.0000 0.59140  0.93550  0.19560  Biso   1.000  H
  H48      1.0000 0.40860  0.43550  0.30440  Biso   1.000  H
  H49      1.0000 0.32350  0.09030  0.82450  Biso   1.000  H
  H50      1.0000 0.67650  0.59030  0.67550  Biso   1.000  H
  H51      1.0000 0.67650  0.90970  0.17550  Biso   1.000  H
  H52      1.0000 0.32350  0.40970  0.32450  Biso   1.000  H
  C109     1.0000 0.40310  0.10382  0.67480  Biso   1.000  C
  C110     1.0000 0.59690  0.60382  0.82520  Biso   1.000  C
  C111     1.0000 0.59690  0.89618  0.32520  Biso   1.000  C
  C112     1.0000 0.40310  0.39618  0.17480  Biso   1.000  C
  H53      1.0000 0.40420  0.13480  0.64030  Biso   1.000  H
  H54      1.0000 0.59580  0.63480  0.85970  Biso   1.000  H
  H55      1.0000 0.59580  0.86520  0.35970  Biso   1.000  H
  H56      1.0000 0.40420  0.36520  0.14030  Biso   1.000  H
  H57      1.0000 0.45880  0.09200  0.68910  Biso   1.000  H
  H58      1.0000 0.54120  0.59200  0.81090  Biso   1.000  H
  H59      1.0000 0.54120  0.90800  0.31090  Biso   1.000  H
  H60      1.0000 0.45880  0.40800  0.18910  Biso   1.000  H
  H61      1.0000 0.37310  0.06970  0.65560  Biso   1.000  H
  H62      1.0000 0.62690  0.56970  0.84440  Biso   1.000  H
  H63      1.0000 0.62690  0.93030  0.34440  Biso   1.000  H
  H64      1.0000 0.37310  0.43030  0.15560  Biso   1.000  H
  C113     1.0000 0.27870  0.15338  0.71700  Biso   1.000  C
  C114     1.0000 0.72130  0.65338  0.78300  Biso   1.000  C
  C115     1.0000 0.72130  0.84662  0.28300  Biso   1.000  C
  C116     1.0000 0.27870  0.34662  0.21700  Biso   1.000  C
  H65      1.0000 0.28420  0.18580  0.68490  Biso   1.000  H
  H66      1.0000 0.71580  0.68580  0.81510  Biso   1.000  H
  H67      1.0000 0.71580  0.81420  0.31510  Biso   1.000  H
  H68      1.0000 0.28420  0.31420  0.18490  Biso   1.000  H
  H69      1.0000 0.24320  0.12300  0.69580  Biso   1.000  H
  H70      1.0000 0.75680  0.62300  0.80420  Biso   1.000  H
  H71      1.0000 0.75680  0.87700  0.30420  Biso   1.000  H
  H72      1.0000 0.24320  0.37700  0.19580  Biso   1.000  H
  H73      1.0000 0.25530  0.16830  0.75790  Biso   1.000  H
  H74      1.0000 0.74470  0.66830  0.74210  Biso   1.000  H
  H75      1.0000 0.74470  0.83170  0.24210  Biso   1.000  H
  H76      1.0000 0.25530  0.33170  0.25790  Biso   1.000  H
  Cu7      1.0000 0.14541  0.77198  0.39667  Biso   1.000  Cu
  Cu8      1.0000 0.85459  0.27198  0.10333  Biso   1.000  Cu
  Cu9      1.0000 0.85459  0.22802  0.60333  Biso   1.000  Cu
  Cu10     1.0000 0.14541  0.72802  0.89667  Biso   1.000  Cu
  Cu11     1.0000 0.00000  0.50000  0.00000  Biso   1.000  Cu
  Cu12     1.0000 0.00000  0.00000  0.50000  Biso   1.000  Cu
  F73      1.0000 0.31880  0.72402  0.60603  Biso   1.000  F
  F74      1.0000 0.68120  0.22402  0.89397  Biso   1.000  F
  F75      1.0000 0.68120  0.27598  0.39397  Biso   1.000  F
  F76      1.0000 0.31880  0.77598  0.10603  Biso   1.000  F
  F77      1.0000 0.37770  0.66628  0.53984  Biso   1.000  F
  F78      1.0000 0.62230  0.16628  0.96016  Biso   1.000  F
  F79      1.0000 0.62230  0.33372  0.46016  Biso   1.000  F
  F80      1.0000 0.37770  0.83372  0.03984  Biso   1.000  F
  F81      1.0000 0.25474  0.65088  0.56058  Biso   1.000  F
  F82      1.0000 0.74526  0.15088  0.93942  Biso   1.000  F
  F83      1.0000 0.74526  0.34912  0.43942  Biso   1.000  F
  F84      1.0000 0.25474  0.84912  0.06058  Biso   1.000  F
  F85      1.0000 0.45698  0.84266  0.43005  Biso   1.000  F
  F86      1.0000 0.54302  0.34266  0.06995  Biso   1.000  F
  F87      1.0000 0.54302  0.15734  0.56995  Biso   1.000  F
  F88      1.0000 0.45698  0.65734  0.93005  Biso   1.000  F
  F89      1.0000 0.37100  0.91088  0.41270  Biso   1.000  F
  F90      1.0000 0.62900  0.41088  0.08730  Biso   1.000  F
  F91      1.0000 0.62900  0.08912  0.58730  Biso   1.000  F
  F92      1.0000 0.37100  0.58912  0.91270  Biso   1.000  F
  F93      1.0000 0.39235  0.85092  0.33450  Biso   1.000  F
  F94      1.0000 0.60765  0.35092  0.16550  Biso   1.000  F
  F95      1.0000 0.60765  0.14908  0.66550  Biso   1.000  F
  F96      1.0000 0.39235  0.64908  0.83450  Biso   1.000  F
  F97      1.0000 0.21959  0.68894  0.19198  Biso   1.000  F
  F98      1.0000 0.78041  0.18894  0.30802  Biso   1.000  F
  F99      1.0000 0.78041  0.31106  0.80802  Biso   1.000  F
  F100     1.0000 0.21959  0.81106  0.69198  Biso   1.000  F
  F101     1.0000 0.26520  0.62186  0.26030  Biso   1.000  F
  F102     1.0000 0.73480  0.12186  0.23970  Biso   1.000  F
  F103     1.0000 0.73480  0.37814  0.73970  Biso   1.000  F
  F104     1.0000 0.26520  0.87814  0.76030  Biso   1.000  F
  F105     1.0000 0.15377  0.60900  0.19868  Biso   1.000  F
  F106     1.0000 0.84623  0.10900  0.30132  Biso   1.000  F
  F107     1.0000 0.84623  0.39100  0.80132  Biso   1.000  F
  F108     1.0000 0.15377  0.89100  0.69868  Biso   1.000  F
  F109     1.0000 0.94240  0.59093  0.32980  Biso   1.000  F
  F110     1.0000 0.05760  0.09093  0.17020  Biso   1.000  F
  F111     1.0000 0.05760  0.40907  0.67020  Biso   1.000  F
  F112     1.0000 0.94240  0.90907  0.82980  Biso   1.000  F
  F113     1.0000 0.90520  0.65620  0.39670  Biso   1.000  F
  F114     1.0000 0.09480  0.15620  0.10330  Biso   1.000  F
  F115     1.0000 0.09480  0.34380  0.60330  Biso   1.000  F
  F116     1.0000 0.90520  0.84380  0.89670  Biso   1.000  F
  F117     1.0000 0.98870  0.59200  0.43260  Biso   1.000  F
  F118     1.0000 0.01130  0.09200  0.06740  Biso   1.000  F
  F119     1.0000 0.01130  0.40800  0.56740  Biso   1.000  F
  F120     1.0000 0.98870  0.90800  0.93260  Biso   1.000  F
  F121     1.0000 0.73790  0.42998  0.99410  Biso   1.000  F
  F122     1.0000 0.26210  0.92998  0.50590  Biso   1.000  F
  F123     1.0000 0.26210  0.57002  0.00590  Biso   1.000  F
  F124     1.0000 0.73790  0.07002  0.49410  Biso   1.000  F
  F125     1.0000 0.73600  0.50761  0.05408  Biso   1.000  F
  F126     1.0000 0.26400  0.00761  0.44592  Biso   1.000  F
  F127     1.0000 0.26400  0.49239  0.94592  Biso   1.000  F
  F128     1.0000 0.73600  0.99239  0.55408  Biso   1.000  F
  F129     1.0000 0.68520  0.50850  0.95290  Biso   1.000  F
  F130     1.0000 0.31480  0.00850  0.54710  Biso   1.000  F
  F131     1.0000 0.31480  0.49150  0.04710  Biso   1.000  F
  F132     1.0000 0.68520  0.99150  0.45290  Biso   1.000  F
  F133     1.0000 0.96182  0.49355  0.76771  Biso   1.000  F
  F134     1.0000 0.03818  0.99355  0.73229  Biso   1.000  F
  F135     1.0000 0.03818  0.50645  0.23229  Biso   1.000  F
  F136     1.0000 0.96182  0.00645  0.26771  Biso   1.000  F
  F137     1.0000 0.93067  0.58367  0.78448  Biso   1.000  F
  F138     1.0000 0.06933  0.08367  0.71552  Biso   1.000  F
  F139     1.0000 0.06933  0.41633  0.21552  Biso   1.000  F
  F140     1.0000 0.93067  0.91633  0.28448  Biso   1.000  F
  F141     1.0000 0.83700  0.52027  0.76171  Biso   1.000  F
  F142     1.0000 0.16300  0.02027  0.73829  Biso   1.000  F
  F143     1.0000 0.16300  0.47973  0.23829  Biso   1.000  F
  F144     1.0000 0.83700  0.97973  0.26171  Biso   1.000  F
  O29      1.0000 0.20715  0.72571  0.46871  Biso   1.000  O
  O30      1.0000 0.79285  0.22571  0.03129  Biso   1.000  O
  O31      1.0000 0.79285  0.27429  0.53129  Biso   1.000  O
  O32      1.0000 0.20715  0.77429  0.96871  Biso   1.000  O
  O33      1.0000 0.24849  0.82673  0.39252  Biso   1.000  O
  O34      1.0000 0.75151  0.32673  0.10748  Biso   1.000  O
  O35      1.0000 0.75151  0.17327  0.60748  Biso   1.000  O
  O36      1.0000 0.24849  0.67327  0.89252  Biso   1.000  O
  O37      1.0000 0.18460  0.72229  0.31670  Biso   1.000  O
  O38      1.0000 0.81540  0.22229  0.18330  Biso   1.000  O
  O39      1.0000 0.81540  0.27771  0.68330  Biso   1.000  O
  O40      1.0000 0.18460  0.77771  0.81670  Biso   1.000  O
  O41      1.0000 0.04820  0.70942  0.40019  Biso   1.000  O
  O42      1.0000 0.95180  0.20942  0.09981  Biso   1.000  O
  O43      1.0000 0.95180  0.29058  0.59981  Biso   1.000  O
  O44      1.0000 0.04820  0.79058  0.90019  Biso   1.000  O
  O45      1.0000 0.88404  0.50500  0.01576  Biso   1.000  O
  O46      1.0000 0.11596  0.00500  0.48424  Biso   1.000  O
  O47      1.0000 0.11596  0.49500  0.98424  Biso   1.000  O
  O48      1.0000 0.88404  0.99500  0.51576  Biso   1.000  O
  O49      1.0000 0.97782  0.51722  0.90152  Biso   1.000  O
  O50      1.0000 0.02218  0.01722  0.59848  Biso   1.000  O
  O51      1.0000 0.02218  0.48278  0.09848  Biso   1.000  O
  O52      1.0000 0.97782  0.98278  0.40152  Biso   1.000  O
  O53      1.0000 0.08222  0.82748  0.33659  Biso   1.000  O
  O54      1.0000 0.91778  0.32748  0.16341  Biso   1.000  O
  O55      1.0000 0.91778  0.17252  0.66341  Biso   1.000  O
  O56      1.0000 0.08222  0.67252  0.83659  Biso   1.000  O
  N13      1.0000 0.08530  0.68458  0.97812  Biso   1.000  N
  N14      1.0000 0.91470  0.18458  0.52188  Biso   1.000  N
  N15      1.0000 0.91470  0.31542  0.02188  Biso   1.000  N
  N16      1.0000 0.08530  0.81542  0.47812  Biso   1.000  N
  N17      1.0000 0.02560  0.59855  0.01927  Biso   1.000  N
  N18      1.0000 0.97440  0.09855  0.48073  Biso   1.000  N
  N19      1.0000 0.97440  0.40145  0.98073  Biso   1.000  N
  N20      1.0000 0.02560  0.90145  0.51927  Biso   1.000  N
  N21      1.0000 0.08390  0.82869  0.27081  Biso   1.000  N
  N22      1.0000 0.91610  0.32869  0.22919  Biso   1.000  N
  N23      1.0000 0.91610  0.17131  0.72919  Biso   1.000  N
  N24      1.0000 0.08390  0.67131  0.77081  Biso   1.000  N
  C117     1.0000 0.30780  0.69240  0.54870  Biso   1.000  C
  C118     1.0000 0.69220  0.19240  0.95130  Biso   1.000  C
  C119     1.0000 0.69220  0.30760  0.45130  Biso   1.000  C
  C120     1.0000 0.30780  0.80760  0.04870  Biso   1.000  C
  C121     1.0000 0.27910  0.73277  0.48910  Biso   1.000  C
  C122     1.0000 0.72090  0.23277  0.01090  Biso   1.000  C
  C123     1.0000 0.72090  0.26723  0.51090  Biso   1.000  C
  C124     1.0000 0.27910  0.76723  0.98910  Biso   1.000  C
  C125     1.0000 0.33530  0.77220  0.46870  Biso   1.000  C
  C126     1.0000 0.66470  0.27220  0.03130  Biso   1.000  C
  C127     1.0000 0.66470  0.22780  0.53130  Biso   1.000  C
  C128     1.0000 0.33530  0.72780  0.96870  Biso   1.000  C
  H77      1.0000 0.38960  0.76910  0.48770  Biso   1.000  H
  H78      1.0000 0.61040  0.26910  0.01230  Biso   1.000  H
  H79      1.0000 0.61040  0.23090  0.51230  Biso   1.000  H
  H80      1.0000 0.38960  0.73090  0.98770  Biso   1.000  H
  C129     1.0000 0.31620  0.81616  0.42180  Biso   1.000  C
  C130     1.0000 0.68380  0.31616  0.07820  Biso   1.000  C
  C131     1.0000 0.68380  0.18384  0.57820  Biso   1.000  C
  C132     1.0000 0.31620  0.68384  0.92180  Biso   1.000  C
  C133     1.0000 0.38310  0.85650  0.40090  Biso   1.000  C
  C134     1.0000 0.61690  0.35650  0.09910  Biso   1.000  C
  C135     1.0000 0.61690  0.14350  0.59910  Biso   1.000  C
  C136     1.0000 0.38310  0.64350  0.90090  Biso   1.000  C
  C137     1.0000 0.19820  0.64830  0.23610  Biso   1.000  C
  C138     1.0000 0.80180  0.14830  0.26390  Biso   1.000  C
  C139     1.0000 0.80180  0.35170  0.76390  Biso   1.000  C
  C140     1.0000 0.19820  0.85170  0.73610  Biso   1.000  C
  C141     1.0000 0.15350  0.67540  0.29380  Biso   1.000  C
  C142     1.0000 0.84650  0.17540  0.20620  Biso   1.000  C
  C143     1.0000 0.84650  0.32460  0.70620  Biso   1.000  C
  C144     1.0000 0.15350  0.82460  0.79380  Biso   1.000  C
  C145     1.0000 0.08560  0.64580  0.31190  Biso   1.000  C
  C146     1.0000 0.91440  0.14580  0.18810  Biso   1.000  C
  C147     1.0000 0.91440  0.35420  0.68810  Biso   1.000  C
  C148     1.0000 0.08560  0.85420  0.81190  Biso   1.000  C
  H81      1.0000 0.06940  0.61110  0.28770  Biso   1.000  H
  H82      1.0000 0.93060  0.11110  0.21230  Biso   1.000  H
  H83      1.0000 0.93060  0.38890  0.71230  Biso   1.000  H
  H84      1.0000 0.06940  0.88890  0.78770  Biso   1.000  H
  C149     1.0000 0.03980  0.66460  0.36420  Biso   1.000  C
  C150     1.0000 0.96020  0.16460  0.13580  Biso   1.000  C
  C151     1.0000 0.96020  0.33540  0.63580  Biso   1.000  C
  C152     1.0000 0.03980  0.83540  0.86420  Biso   1.000  C
  C153     1.0000 0.96770  0.62600  0.38030  Biso   1.000  C
  C154     1.0000 0.03230  0.12600  0.11970  Biso   1.000  C
  C155     1.0000 0.03230  0.37400  0.61970  Biso   1.000  C
  C156     1.0000 0.96770  0.87400  0.88030  Biso   1.000  C
  C157     1.0000 0.74460  0.48940  0.99290  Biso   1.000  C
  C158     1.0000 0.25540  0.98940  0.50710  Biso   1.000  C
  C159     1.0000 0.25540  0.51060  0.00710  Biso   1.000  C
  C160     1.0000 0.74460  0.01060  0.49290  Biso   1.000  C
  C161     1.0000 0.82870  0.50432  0.96930  Biso   1.000  C
  C162     1.0000 0.17130  0.00432  0.53070  Biso   1.000  C
  C163     1.0000 0.17130  0.49568  0.03070  Biso   1.000  C
  C164     1.0000 0.82870  0.99568  0.46930  Biso   1.000  C
  C165     1.0000 0.83440  0.51038  0.89910  Biso   1.000  C
  C166     1.0000 0.16560  0.01038  0.60090  Biso   1.000  C
  C167     1.0000 0.16560  0.48962  0.10090  Biso   1.000  C
  C168     1.0000 0.83440  0.98962  0.39910  Biso   1.000  C
  H85      1.0000 0.78630  0.50950  0.86970  Biso   1.000  H
  H86      1.0000 0.21370  0.00950  0.63030  Biso   1.000  H
  H87      1.0000 0.21370  0.49050  0.13030  Biso   1.000  H
  H88      1.0000 0.78630  0.99050  0.36970  Biso   1.000  H
  C169     1.0000 0.90730  0.51753  0.87210  Biso   1.000  C
  C170     1.0000 0.09270  0.01753  0.62790  Biso   1.000  C
  C171     1.0000 0.09270  0.48247  0.12790  Biso   1.000  C
  C172     1.0000 0.90730  0.98247  0.37210  Biso   1.000  C
  C173     1.0000 0.90870  0.52858  0.79540  Biso   1.000  C
  C174     1.0000 0.09130  0.02858  0.70460  Biso   1.000  C
  C175     1.0000 0.09130  0.47142  0.20460  Biso   1.000  C
  C176     1.0000 0.90870  0.97142  0.29540  Biso   1.000  C
  C177     1.0000 0.06280  0.71447  0.03251  Biso   1.000  C
  C178     1.0000 0.93720  0.21447  0.46749  Biso   1.000  C
  C179     1.0000 0.93720  0.28553  0.96749  Biso   1.000  C
  C180     1.0000 0.06280  0.78553  0.53251  Biso   1.000  C
  H89      1.0000 0.07520  0.75520  0.03630  Biso   1.000  H
  H90      1.0000 0.92480  0.25520  0.46370  Biso   1.000  H
  H91      1.0000 0.92480  0.24480  0.96370  Biso   1.000  H
  H92      1.0000 0.07520  0.74480  0.53630  Biso   1.000  H
  C181     1.0000 0.06460  0.62793  0.97440  Biso   1.000  C
  C182     1.0000 0.93540  0.12793  0.52560  Biso   1.000  C
  C183     1.0000 0.93540  0.37207  0.02560  Biso   1.000  C
  C184     1.0000 0.06460  0.87207  0.47440  Biso   1.000  C
  H93      1.0000 0.07940  0.60670  0.93570  Biso   1.000  H
  H94      1.0000 0.92060  0.10670  0.56430  Biso   1.000  H
  H95      1.0000 0.92060  0.39330  0.06430  Biso   1.000  H
  H96      1.0000 0.07940  0.89330  0.43570  Biso   1.000  H
  C185     1.0000 0.00450  0.62896  0.07370  Biso   1.000  C
  C186     1.0000 0.99550  0.12896  0.42630  Biso   1.000  C
  C187     1.0000 0.99550  0.37104  0.92630  Biso   1.000  C
  C188     1.0000 0.00450  0.87104  0.57370  Biso   1.000  C
  H97      1.0000 0.97630  0.60910  0.10710  Biso   1.000  H
  H98      1.0000 0.02370  0.10910  0.39290  Biso   1.000  H
  H99      1.0000 0.02370  0.39090  0.89290  Biso   1.000  H
  H100     1.0000 0.97630  0.89090  0.60710  Biso   1.000  H
  C189     1.0000 0.02230  0.68793  0.08282  Biso   1.000  C
  C190     1.0000 0.97770  0.18793  0.41718  Biso   1.000  C
  C191     1.0000 0.97770  0.31207  0.91718  Biso   1.000  C
  C192     1.0000 0.02230  0.81207  0.58282  Biso   1.000  C
  C193     1.0000 0.99880  0.72013  0.14420  Biso   1.000  C
  C194     1.0000 0.00120  0.22013  0.35580  Biso   1.000  C
  C195     1.0000 0.00120  0.27987  0.85580  Biso   1.000  C
  C196     1.0000 0.99880  0.77987  0.64420  Biso   1.000  C
  C197     1.0000 0.05050  0.76126  0.17564  Biso   1.000  C
  C198     1.0000 0.94950  0.26126  0.32436  Biso   1.000  C
  C199     1.0000 0.94950  0.23874  0.82436  Biso   1.000  C
  C200     1.0000 0.05050  0.73874  0.67564  Biso   1.000  C
  H101     1.0000 0.10010  0.77080  0.15680  Biso   1.000  H
  H102     1.0000 0.89990  0.27080  0.34320  Biso   1.000  H
  H103     1.0000 0.89990  0.22920  0.84320  Biso   1.000  H
  H104     1.0000 0.10010  0.72920  0.65680  Biso   1.000  H
  C201     1.0000 0.02980  0.78871  0.23510  Biso   1.000  C
  C202     1.0000 0.97020  0.28871  0.26490  Biso   1.000  C
  C203     1.0000 0.97020  0.21129  0.76490  Biso   1.000  C
  C204     1.0000 0.02980  0.71129  0.73510  Biso   1.000  C
  C205     1.0000 0.95700  0.77659  0.26170  Biso   1.000  C
  C206     1.0000 0.04300  0.27659  0.23830  Biso   1.000  C
  C207     1.0000 0.04300  0.22341  0.73830  Biso   1.000  C
  C208     1.0000 0.95700  0.72341  0.76170  Biso   1.000  C
  H105     1.0000 0.94330  0.79550  0.30230  Biso   1.000  H
  H106     1.0000 0.05670  0.29550  0.19770  Biso   1.000  H
  H107     1.0000 0.05670  0.20450  0.69770  Biso   1.000  H
  H108     1.0000 0.94330  0.70450  0.80230  Biso   1.000  H
  C209     1.0000 0.90480  0.73740  0.22960  Biso   1.000  C
  C210     1.0000 0.09520  0.23740  0.27040  Biso   1.000  C
  C211     1.0000 0.09520  0.26260  0.77040  Biso   1.000  C
  C212     1.0000 0.90480  0.76260  0.72960  Biso   1.000  C
  H109     1.0000 0.85430  0.72960  0.24770  Biso   1.000  H
  H110     1.0000 0.14570  0.22960  0.25230  Biso   1.000  H
  H111     1.0000 0.14570  0.27040  0.75230  Biso   1.000  H
  H112     1.0000 0.85430  0.77040  0.74770  Biso   1.000  H
  C213     1.0000 0.92450  0.70870  0.17090  Biso   1.000  C
  C214     1.0000 0.07550  0.20870  0.32910  Biso   1.000  C
  C215     1.0000 0.07550  0.29130  0.82910  Biso   1.000  C
  C216     1.0000 0.92450  0.79130  0.67090  Biso   1.000  C
  H113     1.0000 0.88770  0.68140  0.14900  Biso   1.000  H
  H114     1.0000 0.11230  0.18140  0.35100  Biso   1.000  H
  H115     1.0000 0.11230  0.31860  0.85100  Biso   1.000  H
  H116     1.0000 0.88770  0.81860  0.64900  Biso   1.000  H
  C217     1.0000 0.13770  0.87334  0.24000  Biso   1.000  C
  C218     1.0000 0.86230  0.37334  0.26000  Biso   1.000  C
  C219     1.0000 0.86230  0.12666  0.76000  Biso   1.000  C
  C220     1.0000 0.13770  0.62666  0.74000  Biso   1.000  C
  C221     1.0000 0.15270  0.92370  0.29160  Biso   1.000  C
  C222     1.0000 0.84730  0.42370  0.20840  Biso   1.000  C
  C223     1.0000 0.84730  0.07630  0.70840  Biso   1.000  C
  C224     1.0000 0.15270  0.57630  0.79160  Biso   1.000  C
  H117     1.0000 0.18340  0.90880  0.33240  Biso   1.000  H
  H118     1.0000 0.81660  0.40880  0.16760  Biso   1.000  H
  H119     1.0000 0.81660  0.09120  0.66760  Biso   1.000  H
  H120     1.0000 0.18340  0.59120  0.83240  Biso   1.000  H
  H121     1.0000 0.18360  0.95510  0.27130  Biso   1.000  H
  H122     1.0000 0.81640  0.45510  0.22870  Biso   1.000  H
  H123     1.0000 0.81640  0.04490  0.72870  Biso   1.000  H
  H124     1.0000 0.18360  0.54490  0.77130  Biso   1.000  H
  H125     1.0000 0.10060  0.93940  0.30400  Biso   1.000  H
  H126     1.0000 0.89940  0.43940  0.19600  Biso   1.000  H
  H127     1.0000 0.89940  0.06060  0.69600  Biso   1.000  H
  H128     1.0000 0.10060  0.56060  0.80400  Biso   1.000  H
  C225     1.0000 0.09460  0.89770  0.17480  Biso   1.000  C
  C226     1.0000 0.90540  0.39770  0.32520  Biso   1.000  C
  C227     1.0000 0.90540  0.10230  0.82520  Biso   1.000  C
  C228     1.0000 0.09460  0.60230  0.67480  Biso   1.000  C
  H129     1.0000 0.03910  0.90910  0.18340  Biso   1.000  H
  H130     1.0000 0.96090  0.40910  0.31660  Biso   1.000  H
  H131     1.0000 0.96090  0.09090  0.81660  Biso   1.000  H
  H132     1.0000 0.03910  0.59090  0.68340  Biso   1.000  H
  H133     1.0000 0.12400  0.93230  0.15980  Biso   1.000  H
  H134     1.0000 0.87600  0.43230  0.34020  Biso   1.000  H
  H135     1.0000 0.87600  0.06770  0.84020  Biso   1.000  H
  H136     1.0000 0.12400  0.56770  0.65980  Biso   1.000  H
  H137     1.0000 0.09300  0.86740  0.13930  Biso   1.000  H
  H138     1.0000 0.90700  0.36740  0.36070  Biso   1.000  H
  H139     1.0000 0.90700  0.13260  0.86070  Biso   1.000  H
  H140     1.0000 0.09300  0.63260  0.63930  Biso   1.000  H
  C229     1.0000 0.21860  0.84370  0.22680  Biso   1.000  C
  C230     1.0000 0.78140  0.34370  0.27320  Biso   1.000  C
  C231     1.0000 0.78140  0.15630  0.77320  Biso   1.000  C
  C232     1.0000 0.21860  0.65630  0.72680  Biso   1.000  C
  H141     1.0000 0.20910  0.81290  0.19230  Biso   1.000  H
  H142     1.0000 0.79090  0.31290  0.30770  Biso   1.000  H
  H143     1.0000 0.79090  0.18710  0.80770  Biso   1.000  H
  H144     1.0000 0.20910  0.68710  0.69230  Biso   1.000  H
  H145     1.0000 0.25580  0.87320  0.21050  Biso   1.000  H
  H146     1.0000 0.74420  0.37320  0.28950  Biso   1.000  H
  H147     1.0000 0.74420  0.12680  0.78950  Biso   1.000  H
  H148     1.0000 0.25580  0.62680  0.71050  Biso   1.000  H
  H149     1.0000 0.24240  0.82620  0.26900  Biso   1.000  H
  H150     1.0000 0.75760  0.32620  0.23100  Biso   1.000  H
  H151     1.0000 0.75760  0.17380  0.73100  Biso   1.000  H
  H152     1.0000 0.24240  0.67380  0.76900  Biso   1.000  H
