data_image0
_cell_length_a       11.401
_cell_length_b       18.465
_cell_length_c       13.131
_cell_angle_alpha    90
_cell_angle_beta     92.081
_cell_angle_gamma    90

_symmetry_space_group_name_H-M    "P 1"
_symmetry_int_tables_number       1

loop_
  _symmetry_equiv_pos_as_xyz
  'x, y, z'

loop_
  _atom_site_label
  _atom_site_occupancy
  _atom_site_fract_x
  _atom_site_fract_y
  _atom_site_fract_z
  _atom_site_thermal_displace_type
  _atom_site_B_iso_or_equiv
  _atom_site_type_symbol
  Cu1      1.0000 0.00000  0.00000  0.00000  Biso   1.000  Cu
  Cu2      1.0000 0.50000  0.50000  0.50000  Biso   1.000  Cu
  Cu3      1.0000 0.00000  0.00000  0.50000  Biso   1.000  Cu
  Cu4      1.0000 0.50000  0.50000  0.00000  Biso   1.000  Cu
  O1       1.0000 0.09010  0.06010  0.10220  Biso   1.000  O
  O2       1.0000 0.59010  0.43990  0.60220  Biso   1.000  O
  O3       1.0000 0.90990  0.93990  0.89780  Biso   1.000  O
  O4       1.0000 0.40990  0.56010  0.39780  Biso   1.000  O
  O5       1.0000 0.95140  0.93750  0.10970  Biso   1.000  O
  O6       1.0000 0.45140  0.56250  0.60970  Biso   1.000  O
  O7       1.0000 0.04860  0.06250  0.89030  Biso   1.000  O
  O8       1.0000 0.54860  0.43750  0.39030  Biso   1.000  O
  O9       1.0000 0.14540  0.91090  0.00720  Biso   1.000  O
  O10      1.0000 0.64540  0.58910  0.50720  Biso   1.000  O
  O11      1.0000 0.85460  0.08910  0.99280  Biso   1.000  O
  O12      1.0000 0.35460  0.41090  0.49280  Biso   1.000  O
  O13      1.0000 0.05250  0.74410  0.32470  Biso   1.000  O
  O14      1.0000 0.55250  0.75590  0.82470  Biso   1.000  O
  O15      1.0000 0.94750  0.25590  0.67530  Biso   1.000  O
  O16      1.0000 0.44750  0.24410  0.17530  Biso   1.000  O
  O17      1.0000 0.77170  0.77340  0.18060  Biso   1.000  O
  O18      1.0000 0.27170  0.72660  0.68060  Biso   1.000  O
  O19      1.0000 0.22830  0.22660  0.81940  Biso   1.000  O
  O20      1.0000 0.72830  0.27340  0.31940  Biso   1.000  O
  O21      1.0000 0.80370  0.95295  0.49730  Biso   1.000  O
  O22      1.0000 0.30370  0.54705  0.99730  Biso   1.000  O
  O23      1.0000 0.19630  0.04705  0.50270  Biso   1.000  O
  O24      1.0000 0.69630  0.45295  0.00270  Biso   1.000  O
  O25      1.0000 0.99240  0.93319  0.38470  Biso   1.000  O
  O26      1.0000 0.49240  0.56681  0.88470  Biso   1.000  O
  O27      1.0000 0.00760  0.06681  0.61530  Biso   1.000  O
  O28      1.0000 0.50760  0.43319  0.11530  Biso   1.000  O
  O29      1.0000 0.94270  0.07870  0.41080  Biso   1.000  O
  O30      1.0000 0.44270  0.42130  0.91080  Biso   1.000  O
  O31      1.0000 0.05730  0.92130  0.58920  Biso   1.000  O
  O32      1.0000 0.55730  0.57870  0.08920  Biso   1.000  O
  O33      1.0000 0.17530  0.98360  0.26170  Biso   1.000  O
  O34      1.0000 0.67530  0.51640  0.76170  Biso   1.000  O
  O35      1.0000 0.82470  0.01640  0.73830  Biso   1.000  O
  O36      1.0000 0.32470  0.48360  0.23830  Biso   1.000  O
  O37      1.0000 0.81940  0.03300  0.24680  Biso   1.000  O
  O38      1.0000 0.31940  0.46700  0.74680  Biso   1.000  O
  O39      1.0000 0.18060  0.96700  0.75320  Biso   1.000  O
  O40      1.0000 0.68060  0.53300  0.25320  Biso   1.000  O
  O41      1.0000 0.81900  0.18930  0.48840  Biso   1.000  O
  O42      1.0000 0.31900  0.31070  0.98840  Biso   1.000  O
  O43      1.0000 0.18100  0.81070  0.51160  Biso   1.000  O
  O44      1.0000 0.68100  0.68930  0.01160  Biso   1.000  O
  O45      1.0000 0.25550  0.14420  0.01830  Biso   1.000  O
  O46      1.0000 0.75550  0.35580  0.51830  Biso   1.000  O
  O47      1.0000 0.74450  0.85580  0.98170  Biso   1.000  O
  O48      1.0000 0.24450  0.64420  0.48170  Biso   1.000  O
  C1       1.0000 0.01340  0.88270  0.13600  Biso   1.000  C
  C2       1.0000 0.51340  0.61730  0.63600  Biso   1.000  C
  C3       1.0000 0.98660  0.11730  0.86400  Biso   1.000  C
  C4       1.0000 0.48660  0.38270  0.36400  Biso   1.000  C
  C5       1.0000 0.12250  0.86900  0.07680  Biso   1.000  C
  C6       1.0000 0.62250  0.63100  0.57680  Biso   1.000  C
  C7       1.0000 0.87750  0.13100  0.92320  Biso   1.000  C
  C8       1.0000 0.37750  0.36900  0.42320  Biso   1.000  C
  C9       1.0000 0.19740  0.80610  0.10190  Biso   1.000  C
  C10      1.0000 0.69740  0.69390  0.60190  Biso   1.000  C
  C11      1.0000 0.80260  0.19390  0.89810  Biso   1.000  C
  C12      1.0000 0.30260  0.30610  0.39810  Biso   1.000  C
  C13      1.0000 0.29490  0.79200  0.04430  Biso   1.000  C
  C14      1.0000 0.79490  0.70800  0.54430  Biso   1.000  C
  C15      1.0000 0.70510  0.20800  0.95570  Biso   1.000  C
  C16      1.0000 0.20510  0.29200  0.45570  Biso   1.000  C
  C17      1.0000 0.36520  0.73350  0.07210  Biso   1.000  C
  C18      1.0000 0.86520  0.76650  0.57210  Biso   1.000  C
  C19      1.0000 0.63480  0.26650  0.92790  Biso   1.000  C
  C20      1.0000 0.13480  0.23350  0.42790  Biso   1.000  C
  C21      1.0000 0.33960  0.69110  0.15440  Biso   1.000  C
  C22      1.0000 0.83960  0.80890  0.65440  Biso   1.000  C
  C23      1.0000 0.66040  0.30890  0.84560  Biso   1.000  C
  C24      1.0000 0.16040  0.19110  0.34560  Biso   1.000  C
  C25      1.0000 0.24500  0.70520  0.21110  Biso   1.000  C
  C26      1.0000 0.74500  0.79480  0.71110  Biso   1.000  C
  C27      1.0000 0.75500  0.29480  0.78890  Biso   1.000  C
  C28      1.0000 0.25500  0.20520  0.28890  Biso   1.000  C
  C29      1.0000 0.17280  0.76370  0.18500  Biso   1.000  C
  C30      1.0000 0.67280  0.73630  0.68500  Biso   1.000  C
  C31      1.0000 0.82720  0.23630  0.81500  Biso   1.000  C
  C32      1.0000 0.32720  0.26370  0.31500  Biso   1.000  C
  C33      1.0000 0.06840  0.77930  0.24670  Biso   1.000  C
  C34      1.0000 0.56840  0.72070  0.74670  Biso   1.000  C
  C35      1.0000 0.93160  0.22070  0.75330  Biso   1.000  C
  C36      1.0000 0.43160  0.27930  0.25330  Biso   1.000  C
  C37      1.0000 0.99070  0.83790  0.21640  Biso   1.000  C
  C38      1.0000 0.49070  0.66210  0.71640  Biso   1.000  C
  C39      1.0000 0.00930  0.16210  0.78360  Biso   1.000  C
  C40      1.0000 0.50930  0.33790  0.28360  Biso   1.000  C
  C41      1.0000 0.88830  0.85080  0.28040  Biso   1.000  C
  C42      1.0000 0.38830  0.64920  0.78040  Biso   1.000  C
  C43      1.0000 0.11170  0.14920  0.71960  Biso   1.000  C
  C44      1.0000 0.61170  0.35080  0.21960  Biso   1.000  C
  C45      1.0000 0.78180  0.81160  0.25850  Biso   1.000  C
  C46      1.0000 0.28180  0.68840  0.75850  Biso   1.000  C
  C47      1.0000 0.21820  0.18840  0.74150  Biso   1.000  C
  C48      1.0000 0.71820  0.31160  0.24150  Biso   1.000  C
  C49      1.0000 0.68400  0.81610  0.32890  Biso   1.000  C
  C50      1.0000 0.18400  0.68390  0.82890  Biso   1.000  C
  C51      1.0000 0.31600  0.18390  0.67110  Biso   1.000  C
  C52      1.0000 0.81600  0.31610  0.17110  Biso   1.000  C
  C53      1.0000 0.58560  0.77140  0.31610  Biso   1.000  C
  C54      1.0000 0.08560  0.72860  0.81610  Biso   1.000  C
  C55      1.0000 0.41440  0.22860  0.68390  Biso   1.000  C
  C56      1.0000 0.91440  0.27140  0.18390  Biso   1.000  C
  C57      1.0000 0.49440  0.77680  0.38310  Biso   1.000  C
  C58      1.0000 0.99440  0.72320  0.88310  Biso   1.000  C
  C59      1.0000 0.50560  0.22320  0.61690  Biso   1.000  C
  C60      1.0000 0.00560  0.27680  0.11690  Biso   1.000  C
  C61      1.0000 0.50060  0.82410  0.46320  Biso   1.000  C
  C62      1.0000 0.00060  0.67590  0.96320  Biso   1.000  C
  C63      1.0000 0.49940  0.17590  0.53680  Biso   1.000  C
  C64      1.0000 0.99940  0.32410  0.03680  Biso   1.000  C
  C65      1.0000 0.59740  0.86800  0.47600  Biso   1.000  C
  C66      1.0000 0.09740  0.63200  0.97600  Biso   1.000  C
  C67      1.0000 0.40260  0.13200  0.52400  Biso   1.000  C
  C68      1.0000 0.90260  0.36800  0.02400  Biso   1.000  C
  C69      1.0000 0.68900  0.86430  0.41130  Biso   1.000  C
  C70      1.0000 0.18900  0.63570  0.91130  Biso   1.000  C
  C71      1.0000 0.31100  0.13570  0.58870  Biso   1.000  C
  C72      1.0000 0.81100  0.36430  0.08870  Biso   1.000  C
  C73      1.0000 0.79540  0.90900  0.42850  Biso   1.000  C
  C74      1.0000 0.29540  0.59100  0.92850  Biso   1.000  C
  C75      1.0000 0.20460  0.09100  0.57150  Biso   1.000  C
  C76      1.0000 0.70460  0.40900  0.07150  Biso   1.000  C
  C77      1.0000 0.89740  0.89720  0.36120  Biso   1.000  C
  C78      1.0000 0.39740  0.60280  0.86120  Biso   1.000  C
  C79      1.0000 0.10260  0.10280  0.63880  Biso   1.000  C
  C80      1.0000 0.60260  0.39720  0.13880  Biso   1.000  C
  C81      1.0000 0.28080  0.95190  0.30680  Biso   1.000  C
  C82      1.0000 0.78080  0.54810  0.80680  Biso   1.000  C
  C83      1.0000 0.71920  0.04810  0.69320  Biso   1.000  C
  C84      1.0000 0.21920  0.45190  0.19320  Biso   1.000  C
  C85      1.0000 0.38360  0.96150  0.24940  Biso   1.000  C
  C86      1.0000 0.88360  0.53850  0.74940  Biso   1.000  C
  C87      1.0000 0.61640  0.03850  0.75060  Biso   1.000  C
  C88      1.0000 0.11640  0.46150  0.25060  Biso   1.000  C
  C89      1.0000 0.72090  0.06760  0.21460  Biso   1.000  C
  C90      1.0000 0.22090  0.43240  0.71460  Biso   1.000  C
  C91      1.0000 0.27910  0.93240  0.78540  Biso   1.000  C
  C92      1.0000 0.77910  0.56760  0.28540  Biso   1.000  C
  C93      1.0000 0.64020  0.08750  0.28670  Biso   1.000  C
  C94      1.0000 0.14020  0.41250  0.78670  Biso   1.000  C
  C95      1.0000 0.35980  0.91250  0.71330  Biso   1.000  C
  C96      1.0000 0.85980  0.58750  0.21330  Biso   1.000  C
  C97      1.0000 0.32920  0.08770  0.98070  Biso   1.000  C
  C98      1.0000 0.82920  0.41230  0.48070  Biso   1.000  C
  C99      1.0000 0.67080  0.91230  0.01930  Biso   1.000  C
  C100     1.0000 0.17080  0.58770  0.51930  Biso   1.000  C
  C101     1.0000 0.44920  0.11000  0.98700  Biso   1.000  C
  C102     1.0000 0.94920  0.39000  0.48700  Biso   1.000  C
  C103     1.0000 0.55080  0.89000  0.01300  Biso   1.000  C
  C104     1.0000 0.05080  0.61000  0.51300  Biso   1.000  C
  H1       1.0000 0.13400  0.03700  0.16200  Biso   1.000  H
  H2       1.0000 0.63400  0.46300  0.66200  Biso   1.000  H
  H3       1.0000 0.86600  0.96300  0.83800  Biso   1.000  H
  H4       1.0000 0.36600  0.53700  0.33800  Biso   1.000  H
  H5       1.0000 0.14600  0.08800  0.07900  Biso   1.000  H
  H6       1.0000 0.64600  0.41200  0.57900  Biso   1.000  H
  H7       1.0000 0.85400  0.91200  0.92100  Biso   1.000  H
  H8       1.0000 0.35400  0.58800  0.42100  Biso   1.000  H
  H9       1.0000 0.91000  0.06800  0.34800  Biso   1.000  H
  H10      1.0000 0.41000  0.43200  0.84800  Biso   1.000  H
  H11      1.0000 0.09000  0.93200  0.65200  Biso   1.000  H
  H12      1.0000 0.59000  0.56800  0.15200  Biso   1.000  H
  H13      1.0000 0.90500  0.10200  0.43400  Biso   1.000  H
  H14      1.0000 0.40500  0.39800  0.93400  Biso   1.000  H
  H15      1.0000 0.09500  0.89800  0.56600  Biso   1.000  H
  H16      1.0000 0.59500  0.60200  0.06600  Biso   1.000  H
  H17      1.0000 0.13600  0.97500  0.28100  Biso   1.000  H
  H18      1.0000 0.63600  0.52500  0.78100  Biso   1.000  H
  H19      1.0000 0.86400  0.02500  0.71900  Biso   1.000  H
  H20      1.0000 0.36400  0.47500  0.21900  Biso   1.000  H
  H21      1.0000 0.86600  0.00800  0.21100  Biso   1.000  H
  H22      1.0000 0.36600  0.49200  0.71100  Biso   1.000  H
  H23      1.0000 0.13400  0.99200  0.78900  Biso   1.000  H
  H24      1.0000 0.63400  0.50800  0.28900  Biso   1.000  H
  H25      1.0000 0.86500  0.20900  0.46500  Biso   1.000  H
  H26      1.0000 0.36500  0.29100  0.96500  Biso   1.000  H
  H27      1.0000 0.13500  0.79100  0.53500  Biso   1.000  H
  H28      1.0000 0.63500  0.70900  0.03500  Biso   1.000  H
  H29      1.0000 0.83700  0.21100  0.53900  Biso   1.000  H
  H30      1.0000 0.33700  0.28900  0.03900  Biso   1.000  H
  H31      1.0000 0.16300  0.78900  0.46100  Biso   1.000  H
  H32      1.0000 0.66300  0.71100  0.96100  Biso   1.000  H
  H33      1.0000 0.27100  0.18800  0.97100  Biso   1.000  H
  H34      1.0000 0.77100  0.31200  0.47100  Biso   1.000  H
  H35      1.0000 0.72900  0.81200  0.02900  Biso   1.000  H
  H36      1.0000 0.22900  0.68800  0.52900  Biso   1.000  H
  H37      1.0000 0.31430  0.82180  0.98980  Biso   1.000  H
  H38      1.0000 0.81430  0.67820  0.48980  Biso   1.000  H
  H39      1.0000 0.68570  0.17820  0.01020  Biso   1.000  H
  H40      1.0000 0.18570  0.32180  0.51020  Biso   1.000  H
  H41      1.0000 0.43130  0.72160  0.03340  Biso   1.000  H
  H42      1.0000 0.93130  0.77840  0.53340  Biso   1.000  H
  H43      1.0000 0.56870  0.27840  0.96660  Biso   1.000  H
  H44      1.0000 0.06870  0.22160  0.46660  Biso   1.000  H
  H45      1.0000 0.38930  0.64990  0.17290  Biso   1.000  H
  H46      1.0000 0.88930  0.85010  0.67290  Biso   1.000  H
  H47      1.0000 0.61070  0.35010  0.82710  Biso   1.000  H
  H48      1.0000 0.11070  0.14990  0.32710  Biso   1.000  H
  H49      1.0000 0.22870  0.67620  0.26780  Biso   1.000  H
  H50      1.0000 0.72870  0.82380  0.76780  Biso   1.000  H
  H51      1.0000 0.77130  0.32380  0.73220  Biso   1.000  H
  H52      1.0000 0.27130  0.17620  0.23220  Biso   1.000  H
  H53      1.0000 0.57800  0.73980  0.25720  Biso   1.000  H
  H54      1.0000 0.07800  0.76020  0.75720  Biso   1.000  H
  H55      1.0000 0.42200  0.26020  0.74280  Biso   1.000  H
  H56      1.0000 0.92200  0.23980  0.24280  Biso   1.000  H
  H57      1.0000 0.42930  0.74360  0.37590  Biso   1.000  H
  H58      1.0000 0.92930  0.75640  0.87590  Biso   1.000  H
  H59      1.0000 0.57070  0.25640  0.62410  Biso   1.000  H
  H60      1.0000 0.07070  0.24360  0.12410  Biso   1.000  H
  H61      1.0000 0.44000  0.82470  0.51330  Biso   1.000  H
  H62      1.0000 0.94000  0.67530  0.01330  Biso   1.000  H
  H63      1.0000 0.56000  0.17530  0.48670  Biso   1.000  H
  H64      1.0000 0.06000  0.32470  0.98670  Biso   1.000  H
  H65      1.0000 0.60030  0.90300  0.53020  Biso   1.000  H
  H66      1.0000 0.10030  0.59700  0.03020  Biso   1.000  H
  H67      1.0000 0.39970  0.09700  0.46980  Biso   1.000  H
  H68      1.0000 0.89970  0.40300  0.96980  Biso   1.000  H
  H69      1.0000 0.26770  0.89900  0.31450  Biso   1.000  H
  H70      1.0000 0.76770  0.60100  0.81450  Biso   1.000  H
  H71      1.0000 0.73230  0.10100  0.68550  Biso   1.000  H
  H72      1.0000 0.23230  0.39900  0.18550  Biso   1.000  H
  H73      1.0000 0.29420  0.96950  0.37530  Biso   1.000  H
  H74      1.0000 0.79420  0.53050  0.87530  Biso   1.000  H
  H75      1.0000 0.70580  0.03050  0.62470  Biso   1.000  H
  H76      1.0000 0.20580  0.46950  0.12470  Biso   1.000  H
  H77      1.0000 0.36860  0.94200  0.18340  Biso   1.000  H
  H78      1.0000 0.86860  0.55800  0.68340  Biso   1.000  H
  H79      1.0000 0.63140  0.05800  0.81660  Biso   1.000  H
  H80      1.0000 0.13140  0.44200  0.31660  Biso   1.000  H
  H81      1.0000 0.44840  0.94010  0.28160  Biso   1.000  H
  H82      1.0000 0.94840  0.55990  0.78160  Biso   1.000  H
  H83      1.0000 0.55160  0.05990  0.71840  Biso   1.000  H
  H84      1.0000 0.05160  0.44010  0.21840  Biso   1.000  H
  H85      1.0000 0.39460  0.01280  0.24380  Biso   1.000  H
  H86      1.0000 0.89460  0.48720  0.74380  Biso   1.000  H
  H87      1.0000 0.60540  0.98720  0.75620  Biso   1.000  H
  H88      1.0000 0.10540  0.51280  0.25620  Biso   1.000  H
  H89      1.0000 0.67580  0.03720  0.16630  Biso   1.000  H
  H90      1.0000 0.17580  0.46280  0.66630  Biso   1.000  H
  H91      1.0000 0.32420  0.96280  0.83370  Biso   1.000  H
  H92      1.0000 0.82420  0.53720  0.33370  Biso   1.000  H
  H93      1.0000 0.73900  0.11120  0.17860  Biso   1.000  H
  H94      1.0000 0.23900  0.38880  0.67860  Biso   1.000  H
  H95      1.0000 0.26100  0.88880  0.82140  Biso   1.000  H
  H96      1.0000 0.76100  0.61120  0.32140  Biso   1.000  H
  H97      1.0000 0.61360  0.04600  0.32890  Biso   1.000  H
  H98      1.0000 0.11360  0.45400  0.82890  Biso   1.000  H
  H99      1.0000 0.38640  0.95400  0.67110  Biso   1.000  H
  H100     1.0000 0.88640  0.54600  0.17110  Biso   1.000  H
  H101     1.0000 0.56960  0.11170  0.26440  Biso   1.000  H
  H102     1.0000 0.06960  0.38830  0.76440  Biso   1.000  H
  H103     1.0000 0.43040  0.88830  0.73560  Biso   1.000  H
  H104     1.0000 0.93040  0.61170  0.23560  Biso   1.000  H
  H105     1.0000 0.67600  0.12030  0.34050  Biso   1.000  H
  H106     1.0000 0.17600  0.37970  0.84050  Biso   1.000  H
  H107     1.0000 0.32400  0.87970  0.65950  Biso   1.000  H
  H108     1.0000 0.82400  0.62030  0.15950  Biso   1.000  H
  H109     1.0000 0.32080  0.04580  0.02110  Biso   1.000  H
  H110     1.0000 0.82080  0.45420  0.52110  Biso   1.000  H
  H111     1.0000 0.67920  0.95420  0.97890  Biso   1.000  H
  H112     1.0000 0.17920  0.54580  0.47890  Biso   1.000  H
  H113     1.0000 0.30850  0.07790  0.91200  Biso   1.000  H
  H114     1.0000 0.80850  0.42210  0.41200  Biso   1.000  H
  H115     1.0000 0.69150  0.92210  0.08800  Biso   1.000  H
  H116     1.0000 0.19150  0.57790  0.58800  Biso   1.000  H
  H117     1.0000 0.49150  0.06890  0.96500  Biso   1.000  H
  H118     1.0000 0.99150  0.43110  0.46500  Biso   1.000  H
  H119     1.0000 0.50850  0.93110  0.03500  Biso   1.000  H
  H120     1.0000 0.00850  0.56890  0.53500  Biso   1.000  H
  H121     1.0000 0.46210  0.10690  0.06620  Biso   1.000  H
  H122     1.0000 0.96210  0.39310  0.56620  Biso   1.000  H
  H123     1.0000 0.53790  0.89310  0.93380  Biso   1.000  H
  H124     1.0000 0.03790  0.60690  0.43380  Biso   1.000  H
  H125     1.0000 0.46590  0.15140  0.96620  Biso   1.000  H
  H126     1.0000 0.96590  0.34860  0.46620  Biso   1.000  H
  H127     1.0000 0.53410  0.84860  0.03380  Biso   1.000  H
  H128     1.0000 0.03410  0.65140  0.53380  Biso   1.000  H
