data_image0
_cell_length_a       6.4888
_cell_length_b       7.9795
_cell_length_c       17.3829
_cell_angle_alpha    99.761
_cell_angle_beta     94.209
_cell_angle_gamma    96.713

_symmetry_space_group_name_H-M    "P 1"
_symmetry_int_tables_number       1

loop_
  _symmetry_equiv_pos_as_xyz
  'x, y, z'

loop_
  _atom_site_label
  _atom_site_occupancy
  _atom_site_fract_x
  _atom_site_fract_y
  _atom_site_fract_z
  _atom_site_thermal_displace_type
  _atom_site_B_iso_or_equiv
  _atom_site_type_symbol
  Cu1      1.0000 0.08863  0.68387  0.04024  Biso   1.000  Cu
  O1       1.0000 0.27100  0.74220  0.13733  Biso   1.000  O
  O2       1.0000 0.90960  0.61680  0.94181  Biso   1.000  O
  O3       1.0000 0.26960  0.44020  0.00718  Biso   1.000  O
  H1       1.0000 0.16700  0.40800  0.97340  Biso   1.000  H
  O4       1.0000 0.90370  0.93820  0.07632  Biso   1.000  O
  H2       1.0000 0.99800  0.99300  0.10890  Biso   1.000  H
  N1       1.0000 0.87720  0.55190  0.09900  Biso   1.000  N
  N2       1.0000 0.29550  0.82900  0.98458  Biso   1.000  N
  C1       1.0000 0.31330  0.88330  0.18666  Biso   1.000  C
  C2       1.0000 0.87470  0.47310  0.89490  Biso   1.000  C
  C3       1.0000 0.93060  0.51100  0.16952  Biso   1.000  C
  H3       1.0000 0.06760  0.55060  0.19380  Biso   1.000  H
  C4       1.0000 0.49190  0.88210  0.01602  Biso   1.000  C
  H4       1.0000 0.53670  0.84310  0.06240  Biso   1.000  H
  O5       1.0000 0.24600  0.02110  0.17922  Biso   1.000  O
  O6       1.0000 0.95030  0.34070  0.90211  Biso   1.000  O
  C5       1.0000 0.45150  0.86830  0.25979  Biso   1.000  C
  H5       1.0000 0.55080  0.78500  0.24370  Biso   1.000  H
  C6       1.0000 0.72570  0.47050  0.82192  Biso   1.000  C
  H6       1.0000 0.68470  0.34830  0.79580  Biso   1.000  H
  C7       1.0000 0.79720  0.41580  0.20739  Biso   1.000  C
  H7       1.0000 0.84250  0.38880  0.25650  Biso   1.000  H
  C8       1.0000 0.63280  0.98920  0.98565  Biso   1.000  C
  C9       1.0000 0.59490  0.35840  0.17384  Biso   1.000  C
  H8       1.0000 0.50000  0.29220  0.19960  Biso   1.000  H
  C10      1.0000 0.56760  0.04360  0.91625  Biso   1.000  C
  H9       1.0000 0.66030  0.11710  0.89300  Biso   1.000  H
  O7       1.0000 0.78720  0.33450  0.52191  Biso   1.000  O
  O8       1.0000 0.33270  0.04330  0.55790  Biso   1.000  O
  C11      1.0000 0.57910  0.04030  0.29816  Biso   1.000  C
  H10      1.0000 0.48500  0.12680  0.31010  Biso   1.000  H
  H11      1.0000 0.67700  0.07730  0.26210  Biso   1.000  H
  H12      1.0000 0.65680  0.02680  0.34670  Biso   1.000  H
  C12      1.0000 0.52720  0.54650  0.84354  Biso   1.000  C
  H13      1.0000 0.44160  0.55300  0.79560  Biso   1.000  H
  H14      1.0000 0.56470  0.66190  0.87480  Biso   1.000  H
  H15      1.0000 0.44830  0.47330  0.87410  Biso   1.000  H
  C13      1.0000 0.30990  0.79360  0.31350  Biso   1.000  C
  C14      1.0000 0.84940  0.56300  0.76605  Biso   1.000  C
  C15      1.0000 0.53480  0.39940  0.10245  Biso   1.000  C
  C16      1.0000 0.36560  0.98830  0.88208  Biso   1.000  C
  H16      1.0000 0.31780  0.02270  0.83490  Biso   1.000  H
  C17      1.0000 0.14470  0.88080  0.34302  Biso   1.000  C
  H17      1.0000 0.12760  0.98940  0.32980  Biso   1.000  H
  C18      1.0000 0.00390  0.47540  0.72945  Biso   1.000  C
  H18      1.0000 0.02050  0.36370  0.73890  Biso   1.000  H
  C19      1.0000 0.67860  0.49810  0.06660  Biso   1.000  C
  H19      1.0000 0.63580  0.52840  0.01790  Biso   1.000  H
  C20      1.0000 0.23330  0.88040  0.91860  Biso   1.000  C
  H20      1.0000 0.09470  0.84290  0.89550  Biso   1.000  H
  C21      1.0000 0.01130  0.81280  0.38948  Biso   1.000  C
  H21      1.0000 0.90450  0.87590  0.40870  Biso   1.000  H
  C22      1.0000 0.13030  0.54810  0.68069  Biso   1.000  C
  H22      1.0000 0.23140  0.48600  0.65620  Biso   1.000  H
  C23      1.0000 0.32030  0.33650  0.06153  Biso   1.000  C
  H23      1.0000 0.31540  0.21650  0.03410  Biso   1.000  H
  H24      1.0000 0.21680  0.33870  0.10070  Biso   1.000  H
  C24      1.0000 0.84880  0.05220  0.02532  Biso   1.000  C
  H25      1.0000 0.94980  0.05650  0.98550  Biso   1.000  H
  H26      1.0000 0.85280  0.16930  0.05590  Biso   1.000  H
  C25      1.0000 0.32990  0.63640  0.33361  Biso   1.000  C
  H27      1.0000 0.44000  0.57680  0.31490  Biso   1.000  H
  C26      1.0000 0.82600  0.72330  0.75229  Biso   1.000  C
  H28      1.0000 0.72190  0.78270  0.77620  Biso   1.000  H
  C27      1.0000 0.02680  0.65080  0.41015  Biso   1.000  C
  C28      1.0000 0.11010  0.71530  0.66694  Biso   1.000  C
  C29      1.0000 0.19160  0.56020  0.38131  Biso   1.000  C
  C30      1.0000 0.95680  0.80310  0.70220  Biso   1.000  C
  C31      1.0000 0.88680  0.57530  0.45752  Biso   1.000  C
  H29      1.0000 0.77680  0.63440  0.47660  Biso   1.000  H
  C32      1.0000 0.24290  0.79230  0.61653  Biso   1.000  C
  H30      1.0000 0.34680  0.73260  0.59270  Biso   1.000  H
  C33      1.0000 0.20670  0.39710  0.40103  Biso   1.000  C
  H31      1.0000 0.31300  0.33400  0.38150  Biso   1.000  H
  C34      1.0000 0.93310  0.96810  0.68514  Biso   1.000  C
  H32      1.0000 0.82720  0.02810  0.70720  Biso   1.000  H
  C35      1.0000 0.07200  0.32870  0.44740  Biso   1.000  C
  H33      1.0000 0.08720  0.21990  0.46080  Biso   1.000  H
  C36      1.0000 0.05860  0.04080  0.63820  Biso   1.000  C
  H34      1.0000 0.04120  0.15190  0.62810  Biso   1.000  H
  C37      1.0000 0.90940  0.41850  0.47574  Biso   1.000  C
  C38      1.0000 0.21710  0.95320  0.60342  Biso   1.000  C
  C39      1.0000 0.49410  0.96170  0.52016  Biso   1.000  C
  H35      1.0000 0.59690  0.93910  0.56000  Biso   1.000  H
  H36      1.0000 0.56250  0.03720  0.48800  Biso   1.000  H
  H37      1.0000 0.43280  0.85330  0.48670  Biso   1.000  H
  C40      1.0000 0.63630  0.42680  0.55883  Biso   1.000  C
  H38      1.0000 0.70640  0.53090  0.59340  Biso   1.000  H
  H39      1.0000 0.55690  0.35490  0.58980  Biso   1.000  H
  H40      1.0000 0.54130  0.45850  0.51880  Biso   1.000  H
