data_image0
_cell_length_a       10.7438
_cell_length_b       14.344
_cell_length_c       13.8748
_cell_angle_alpha    90
_cell_angle_beta     98.959
_cell_angle_gamma    90

_symmetry_space_group_name_H-M    "P 1"
_symmetry_int_tables_number       1

loop_
  _symmetry_equiv_pos_as_xyz
  'x, y, z'

loop_
  _atom_site_label
  _atom_site_occupancy
  _atom_site_fract_x
  _atom_site_fract_y
  _atom_site_fract_z
  _atom_site_thermal_displace_type
  _atom_site_B_iso_or_equiv
  _atom_site_type_symbol
  Cu1      1.0000 0.82346  0.39638  0.65911  Biso   1.000  Cu
  Cu2      1.0000 0.67654  0.89638  0.84089  Biso   1.000  Cu
  Cu3      1.0000 0.17654  0.60362  0.34089  Biso   1.000  Cu
  Cu4      1.0000 0.32346  0.10362  0.15911  Biso   1.000  Cu
  Cl1      1.0000 0.03123  0.38437  0.72535  Biso   1.000  Cl
  Cl2      1.0000 0.46877  0.88437  0.77465  Biso   1.000  Cl
  Cl3      1.0000 0.96877  0.61563  0.27465  Biso   1.000  Cl
  Cl4      1.0000 0.53123  0.11563  0.22535  Biso   1.000  Cl
  Cl5      1.0000 0.62659  0.43879  0.59741  Biso   1.000  Cl
  Cl6      1.0000 0.87341  0.93879  0.90259  Biso   1.000  Cl
  Cl7      1.0000 0.37341  0.56121  0.40259  Biso   1.000  Cl
  Cl8      1.0000 0.12659  0.06121  0.09741  Biso   1.000  Cl
  O1       1.0000 0.87330  0.39428  0.52911  Biso   1.000  O
  O2       1.0000 0.62670  0.89428  0.97089  Biso   1.000  O
  O3       1.0000 0.12670  0.60572  0.47089  Biso   1.000  O
  O4       1.0000 0.37330  0.10572  0.02911  Biso   1.000  O
  O5       1.0000 0.81540  0.24761  0.53548  Biso   1.000  O
  O6       1.0000 0.68460  0.74761  0.96452  Biso   1.000  O
  O7       1.0000 0.18460  0.75239  0.46452  Biso   1.000  O
  O8       1.0000 0.31540  0.25239  0.03548  Biso   1.000  O
  O9       1.0000 0.27000  0.12492  0.28388  Biso   1.000  O
  O10      1.0000 0.23000  0.62492  0.21612  Biso   1.000  O
  O11      1.0000 0.73000  0.87508  0.71612  Biso   1.000  O
  O12      1.0000 0.77000  0.37508  0.78388  Biso   1.000  O
  O13      1.0000 0.28000  0.97181  0.30544  Biso   1.000  O
  O14      1.0000 0.22000  0.47181  0.19456  Biso   1.000  O
  O15      1.0000 0.72000  0.02819  0.69456  Biso   1.000  O
  O16      1.0000 0.78000  0.52819  0.80544  Biso   1.000  O
  N1       1.0000 0.94600  0.27270  0.09910  Biso   1.000  N
  N2       1.0000 0.55400  0.77270  0.40090  Biso   1.000  N
  N3       1.0000 0.05400  0.72730  0.90090  Biso   1.000  N
  N4       1.0000 0.44600  0.22730  0.59910  Biso   1.000  N
  N5       1.0000 0.92760  0.22700  0.94870  Biso   1.000  N
  N6       1.0000 0.57240  0.72700  0.55130  Biso   1.000  N
  N7       1.0000 0.07240  0.77300  0.05130  Biso   1.000  N
  N8       1.0000 0.42760  0.27300  0.44870  Biso   1.000  N
  N9       1.0000 0.97930  0.14256  0.81040  Biso   1.000  N
  N10      1.0000 0.52070  0.64256  0.68960  Biso   1.000  N
  N11      1.0000 0.02070  0.85744  0.18960  Biso   1.000  N
  N12      1.0000 0.47930  0.35744  0.31040  Biso   1.000  N
  N13      1.0000 0.08000  0.10090  0.69477  Biso   1.000  N
  N14      1.0000 0.42000  0.60090  0.80523  Biso   1.000  N
  N15      1.0000 0.92000  0.89910  0.30523  Biso   1.000  N
  N16      1.0000 0.58000  0.39910  0.19477  Biso   1.000  N
  C1       1.0000 0.85250  0.31250  0.49310  Biso   1.000  C
  C2       1.0000 0.64750  0.81250  0.00690  Biso   1.000  C
  C3       1.0000 0.14750  0.68750  0.50690  Biso   1.000  C
  C4       1.0000 0.35250  0.18750  0.99310  Biso   1.000  C
  C5       1.0000 0.88190  0.30210  0.38950  Biso   1.000  C
  C6       1.0000 0.61810  0.80210  0.11050  Biso   1.000  C
  C7       1.0000 0.11810  0.69790  0.61050  Biso   1.000  C
  C8       1.0000 0.38190  0.19790  0.88950  Biso   1.000  C
  C9       1.0000 0.82200  0.23360  0.33040  Biso   1.000  C
  C10      1.0000 0.67800  0.73360  0.16960  Biso   1.000  C
  C11      1.0000 0.17800  0.76640  0.66960  Biso   1.000  C
  C12      1.0000 0.32200  0.26640  0.83040  Biso   1.000  C
  H1       1.0000 0.76590  0.19380  0.35470  Biso   1.000  H
  H2       1.0000 0.73410  0.69380  0.14530  Biso   1.000  H
  H3       1.0000 0.23410  0.80620  0.64530  Biso   1.000  H
  H4       1.0000 0.26590  0.30620  0.85470  Biso   1.000  H
  C13      1.0000 0.84390  0.22300  0.23530  Biso   1.000  C
  C14      1.0000 0.65610  0.72300  0.26470  Biso   1.000  C
  C15      1.0000 0.15610  0.77700  0.76470  Biso   1.000  C
  C16      1.0000 0.34390  0.27700  0.73530  Biso   1.000  C
  H5       1.0000 0.80180  0.17690  0.19580  Biso   1.000  H
  H6       1.0000 0.69820  0.67690  0.30420  Biso   1.000  H
  H7       1.0000 0.19820  0.82310  0.80420  Biso   1.000  H
  H8       1.0000 0.30180  0.32310  0.69580  Biso   1.000  H
  C17      1.0000 0.92750  0.28040  0.19970  Biso   1.000  C
  C18      1.0000 0.57250  0.78040  0.30030  Biso   1.000  C
  C19      1.0000 0.07250  0.71960  0.80030  Biso   1.000  C
  C20      1.0000 0.42750  0.21960  0.69970  Biso   1.000  C
  C21      1.0000 0.98730  0.34960  0.25650  Biso   1.000  C
  C22      1.0000 0.51270  0.84960  0.24350  Biso   1.000  C
  C23      1.0000 0.01270  0.65040  0.74350  Biso   1.000  C
  C24      1.0000 0.48730  0.15040  0.75650  Biso   1.000  C
  H9       1.0000 0.04220  0.38970  0.23140  Biso   1.000  H
  H10      1.0000 0.45780  0.88970  0.26860  Biso   1.000  H
  H11      1.0000 0.95780  0.61030  0.76860  Biso   1.000  H
  H12      1.0000 0.54220  0.11030  0.73140  Biso   1.000  H
  C25      1.0000 0.96550  0.35980  0.35220  Biso   1.000  C
  C26      1.0000 0.53450  0.85980  0.14780  Biso   1.000  C
  C27      1.0000 0.03450  0.64020  0.64780  Biso   1.000  C
  C28      1.0000 0.46550  0.14020  0.85220  Biso   1.000  C
  H13      1.0000 0.00770  0.40600  0.39150  Biso   1.000  H
  H14      1.0000 0.49230  0.90600  0.10850  Biso   1.000  H
  H15      1.0000 0.99230  0.59400  0.60850  Biso   1.000  H
  H16      1.0000 0.50770  0.09400  0.89150  Biso   1.000  H
  C29      1.0000 0.01360  0.33390  0.04970  Biso   1.000  C
  C30      1.0000 0.48640  0.83390  0.45030  Biso   1.000  C
  C31      1.0000 0.98640  0.66610  0.95030  Biso   1.000  C
  C32      1.0000 0.51360  0.16610  0.54970  Biso   1.000  C
  H17      1.0000 0.05910  0.38540  0.07640  Biso   1.000  H
  H18      1.0000 0.44090  0.88540  0.42360  Biso   1.000  H
  H19      1.0000 0.94090  0.61460  0.92360  Biso   1.000  H
  H20      1.0000 0.55910  0.11460  0.57640  Biso   1.000  H
  C33      1.0000 0.00140  0.30580  0.95710  Biso   1.000  C
  C34      1.0000 0.49860  0.80580  0.54290  Biso   1.000  C
  C35      1.0000 0.99860  0.69420  0.04290  Biso   1.000  C
  C36      1.0000 0.50140  0.19420  0.45710  Biso   1.000  C
  H21      1.0000 0.03650  0.33420  0.90740  Biso   1.000  H
  H22      1.0000 0.46350  0.83420  0.59260  Biso   1.000  H
  H23      1.0000 0.96350  0.66580  0.09260  Biso   1.000  H
  H24      1.0000 0.53650  0.16580  0.40740  Biso   1.000  H
  C37      1.0000 0.89550  0.20780  0.03600  Biso   1.000  C
  C38      1.0000 0.60450  0.70780  0.46400  Biso   1.000  C
  C39      1.0000 0.10450  0.79220  0.96400  Biso   1.000  C
  C40      1.0000 0.39550  0.29220  0.53600  Biso   1.000  C
  H25      1.0000 0.84630  0.15780  0.05020  Biso   1.000  H
  H26      1.0000 0.65370  0.65780  0.44980  Biso   1.000  H
  H27      1.0000 0.15370  0.84220  0.94980  Biso   1.000  H
  H28      1.0000 0.34630  0.34220  0.55020  Biso   1.000  H
  C41      1.0000 0.87650  0.17730  0.85850  Biso   1.000  C
  C42      1.0000 0.62350  0.67730  0.64150  Biso   1.000  C
  C43      1.0000 0.12350  0.82270  0.14150  Biso   1.000  C
  C44      1.0000 0.37650  0.32270  0.35850  Biso   1.000  C
  H29      1.0000 0.82360  0.21900  0.81490  Biso   1.000  H
  H30      1.0000 0.67640  0.71900  0.68510  Biso   1.000  H
  H31      1.0000 0.17640  0.78100  0.18510  Biso   1.000  H
  H32      1.0000 0.32360  0.28100  0.31490  Biso   1.000  H
  H33      1.0000 0.82500  0.12540  0.87380  Biso   1.000  H
  H34      1.0000 0.67500  0.62540  0.62620  Biso   1.000  H
  H35      1.0000 0.17500  0.87460  0.12620  Biso   1.000  H
  H36      1.0000 0.32500  0.37460  0.37380  Biso   1.000  H
  C45      1.0000 0.07740  0.08810  0.85190  Biso   1.000  C
  C46      1.0000 0.42260  0.58810  0.64810  Biso   1.000  C
  C47      1.0000 0.92260  0.91190  0.14810  Biso   1.000  C
  C48      1.0000 0.57740  0.41190  0.35190  Biso   1.000  C
  H37      1.0000 0.09660  0.07180  0.91730  Biso   1.000  H
  H38      1.0000 0.40340  0.57180  0.58270  Biso   1.000  H
  H39      1.0000 0.90340  0.92820  0.08270  Biso   1.000  H
  H40      1.0000 0.59660  0.42820  0.41730  Biso   1.000  H
  C49      1.0000 0.14100  0.06250  0.77960  Biso   1.000  C
  C50      1.0000 0.35900  0.56250  0.72040  Biso   1.000  C
  C51      1.0000 0.85900  0.93750  0.22040  Biso   1.000  C
  C52      1.0000 0.64100  0.43750  0.27960  Biso   1.000  C
  H41      1.0000 0.21310  0.02560  0.78620  Biso   1.000  H
  H42      1.0000 0.28690  0.52560  0.71380  Biso   1.000  H
  H43      1.0000 0.78690  0.97440  0.21380  Biso   1.000  H
  H44      1.0000 0.71310  0.47440  0.28620  Biso   1.000  H
  C53      1.0000 0.98240  0.14950  0.71520  Biso   1.000  C
  C54      1.0000 0.51760  0.64950  0.78480  Biso   1.000  C
  C55      1.0000 0.01760  0.85050  0.28480  Biso   1.000  C
  C56      1.0000 0.48240  0.35050  0.21520  Biso   1.000  C
  H45      1.0000 0.92580  0.18280  0.67050  Biso   1.000  H
  H46      1.0000 0.57420  0.68280  0.82950  Biso   1.000  H
  H47      1.0000 0.07420  0.81720  0.32950  Biso   1.000  H
  H48      1.0000 0.42580  0.31720  0.17050  Biso   1.000  H
  C57      1.0000 0.19990  0.99140  0.48920  Biso   1.000  C
  C58      1.0000 0.30010  0.49140  0.01080  Biso   1.000  C
  C59      1.0000 0.80010  0.00860  0.51080  Biso   1.000  C
  C60      1.0000 0.69990  0.50860  0.98920  Biso   1.000  C
  H49      1.0000 0.22690  0.93280  0.47250  Biso   1.000  H
  H50      1.0000 0.27310  0.43280  0.02750  Biso   1.000  H
  H51      1.0000 0.77310  0.06720  0.52750  Biso   1.000  H
  H52      1.0000 0.72690  0.56720  0.97250  Biso   1.000  H
  C61      1.0000 0.15870  0.00420  0.57720  Biso   1.000  C
  C62      1.0000 0.34130  0.50420  0.92280  Biso   1.000  C
  C63      1.0000 0.84130  0.99580  0.42280  Biso   1.000  C
  C64      1.0000 0.65870  0.49580  0.07720  Biso   1.000  C
  H53      1.0000 0.15880  0.95450  0.62030  Biso   1.000  H
  H54      1.0000 0.34120  0.45450  0.87970  Biso   1.000  H
  H55      1.0000 0.84120  0.04550  0.37970  Biso   1.000  H
  H56      1.0000 0.65880  0.54550  0.12030  Biso   1.000  H
  C65      1.0000 0.11810  0.08880  0.60100  Biso   1.000  C
  C66      1.0000 0.38190  0.58880  0.89900  Biso   1.000  C
  C67      1.0000 0.88190  0.91120  0.39900  Biso   1.000  C
  C68      1.0000 0.61810  0.41120  0.10100  Biso   1.000  C
  C69      1.0000 0.11520  0.16290  0.53840  Biso   1.000  C
  C70      1.0000 0.38480  0.66290  0.96160  Biso   1.000  C
  C71      1.0000 0.88480  0.83710  0.46160  Biso   1.000  C
  C72      1.0000 0.61520  0.33710  0.03840  Biso   1.000  C
  H57      1.0000 0.08650  0.22080  0.55560  Biso   1.000  H
  H58      1.0000 0.41350  0.72080  0.94440  Biso   1.000  H
  H59      1.0000 0.91350  0.77920  0.44440  Biso   1.000  H
  H60      1.0000 0.58650  0.27920  0.05560  Biso   1.000  H
  C73      1.0000 0.15580  0.15060  0.44880  Biso   1.000  C
  C74      1.0000 0.34420  0.65060  0.05120  Biso   1.000  C
  C75      1.0000 0.84420  0.84940  0.55120  Biso   1.000  C
  C76      1.0000 0.65580  0.34940  0.94880  Biso   1.000  C
  H61      1.0000 0.15180  0.20000  0.40500  Biso   1.000  H
  H62      1.0000 0.34820  0.70000  0.09500  Biso   1.000  H
  H63      1.0000 0.84820  0.80000  0.59500  Biso   1.000  H
  H64      1.0000 0.65180  0.30000  0.90500  Biso   1.000  H
  C77      1.0000 0.20140  0.06600  0.42470  Biso   1.000  C
  C78      1.0000 0.29860  0.56600  0.07530  Biso   1.000  C
  C79      1.0000 0.79860  0.93400  0.57530  Biso   1.000  C
  C80      1.0000 0.70140  0.43400  0.92470  Biso   1.000  C
  C81      1.0000 0.25440  0.04960  0.33000  Biso   1.000  C
  C82      1.0000 0.24560  0.54960  0.17000  Biso   1.000  C
  C83      1.0000 0.74560  0.95040  0.67000  Biso   1.000  C
  C84      1.0000 0.75440  0.45040  0.83000  Biso   1.000  C
  O17      1.0000 0.81290  0.57190  0.44730  Biso   1.000  O
  O18      1.0000 0.68710  0.07190  0.05270  Biso   1.000  O
  O19      1.0000 0.18710  0.42810  0.55270  Biso   1.000  O
  O20      1.0000 0.31290  0.92810  0.94730  Biso   1.000  O
  H65      1.0000 0.83430  0.50710  0.46320  Biso   1.000  H
  H66      1.0000 0.66570  0.00710  0.03680  Biso   1.000  H
  H67      1.0000 0.16570  0.49290  0.53680  Biso   1.000  H
  H68      1.0000 0.33430  0.99290  0.96320  Biso   1.000  H
  H69      1.0000 0.89020  0.57260  0.42010  Biso   1.000  H
  H70      1.0000 0.60980  0.07260  0.07990  Biso   1.000  H
  H71      1.0000 0.10980  0.42740  0.57990  Biso   1.000  H
  H72      1.0000 0.39020  0.92740  0.92010  Biso   1.000  H
