data_image0
_cell_length_a       7.1711
_cell_length_b       7.5961
_cell_length_c       17.751
_cell_angle_alpha    90
_cell_angle_beta     90.1
_cell_angle_gamma    90

_symmetry_space_group_name_H-M    "P 1"
_symmetry_int_tables_number       1

loop_
  _symmetry_equiv_pos_as_xyz
  'x, y, z'

loop_
  _atom_site_label
  _atom_site_occupancy
  _atom_site_fract_x
  _atom_site_fract_y
  _atom_site_fract_z
  _atom_site_thermal_displace_type
  _atom_site_B_iso_or_equiv
  _atom_site_type_symbol
  Cu1      1.0000 0.30180  0.09698  0.91302  Biso   1.000  Cu
  Cu2      1.0000 0.30180  0.90302  0.41302  Biso   1.000  Cu
  O1       1.0000 0.25220  0.27380  0.83950  Biso   1.000  O
  O2       1.0000 0.25220  0.72620  0.33950  Biso   1.000  O
  O3       1.0000 0.48300  0.28400  0.77210  Biso   1.000  O
  O4       1.0000 0.48300  0.71600  0.27210  Biso   1.000  O
  O5       1.0000 0.50770  0.72300  0.55720  Biso   1.000  O
  O6       1.0000 0.50770  0.27700  0.05720  Biso   1.000  O
  O7       1.0000 0.24360  0.73990  0.48830  Biso   1.000  O
  O8       1.0000 0.24360  0.26010  0.98830  Biso   1.000  O
  N1       1.0000 0.03890  0.95200  0.91330  Biso   1.000  N
  N2       1.0000 0.03890  0.04800  0.41330  Biso   1.000  N
  H1       1.0000 0.94220  0.02960  0.91390  Biso   1.000  H
  H2       1.0000 0.94220  0.97040  0.41390  Biso   1.000  H
  N3       1.0000 0.36910  0.90100  0.83220  Biso   1.000  N
  N4       1.0000 0.36910  0.09900  0.33220  Biso   1.000  N
  H3       1.0000 0.44350  0.94900  0.79610  Biso   1.000  H
  H4       1.0000 0.44350  0.05100  0.29610  Biso   1.000  H
  N5       1.0000 0.36680  0.89630  0.99260  Biso   1.000  N
  N6       1.0000 0.36680  0.10370  0.49260  Biso   1.000  N
  H5       1.0000 0.43670  0.94780  0.02930  Biso   1.000  H
  H6       1.0000 0.43670  0.05220  0.52930  Biso   1.000  H
  C1       1.0000 0.31440  0.31290  0.78260  Biso   1.000  C
  C2       1.0000 0.31440  0.68710  0.28260  Biso   1.000  C
  C3       1.0000 0.23020  0.41000  0.71990  Biso   1.000  C
  C4       1.0000 0.23020  0.59000  0.21990  Biso   1.000  C
  C5       1.0000 0.03200  0.41900  0.72040  Biso   1.000  C
  C6       1.0000 0.03200  0.58100  0.22040  Biso   1.000  C
  H7       1.0000 0.96480  0.37110  0.76020  Biso   1.000  H
  H8       1.0000 0.96480  0.62890  0.26020  Biso   1.000  H
  C7       1.0000 0.94400  0.49700  0.66390  Biso   1.000  C
  C8       1.0000 0.94400  0.50300  0.16390  Biso   1.000  C
  H9       1.0000 0.81550  0.48350  0.66030  Biso   1.000  H
  H10      1.0000 0.81550  0.51650  0.16030  Biso   1.000  H
  C9       1.0000 0.03600  0.59800  0.60870  Biso   1.000  C
  C10      1.0000 0.03600  0.40200  0.10870  Biso   1.000  C
  H11      1.0000 0.96990  0.66800  0.57510  Biso   1.000  H
  H12      1.0000 0.96990  0.33200  0.07510  Biso   1.000  H
  C11      1.0000 0.23350  0.58940  0.60630  Biso   1.000  C
  C12      1.0000 0.23350  0.41060  0.10630  Biso   1.000  C
  C13      1.0000 0.36400  0.66700  0.54520  Biso   1.000  C
  C14      1.0000 0.36400  0.33300  0.04520  Biso   1.000  C
  C15      1.0000 0.31100  0.50300  0.66290  Biso   1.000  C
  C16      1.0000 0.31100  0.49700  0.16290  Biso   1.000  C
  H13      1.0000 0.44080  0.50590  0.66400  Biso   1.000  H
  H14      1.0000 0.44080  0.49410  0.16400  Biso   1.000  H
  C17      1.0000 0.02780  0.84710  0.84660  Biso   1.000  C
  C18      1.0000 0.02780  0.15290  0.34660  Biso   1.000  C
  H15      1.0000 0.92810  0.89370  0.81550  Biso   1.000  H
  H16      1.0000 0.92810  0.10630  0.31550  Biso   1.000  H
  H17      1.0000 0.99210  0.72890  0.86130  Biso   1.000  H
  H18      1.0000 0.99210  0.27110  0.36130  Biso   1.000  H
  C19      1.0000 0.20500  0.83400  0.79770  Biso   1.000  C
  C20      1.0000 0.20500  0.16600  0.29770  Biso   1.000  C
  H19      1.0000 0.22500  0.71130  0.78490  Biso   1.000  H
  H20      1.0000 0.22500  0.28870  0.28490  Biso   1.000  H
  H21      1.0000 0.18310  0.89750  0.75110  Biso   1.000  H
  H22      1.0000 0.18310  0.10250  0.25110  Biso   1.000  H
  C21      1.0000 0.46600  0.76100  0.86820  Biso   1.000  C
  C22      1.0000 0.46600  0.23900  0.36820  Biso   1.000  C
  H23      1.0000 0.59050  0.75370  0.84680  Biso   1.000  H
  H24      1.0000 0.59050  0.24630  0.34680  Biso   1.000  H
  H25      1.0000 0.40290  0.65140  0.85630  Biso   1.000  H
  H26      1.0000 0.40290  0.34860  0.35630  Biso   1.000  H
  C23      1.0000 0.48600  0.77380  0.95510  Biso   1.000  C
  C24      1.0000 0.48600  0.22620  0.45510  Biso   1.000  C
  H27      1.0000 0.46270  0.65800  0.97620  Biso   1.000  H
  H28      1.0000 0.46270  0.34200  0.47620  Biso   1.000  H
  H29      1.0000 0.61380  0.80450  0.96680  Biso   1.000  H
  H30      1.0000 0.61380  0.19550  0.46680  Biso   1.000  H
  C25      1.0000 0.19990  0.83600  0.02770  Biso   1.000  C
  C26      1.0000 0.19990  0.16400  0.52770  Biso   1.000  C
  H31      1.0000 0.17630  0.90860  0.07170  Biso   1.000  H
  H32      1.0000 0.17630  0.09140  0.57170  Biso   1.000  H
  H33      1.0000 0.21880  0.71650  0.04480  Biso   1.000  H
  H34      1.0000 0.21880  0.28350  0.54480  Biso   1.000  H
  C27      1.0000 0.02700  0.84100  0.97680  Biso   1.000  C
  C28      1.0000 0.02700  0.15900  0.47680  Biso   1.000  C
  H35      1.0000 0.00230  0.72230  0.95950  Biso   1.000  H
  H36      1.0000 0.00230  0.27770  0.45950  Biso   1.000  H
  H37      1.0000 0.92160  0.87820  0.00690  Biso   1.000  H
  H38      1.0000 0.92160  0.12180  0.50690  Biso   1.000  H
  O9       1.0000 0.70500  0.21300  0.93600  Biso   1.000  O
  O10      1.0000 0.70500  0.78700  0.43600  Biso   1.000  O
  C29      1.0000 0.78700  0.35100  0.90540  Biso   1.000  C
  C30      1.0000 0.78700  0.64900  0.40540  Biso   1.000  C
  O11      1.0000 0.76600  0.18700  0.86960  Biso   1.000  O
  O12      1.0000 0.76600  0.81300  0.36960  Biso   1.000  O
