data_image0
_cell_length_a       11.1165
_cell_length_b       24.5625
_cell_length_c       11.4332
_cell_angle_alpha    90
_cell_angle_beta     111.684
_cell_angle_gamma    90

_symmetry_space_group_name_H-M    "P 1"
_symmetry_int_tables_number       1

loop_
  _symmetry_equiv_pos_as_xyz
  'x, y, z'

loop_
  _atom_site_label
  _atom_site_occupancy
  _atom_site_fract_x
  _atom_site_fract_y
  _atom_site_fract_z
  _atom_site_thermal_displace_type
  _atom_site_B_iso_or_equiv
  _atom_site_type_symbol
  Cu1      1.0000 0.72801  0.15322  0.50223  Biso   1.000  Cu
  Cu2      1.0000 0.22801  0.34678  0.00223  Biso   1.000  Cu
  Cu3      1.0000 0.27199  0.84678  0.49777  Biso   1.000  Cu
  Cu4      1.0000 0.77199  0.65322  0.99777  Biso   1.000  Cu
  Cu5      1.0000 0.00874  0.15213  0.77228  Biso   1.000  Cu
  Cu6      1.0000 0.50874  0.34788  0.27228  Biso   1.000  Cu
  Cu7      1.0000 0.99126  0.84787  0.22772  Biso   1.000  Cu
  Cu8      1.0000 0.49126  0.65213  0.72772  Biso   1.000  Cu
  O1       1.0000 0.70250  0.19570  0.63570  Biso   1.000  O
  O2       1.0000 0.20250  0.30430  0.13570  Biso   1.000  O
  O3       1.0000 0.29750  0.80430  0.36430  Biso   1.000  O
  O4       1.0000 0.79750  0.69570  0.86430  Biso   1.000  O
  O5       1.0000 0.88350  0.19843  0.80890  Biso   1.000  O
  O6       1.0000 0.38350  0.30157  0.30890  Biso   1.000  O
  O7       1.0000 0.11650  0.80157  0.19110  Biso   1.000  O
  O8       1.0000 0.61650  0.69843  0.69110  Biso   1.000  O
  O9       1.0000 0.53110  0.29867  0.14730  Biso   1.000  O
  O10      1.0000 0.03110  0.20133  0.64730  Biso   1.000  O
  O11      1.0000 0.46890  0.70133  0.85270  Biso   1.000  O
  O12      1.0000 0.96890  0.79867  0.35270  Biso   1.000  O
  O13      1.0000 0.35020  0.29539  0.97520  Biso   1.000  O
  O14      1.0000 0.85020  0.20461  0.47520  Biso   1.000  O
  O15      1.0000 0.64980  0.70461  0.02480  Biso   1.000  O
  O16      1.0000 0.14980  0.79539  0.52480  Biso   1.000  O
  N1       1.0000 0.98670  0.09522  0.88940  Biso   1.000  N
  N2       1.0000 0.48670  0.40478  0.38940  Biso   1.000  N
  N3       1.0000 0.01330  0.90478  0.11060  Biso   1.000  N
  N4       1.0000 0.51330  0.59522  0.61060  Biso   1.000  N
  N5       1.0000 0.12480  0.09639  0.73770  Biso   1.000  N
  N6       1.0000 0.62480  0.40361  0.23770  Biso   1.000  N
  N7       1.0000 0.87520  0.90361  0.26230  Biso   1.000  N
  N8       1.0000 0.37520  0.59639  0.76230  Biso   1.000  N
  N9       1.0000 0.18830  0.17338  0.93580  Biso   1.000  N
  N10      1.0000 0.68830  0.32662  0.43580  Biso   1.000  N
  N11      1.0000 0.81170  0.82662  0.06420  Biso   1.000  N
  N12      1.0000 0.31170  0.67338  0.56420  Biso   1.000  N
  N13      1.0000 0.61640  0.09392  0.53010  Biso   1.000  N
  N14      1.0000 0.11640  0.40608  0.03010  Biso   1.000  N
  N15      1.0000 0.38360  0.90608  0.46990  Biso   1.000  N
  N16      1.0000 0.88360  0.59392  0.96990  Biso   1.000  N
  N17      1.0000 0.54550  0.17698  0.34590  Biso   1.000  N
  N18      1.0000 0.04550  0.32302  0.84590  Biso   1.000  N
  N19      1.0000 0.45450  0.82302  0.65410  Biso   1.000  N
  N20      1.0000 0.95450  0.67698  0.15410  Biso   1.000  N
  N21      1.0000 0.74820  0.10109  0.37500  Biso   1.000  N
  N22      1.0000 0.24820  0.39891  0.87500  Biso   1.000  N
  N23      1.0000 0.25180  0.89891  0.62500  Biso   1.000  N
  N24      1.0000 0.75180  0.60109  0.12500  Biso   1.000  N
  H1       1.0000 0.90610  0.09700  0.88200  Biso   1.000  H
  H2       1.0000 0.40610  0.40300  0.38200  Biso   1.000  H
  H3       1.0000 0.09390  0.90300  0.11800  Biso   1.000  H
  H4       1.0000 0.59390  0.59700  0.61800  Biso   1.000  H
  H5       1.0000 0.11600  0.09100  0.66000  Biso   1.000  H
  H6       1.0000 0.61600  0.40900  0.16000  Biso   1.000  H
  H7       1.0000 0.88400  0.90900  0.34000  Biso   1.000  H
  H8       1.0000 0.38400  0.59100  0.84000  Biso   1.000  H
  H9       1.0000 0.22200  0.20570  0.94600  Biso   1.000  H
  H10      1.0000 0.72200  0.29430  0.44600  Biso   1.000  H
  H11      1.0000 0.77800  0.79430  0.05400  Biso   1.000  H
  H12      1.0000 0.27800  0.70570  0.55400  Biso   1.000  H
  H13      1.0000 0.62700  0.09200  0.60960  Biso   1.000  H
  H14      1.0000 0.12700  0.40800  0.10960  Biso   1.000  H
  H15      1.0000 0.37300  0.90800  0.39040  Biso   1.000  H
  H16      1.0000 0.87300  0.59200  0.89040  Biso   1.000  H
  H17      1.0000 0.50200  0.20700  0.33900  Biso   1.000  H
  H18      1.0000 0.00200  0.29300  0.83900  Biso   1.000  H
  H19      1.0000 0.49800  0.79300  0.66100  Biso   1.000  H
  H20      1.0000 0.99800  0.70700  0.16100  Biso   1.000  H
  H21      1.0000 0.82700  0.10600  0.37900  Biso   1.000  H
  H22      1.0000 0.32700  0.39400  0.87900  Biso   1.000  H
  H23      1.0000 0.17300  0.89400  0.62100  Biso   1.000  H
  H24      1.0000 0.67300  0.60600  0.12100  Biso   1.000  H
  C1       1.0000 0.76410  0.20454  0.75040  Biso   1.000  C
  C2       1.0000 0.26410  0.29546  0.25040  Biso   1.000  C
  C3       1.0000 0.23590  0.79546  0.24960  Biso   1.000  C
  C4       1.0000 0.73590  0.70454  0.74960  Biso   1.000  C
  C5       1.0000 0.68660  0.22408  0.82550  Biso   1.000  C
  C6       1.0000 0.18660  0.27592  0.32550  Biso   1.000  C
  C7       1.0000 0.31340  0.77592  0.17450  Biso   1.000  C
  C8       1.0000 0.81340  0.72408  0.67450  Biso   1.000  C
  C9       1.0000 0.55570  0.23450  0.76630  Biso   1.000  C
  C10      1.0000 0.05570  0.26550  0.26630  Biso   1.000  C
  C11      1.0000 0.44430  0.76550  0.23370  Biso   1.000  C
  C12      1.0000 0.94430  0.73450  0.73370  Biso   1.000  C
  H25      1.0000 0.51590  0.22930  0.67990  Biso   1.000  H
  H26      1.0000 0.01590  0.27070  0.17990  Biso   1.000  H
  H27      1.0000 0.48410  0.77070  0.32010  Biso   1.000  H
  H28      1.0000 0.98410  0.72930  0.82010  Biso   1.000  H
  C13      1.0000 0.48390  0.25260  0.83470  Biso   1.000  C
  C14      1.0000 0.98390  0.24740  0.33470  Biso   1.000  C
  C15      1.0000 0.51610  0.74740  0.16530  Biso   1.000  C
  C16      1.0000 0.01610  0.75260  0.66530  Biso   1.000  C
  H29      1.0000 0.39570  0.25920  0.79430  Biso   1.000  H
  H30      1.0000 0.89570  0.24080  0.29430  Biso   1.000  H
  H31      1.0000 0.60430  0.74080  0.20570  Biso   1.000  H
  H32      1.0000 0.10430  0.75920  0.70570  Biso   1.000  H
  C17      1.0000 0.54260  0.26099  0.96310  Biso   1.000  C
  C18      1.0000 0.04260  0.23901  0.46310  Biso   1.000  C
  C19      1.0000 0.45740  0.73901  0.03690  Biso   1.000  C
  C20      1.0000 0.95740  0.76099  0.53690  Biso   1.000  C
  C21      1.0000 0.67230  0.24950  0.02170  Biso   1.000  C
  C22      1.0000 0.17230  0.25050  0.52170  Biso   1.000  C
  C23      1.0000 0.32770  0.75050  0.97830  Biso   1.000  C
  C24      1.0000 0.82770  0.74950  0.47830  Biso   1.000  C
  H33      1.0000 0.71220  0.25470  0.10810  Biso   1.000  H
  H34      1.0000 0.21220  0.24530  0.60810  Biso   1.000  H
  H35      1.0000 0.28780  0.74530  0.89190  Biso   1.000  H
  H36      1.0000 0.78780  0.75470  0.39190  Biso   1.000  H
  C25      1.0000 0.74440  0.23050  0.95420  Biso   1.000  C
  C26      1.0000 0.24440  0.26950  0.45420  Biso   1.000  C
  C27      1.0000 0.25560  0.76950  0.04580  Biso   1.000  C
  C28      1.0000 0.75560  0.73050  0.54580  Biso   1.000  C
  H37      1.0000 0.83150  0.22210  0.99540  Biso   1.000  H
  H38      1.0000 0.33150  0.27790  0.49540  Biso   1.000  H
  H39      1.0000 0.16850  0.77790  0.00460  Biso   1.000  H
  H40      1.0000 0.66850  0.72210  0.50460  Biso   1.000  H
  C29      1.0000 0.46840  0.28690  0.03390  Biso   1.000  C
  C30      1.0000 0.96840  0.21310  0.53390  Biso   1.000  C
  C31      1.0000 0.53160  0.71310  0.96610  Biso   1.000  C
  C32      1.0000 0.03160  0.78690  0.46610  Biso   1.000  C
  C33      1.0000 0.00580  0.04240  0.83890  Biso   1.000  C
  C34      1.0000 0.50580  0.45760  0.33890  Biso   1.000  C
  C35      1.0000 0.99420  0.95760  0.16110  Biso   1.000  C
  C36      1.0000 0.49420  0.54240  0.66110  Biso   1.000  C
  H41      1.0000 0.02690  0.01550  0.90550  Biso   1.000  H
  H42      1.0000 0.52690  0.48450  0.40550  Biso   1.000  H
  H43      1.0000 0.97310  0.98450  0.09450  Biso   1.000  H
  H44      1.0000 0.47310  0.51550  0.59450  Biso   1.000  H
  H45      1.0000 0.92520  0.03140  0.77340  Biso   1.000  H
  H46      1.0000 0.42520  0.46860  0.27340  Biso   1.000  H
  H47      1.0000 0.07480  0.96860  0.22660  Biso   1.000  H
  H48      1.0000 0.57480  0.53140  0.72660  Biso   1.000  H
  C37      1.0000 0.10760  0.04280  0.78740  Biso   1.000  C
  C38      1.0000 0.60760  0.45720  0.28740  Biso   1.000  C
  C39      1.0000 0.89240  0.95720  0.21260  Biso   1.000  C
  C40      1.0000 0.39240  0.54280  0.71260  Biso   1.000  C
  H49      1.0000 0.08720  0.01610  0.72040  Biso   1.000  H
  H50      1.0000 0.58720  0.48390  0.22040  Biso   1.000  H
  H51      1.0000 0.91280  0.98390  0.27960  Biso   1.000  H
  H52      1.0000 0.41280  0.51610  0.77960  Biso   1.000  H
  H53      1.0000 0.18860  0.03210  0.85280  Biso   1.000  H
  H54      1.0000 0.68860  0.46790  0.35280  Biso   1.000  H
  H55      1.0000 0.81140  0.96790  0.14720  Biso   1.000  H
  H56      1.0000 0.31140  0.53210  0.64720  Biso   1.000  H
  C41      1.0000 0.25610  0.11810  0.78960  Biso   1.000  C
  C42      1.0000 0.75610  0.38190  0.28960  Biso   1.000  C
  C43      1.0000 0.74390  0.88190  0.21040  Biso   1.000  C
  C44      1.0000 0.24390  0.61810  0.71040  Biso   1.000  C
  H57      1.0000 0.31630  0.08920  0.79180  Biso   1.000  H
  H58      1.0000 0.81630  0.41080  0.29180  Biso   1.000  H
  H59      1.0000 0.68370  0.91080  0.20820  Biso   1.000  H
  H60      1.0000 0.18370  0.58920  0.70820  Biso   1.000  H
  H61      1.0000 0.26480  0.14620  0.73370  Biso   1.000  H
  H62      1.0000 0.76480  0.35380  0.23370  Biso   1.000  H
  H63      1.0000 0.73520  0.85380  0.26630  Biso   1.000  H
  H64      1.0000 0.23520  0.64620  0.76630  Biso   1.000  H
  C45      1.0000 0.29150  0.14050  0.91430  Biso   1.000  C
  C46      1.0000 0.79150  0.35950  0.41430  Biso   1.000  C
  C47      1.0000 0.70850  0.85950  0.08570  Biso   1.000  C
  C48      1.0000 0.20850  0.64050  0.58570  Biso   1.000  C
  H65      1.0000 0.36720  0.16340  0.93120  Biso   1.000  H
  H66      1.0000 0.86720  0.33660  0.43120  Biso   1.000  H
  H67      1.0000 0.63280  0.83660  0.06880  Biso   1.000  H
  H68      1.0000 0.13280  0.66340  0.56880  Biso   1.000  H
  H69      1.0000 0.31570  0.11090  0.97460  Biso   1.000  H
  H70      1.0000 0.81570  0.38910  0.47460  Biso   1.000  H
  H71      1.0000 0.68430  0.88910  0.02540  Biso   1.000  H
  H72      1.0000 0.18430  0.61090  0.52540  Biso   1.000  H
  C49      1.0000 0.15150  0.15510  0.04000  Biso   1.000  C
  C50      1.0000 0.65150  0.34490  0.54000  Biso   1.000  C
  C51      1.0000 0.84850  0.84490  0.96000  Biso   1.000  C
  C52      1.0000 0.34850  0.65510  0.46000  Biso   1.000  C
  H73      1.0000 0.22960  0.15080  0.11420  Biso   1.000  H
  H74      1.0000 0.72960  0.34920  0.61420  Biso   1.000  H
  H75      1.0000 0.77040  0.84920  0.88580  Biso   1.000  H
  H76      1.0000 0.27040  0.65080  0.38580  Biso   1.000  H
  H77      1.0000 0.09990  0.18340  0.05790  Biso   1.000  H
  H78      1.0000 0.59990  0.31660  0.55790  Biso   1.000  H
  H79      1.0000 0.90010  0.81660  0.94210  Biso   1.000  H
  H80      1.0000 0.40010  0.68340  0.44210  Biso   1.000  H
  C53      1.0000 0.07910  0.10440  0.01890  Biso   1.000  C
  C54      1.0000 0.57910  0.39560  0.51890  Biso   1.000  C
  C55      1.0000 0.92090  0.89560  0.98110  Biso   1.000  C
  C56      1.0000 0.42090  0.60440  0.48110  Biso   1.000  C
  H81      1.0000 0.03190  0.10340  0.07520  Biso   1.000  H
  H82      1.0000 0.53190  0.39660  0.57520  Biso   1.000  H
  H83      1.0000 0.96810  0.89660  0.92480  Biso   1.000  H
  H84      1.0000 0.46810  0.60340  0.42480  Biso   1.000  H
  H85      1.0000 0.14040  0.07450  0.04180  Biso   1.000  H
  H86      1.0000 0.64040  0.42550  0.54180  Biso   1.000  H
  H87      1.0000 0.85960  0.92550  0.95820  Biso   1.000  H
  H88      1.0000 0.35960  0.57450  0.45820  Biso   1.000  H
  C57      1.0000 0.48170  0.11000  0.47160  Biso   1.000  C
  C58      1.0000 0.98170  0.39000  0.97160  Biso   1.000  C
  C59      1.0000 0.51830  0.89000  0.52840  Biso   1.000  C
  C60      1.0000 0.01830  0.61000  0.02840  Biso   1.000  C
  H89      1.0000 0.43160  0.07720  0.43980  Biso   1.000  H
  H90      1.0000 0.93160  0.42280  0.93980  Biso   1.000  H
  H91      1.0000 0.56840  0.92280  0.56020  Biso   1.000  H
  H92      1.0000 0.06840  0.57720  0.06020  Biso   1.000  H
  H93      1.0000 0.45500  0.12420  0.53740  Biso   1.000  H
  H94      1.0000 0.95500  0.37580  0.03740  Biso   1.000  H
  H95      1.0000 0.54500  0.87580  0.46260  Biso   1.000  H
  H96      1.0000 0.04500  0.62420  0.96260  Biso   1.000  H
  C61      1.0000 0.44560  0.14780  0.37420  Biso   1.000  C
  C62      1.0000 0.94560  0.35220  0.87420  Biso   1.000  C
  C63      1.0000 0.55440  0.85220  0.62580  Biso   1.000  C
  C64      1.0000 0.05440  0.64780  0.12580  Biso   1.000  C
  H97      1.0000 0.39130  0.17480  0.39270  Biso   1.000  H
  H98      1.0000 0.89130  0.32520  0.89270  Biso   1.000  H
  H99      1.0000 0.60870  0.82520  0.60730  Biso   1.000  H
  H100     1.0000 0.10870  0.67480  0.10730  Biso   1.000  H
  H101     1.0000 0.39190  0.12910  0.29810  Biso   1.000  H
  H102     1.0000 0.89190  0.37090  0.79810  Biso   1.000  H
  H103     1.0000 0.60810  0.87090  0.70190  Biso   1.000  H
  H104     1.0000 0.10810  0.62910  0.20190  Biso   1.000  H
  C65      1.0000 0.56770  0.15810  0.23650  Biso   1.000  C
  C66      1.0000 0.06770  0.34190  0.73650  Biso   1.000  C
  C67      1.0000 0.43230  0.84190  0.76350  Biso   1.000  C
  C68      1.0000 0.93230  0.65810  0.26350  Biso   1.000  C
  H105     1.0000 0.48570  0.14500  0.17690  Biso   1.000  H
  H106     1.0000 0.98570  0.35500  0.67690  Biso   1.000  H
  H107     1.0000 0.51430  0.85500  0.82310  Biso   1.000  H
  H108     1.0000 0.01430  0.64500  0.32310  Biso   1.000  H
  H109     1.0000 0.59170  0.18950  0.19830  Biso   1.000  H
  H110     1.0000 0.09170  0.31050  0.69830  Biso   1.000  H
  H111     1.0000 0.40830  0.81050  0.80170  Biso   1.000  H
  H112     1.0000 0.90830  0.68950  0.30170  Biso   1.000  H
  C69      1.0000 0.65940  0.11780  0.24930  Biso   1.000  C
  C70      1.0000 0.15940  0.38220  0.74930  Biso   1.000  C
  C71      1.0000 0.34060  0.88220  0.75070  Biso   1.000  C
  C72      1.0000 0.84060  0.61780  0.25070  Biso   1.000  C
  H113     1.0000 0.71210  0.12960  0.20270  Biso   1.000  H
  H114     1.0000 0.21210  0.37040  0.70270  Biso   1.000  H
  H115     1.0000 0.28790  0.87040  0.79730  Biso   1.000  H
  H116     1.0000 0.78790  0.62960  0.29730  Biso   1.000  H
  H117     1.0000 0.61320  0.08550  0.20740  Biso   1.000  H
  H118     1.0000 0.11320  0.41450  0.70740  Biso   1.000  H
  H119     1.0000 0.38680  0.91450  0.79260  Biso   1.000  H
  H120     1.0000 0.88680  0.58550  0.29260  Biso   1.000  H
  C73      1.0000 0.72180  0.04630  0.40890  Biso   1.000  C
  C74      1.0000 0.22180  0.45370  0.90890  Biso   1.000  C
  C75      1.0000 0.27820  0.95370  0.59110  Biso   1.000  C
  C76      1.0000 0.77820  0.54630  0.09110  Biso   1.000  C
  H121     1.0000 0.67990  0.02590  0.33190  Biso   1.000  H
  H122     1.0000 0.17990  0.47410  0.83190  Biso   1.000  H
  H123     1.0000 0.32010  0.97410  0.66810  Biso   1.000  H
  H124     1.0000 0.82010  0.52590  0.16810  Biso   1.000  H
  H125     1.0000 0.80390  0.02870  0.45450  Biso   1.000  H
  H126     1.0000 0.30390  0.47130  0.95450  Biso   1.000  H
  H127     1.0000 0.19610  0.97130  0.54550  Biso   1.000  H
  H128     1.0000 0.69610  0.52870  0.04550  Biso   1.000  H
  C77      1.0000 0.64390  0.04260  0.48260  Biso   1.000  C
  C78      1.0000 0.14390  0.45740  0.98260  Biso   1.000  C
  C79      1.0000 0.35610  0.95740  0.51740  Biso   1.000  C
  C80      1.0000 0.85610  0.54260  0.01740  Biso   1.000  C
  H129     1.0000 0.68680  0.01880  0.55360  Biso   1.000  H
  H130     1.0000 0.18680  0.48120  0.05360  Biso   1.000  H
  H131     1.0000 0.31320  0.98120  0.44640  Biso   1.000  H
  H132     1.0000 0.81320  0.51880  0.94640  Biso   1.000  H
  H133     1.0000 0.56240  0.02560  0.43220  Biso   1.000  H
  H134     1.0000 0.06240  0.47440  0.93220  Biso   1.000  H
  H135     1.0000 0.43760  0.97440  0.56780  Biso   1.000  H
  H136     1.0000 0.93760  0.52560  0.06780  Biso   1.000  H
  Cl1      1.0000 0.09821  0.08943  0.38860  Biso   1.000  Cl
  Cl2      1.0000 0.59821  0.41057  0.88860  Biso   1.000  Cl
  Cl3      1.0000 0.90179  0.91057  0.61140  Biso   1.000  Cl
  Cl4      1.0000 0.40179  0.58943  0.11140  Biso   1.000  Cl
  O17      1.0000 0.16670  0.05630  0.33450  Biso   1.000  O
  O18      1.0000 0.66670  0.44370  0.83450  Biso   1.000  O
  O19      1.0000 0.83330  0.94370  0.66550  Biso   1.000  O
  O20      1.0000 0.33330  0.55630  0.16550  Biso   1.000  O
  O21      1.0000 0.18710  0.12400  0.47960  Biso   1.000  O
  O22      1.0000 0.68710  0.37600  0.97960  Biso   1.000  O
  O23      1.0000 0.81290  0.87600  0.52040  Biso   1.000  O
  O24      1.0000 0.31290  0.62400  0.02040  Biso   1.000  O
  O25      1.0000 0.04080  0.05690  0.45650  Biso   1.000  O
  O26      1.0000 0.54080  0.44310  0.95650  Biso   1.000  O
  O27      1.0000 0.95920  0.94310  0.54350  Biso   1.000  O
  O28      1.0000 0.45920  0.55690  0.04350  Biso   1.000  O
  O29      1.0000 0.99590  0.11560  0.29440  Biso   1.000  O
  O30      1.0000 0.49590  0.38440  0.79440  Biso   1.000  O
  O31      1.0000 0.00410  0.88440  0.70560  Biso   1.000  O
  O32      1.0000 0.50410  0.61560  0.20560  Biso   1.000  O
  Cl5      1.0000 0.63739  0.04723  0.86613  Biso   1.000  Cl
  Cl6      1.0000 0.13739  0.45277  0.36613  Biso   1.000  Cl
  Cl7      1.0000 0.36261  0.95277  0.13387  Biso   1.000  Cl
  Cl8      1.0000 0.86261  0.54723  0.63387  Biso   1.000  Cl
  O33      1.0000 0.70020  0.08110  0.80900  Biso   1.000  O
  O34      1.0000 0.20020  0.41890  0.30900  Biso   1.000  O
  O35      1.0000 0.29980  0.91890  0.19100  Biso   1.000  O
  O36      1.0000 0.79980  0.58110  0.69100  Biso   1.000  O
  O37      1.0000 0.57720  0.07170  0.93650  Biso   1.000  O
  O38      1.0000 0.07720  0.42830  0.43650  Biso   1.000  O
  O39      1.0000 0.42280  0.92830  0.06350  Biso   1.000  O
  O40      1.0000 0.92280  0.57170  0.56350  Biso   1.000  O
  O41      1.0000 0.52000  0.04230  0.76110  Biso   1.000  O
  O42      1.0000 0.02000  0.45770  0.26110  Biso   1.000  O
  O43      1.0000 0.48000  0.95770  0.23890  Biso   1.000  O
  O44      1.0000 0.98000  0.54230  0.73890  Biso   1.000  O
  O45      1.0000 0.67400  0.99380  0.89600  Biso   1.000  O
  O46      1.0000 0.17400  0.50620  0.39600  Biso   1.000  O
  O47      1.0000 0.32600  0.00620  0.10400  Biso   1.000  O
  O48      1.0000 0.82600  0.49380  0.60400  Biso   1.000  O
  O49      1.0000 0.62800  0.99680  0.82900  Biso   1.000  O
  O50      1.0000 0.12800  0.50320  0.32900  Biso   1.000  O
  O51      1.0000 0.37200  0.00320  0.17100  Biso   1.000  O
  O52      1.0000 0.87200  0.49680  0.67100  Biso   1.000  O
  O53      1.0000 0.74970  0.04520  0.98170  Biso   1.000  O
  O54      1.0000 0.24970  0.45480  0.48170  Biso   1.000  O
  O55      1.0000 0.25030  0.95480  0.01830  Biso   1.000  O
  O56      1.0000 0.75030  0.54520  0.51830  Biso   1.000  O
