data_image0
_cell_length_a       12.7231
_cell_length_b       12.7231
_cell_length_c       16.4812
_cell_angle_alpha    90
_cell_angle_beta     90
_cell_angle_gamma    120

_symmetry_space_group_name_H-M    "P 1"
_symmetry_int_tables_number       1

loop_
  _symmetry_equiv_pos_as_xyz
  'x, y, z'

loop_
  _atom_site_label
  _atom_site_occupancy
  _atom_site_fract_x
  _atom_site_fract_y
  _atom_site_fract_z
  _atom_site_thermal_displace_type
  _atom_site_B_iso_or_equiv
  _atom_site_type_symbol
  Cu1      1.0000 0.48886  0.97771  0.25000  Biso   1.000  Cu
  Cu2      1.0000 0.51115  0.48886  0.75000  Biso   1.000  Cu
  Cu3      1.0000 0.02229  0.51115  0.25000  Biso   1.000  Cu
  Cu4      1.0000 0.51114  0.02229  0.75000  Biso   1.000  Cu
  Cu5      1.0000 0.48885  0.51114  0.25000  Biso   1.000  Cu
  Cu6      1.0000 0.97771  0.48885  0.75000  Biso   1.000  Cu
  Cu7      1.0000 0.66670  0.33330  0.25000  Biso   1.000  Cu
  Cu8      1.0000 0.33340  0.66670  0.75000  Biso   1.000  Cu
  O1       1.0000 0.37700  0.99320  0.17220  Biso   1.000  O
  O2       1.0000 0.38380  0.37700  0.67220  Biso   1.000  O
  O3       1.0000 0.00680  0.38380  0.17220  Biso   1.000  O
  O4       1.0000 0.62300  0.00680  0.67220  Biso   1.000  O
  O5       1.0000 0.61620  0.62300  0.17220  Biso   1.000  O
  O6       1.0000 0.99320  0.61620  0.67220  Biso   1.000  O
  O7       1.0000 0.38380  0.00680  0.82780  Biso   1.000  O
  O8       1.0000 0.62300  0.61620  0.82780  Biso   1.000  O
  O9       1.0000 0.99320  0.37700  0.82780  Biso   1.000  O
  O10      1.0000 0.00680  0.62300  0.32780  Biso   1.000  O
  O11      1.0000 0.61620  0.99320  0.32780  Biso   1.000  O
  O12      1.0000 0.37700  0.38380  0.32780  Biso   1.000  O
  O13      1.0000 0.53360  0.17950  0.17050  Biso   1.000  O
  O14      1.0000 0.35410  0.53360  0.67050  Biso   1.000  O
  O15      1.0000 0.82050  0.35410  0.17050  Biso   1.000  O
  O16      1.0000 0.46640  0.82050  0.67050  Biso   1.000  O
  O17      1.0000 0.64590  0.46640  0.17050  Biso   1.000  O
  O18      1.0000 0.17950  0.64590  0.67050  Biso   1.000  O
  O19      1.0000 0.35410  0.82050  0.82950  Biso   1.000  O
  O20      1.0000 0.46640  0.64590  0.82950  Biso   1.000  O
  O21      1.0000 0.17950  0.53360  0.82950  Biso   1.000  O
  O22      1.0000 0.82050  0.46640  0.32950  Biso   1.000  O
  O23      1.0000 0.64590  0.17950  0.32950  Biso   1.000  O
  O24      1.0000 0.53360  0.35410  0.32950  Biso   1.000  O
  N1       1.0000 0.43480  0.37070  0.84000  Biso   1.000  N
  N2       1.0000 0.06410  0.43480  0.34000  Biso   1.000  N
  N3       1.0000 0.62930  0.06410  0.84000  Biso   1.000  N
  N4       1.0000 0.56520  0.62930  0.34000  Biso   1.000  N
  N5       1.0000 0.93590  0.56520  0.84000  Biso   1.000  N
  N6       1.0000 0.37070  0.93590  0.34000  Biso   1.000  N
  N7       1.0000 0.06410  0.62930  0.16000  Biso   1.000  N
  N8       1.0000 0.56520  0.93590  0.16000  Biso   1.000  N
  N9       1.0000 0.37070  0.43480  0.16000  Biso   1.000  N
  N10      1.0000 0.62930  0.56520  0.66000  Biso   1.000  N
  N11      1.0000 0.93590  0.37070  0.66000  Biso   1.000  N
  N12      1.0000 0.43480  0.06410  0.66000  Biso   1.000  N
  N13      1.0000 0.31240  0.21230  0.91350  Biso   1.000  N
  N14      1.0000 0.10010  0.31240  0.41350  Biso   1.000  N
  N15      1.0000 0.78770  0.10010  0.91350  Biso   1.000  N
  N16      1.0000 0.68760  0.78770  0.41350  Biso   1.000  N
  N17      1.0000 0.89990  0.68760  0.91350  Biso   1.000  N
  N18      1.0000 0.21230  0.89990  0.41350  Biso   1.000  N
  N19      1.0000 0.10010  0.78770  0.08650  Biso   1.000  N
  N20      1.0000 0.68760  0.89990  0.08650  Biso   1.000  N
  N21      1.0000 0.21230  0.31240  0.08650  Biso   1.000  N
  N22      1.0000 0.78770  0.68760  0.58650  Biso   1.000  N
  N23      1.0000 0.89990  0.21230  0.58650  Biso   1.000  N
  N24      1.0000 0.31240  0.10010  0.58650  Biso   1.000  N
  H1       1.0000 0.24700  0.14500  0.92870  Biso   1.000  H
  H2       1.0000 0.10200  0.24700  0.42870  Biso   1.000  H
  H3       1.0000 0.85500  0.10200  0.92870  Biso   1.000  H
  H4       1.0000 0.75300  0.85500  0.42870  Biso   1.000  H
  H5       1.0000 0.89800  0.75300  0.92870  Biso   1.000  H
  H6       1.0000 0.14500  0.89800  0.42870  Biso   1.000  H
  H7       1.0000 0.10200  0.85500  0.07130  Biso   1.000  H
  H8       1.0000 0.75300  0.89800  0.07130  Biso   1.000  H
  H9       1.0000 0.14500  0.24700  0.07130  Biso   1.000  H
  H10      1.0000 0.85500  0.75300  0.57130  Biso   1.000  H
  H11      1.0000 0.89800  0.14500  0.57130  Biso   1.000  H
  H12      1.0000 0.24700  0.10200  0.57130  Biso   1.000  H
  C1       1.0000 0.32590  0.27310  0.84480  Biso   1.000  C
  C2       1.0000 0.05280  0.32590  0.34480  Biso   1.000  C
  C3       1.0000 0.72690  0.05280  0.84480  Biso   1.000  C
  C4       1.0000 0.67410  0.72690  0.34480  Biso   1.000  C
  C5       1.0000 0.94720  0.67410  0.84480  Biso   1.000  C
  C6       1.0000 0.27310  0.94720  0.34480  Biso   1.000  C
  C7       1.0000 0.05280  0.72690  0.15520  Biso   1.000  C
  C8       1.0000 0.67410  0.94720  0.15520  Biso   1.000  C
  C9       1.0000 0.27310  0.32590  0.15520  Biso   1.000  C
  C10      1.0000 0.72690  0.67410  0.65520  Biso   1.000  C
  C11      1.0000 0.94720  0.27310  0.65520  Biso   1.000  C
  C12      1.0000 0.32590  0.05280  0.65520  Biso   1.000  C
  H13      1.0000 0.26500  0.24920  0.80430  Biso   1.000  H
  H14      1.0000 0.01580  0.26500  0.30430  Biso   1.000  H
  H15      1.0000 0.75080  0.01580  0.80430  Biso   1.000  H
  H16      1.0000 0.73500  0.75080  0.30430  Biso   1.000  H
  H17      1.0000 0.98420  0.73500  0.80430  Biso   1.000  H
  H18      1.0000 0.24920  0.98420  0.30430  Biso   1.000  H
  H19      1.0000 0.01580  0.75080  0.19570  Biso   1.000  H
  H20      1.0000 0.73500  0.98420  0.19570  Biso   1.000  H
  H21      1.0000 0.24920  0.26500  0.19570  Biso   1.000  H
  H22      1.0000 0.75080  0.73500  0.69570  Biso   1.000  H
  H23      1.0000 0.98420  0.24920  0.69570  Biso   1.000  H
  H24      1.0000 0.26500  0.01580  0.69570  Biso   1.000  H
  C13      1.0000 0.49410  0.37160  0.91090  Biso   1.000  C
  C14      1.0000 0.12250  0.49410  0.41090  Biso   1.000  C
  C15      1.0000 0.62840  0.12250  0.91090  Biso   1.000  C
  C16      1.0000 0.50590  0.62840  0.41090  Biso   1.000  C
  C17      1.0000 0.87750  0.50590  0.91090  Biso   1.000  C
  C18      1.0000 0.37160  0.87750  0.41090  Biso   1.000  C
  C19      1.0000 0.12250  0.62840  0.08910  Biso   1.000  C
  C20      1.0000 0.50590  0.87750  0.08910  Biso   1.000  C
  C21      1.0000 0.37160  0.49410  0.08910  Biso   1.000  C
  C22      1.0000 0.62840  0.50590  0.58910  Biso   1.000  C
  C23      1.0000 0.87750  0.37160  0.58910  Biso   1.000  C
  C24      1.0000 0.49410  0.12250  0.58910  Biso   1.000  C
  H25      1.0000 0.57450  0.43160  0.92510  Biso   1.000  H
  H26      1.0000 0.14290  0.57450  0.42510  Biso   1.000  H
  H27      1.0000 0.56840  0.14290  0.92510  Biso   1.000  H
  H28      1.0000 0.42550  0.56840  0.42510  Biso   1.000  H
  H29      1.0000 0.85710  0.42550  0.92510  Biso   1.000  H
  H30      1.0000 0.43160  0.85710  0.42510  Biso   1.000  H
  H31      1.0000 0.14290  0.56840  0.07490  Biso   1.000  H
  H32      1.0000 0.42550  0.85710  0.07490  Biso   1.000  H
  H33      1.0000 0.43160  0.57450  0.07490  Biso   1.000  H
  H34      1.0000 0.56840  0.42550  0.57490  Biso   1.000  H
  H35      1.0000 0.85710  0.43160  0.57490  Biso   1.000  H
  H36      1.0000 0.57450  0.14290  0.57490  Biso   1.000  H
  C25      1.0000 0.41980  0.27420  0.95670  Biso   1.000  C
  C26      1.0000 0.14560  0.41980  0.45670  Biso   1.000  C
  C27      1.0000 0.72580  0.14560  0.95670  Biso   1.000  C
  C28      1.0000 0.58020  0.72580  0.45670  Biso   1.000  C
  C29      1.0000 0.85440  0.58020  0.95670  Biso   1.000  C
  C30      1.0000 0.27420  0.85440  0.45670  Biso   1.000  C
  C31      1.0000 0.14560  0.72580  0.04330  Biso   1.000  C
  C32      1.0000 0.58020  0.85440  0.04330  Biso   1.000  C
  C33      1.0000 0.27420  0.41980  0.04330  Biso   1.000  C
  C34      1.0000 0.72580  0.58020  0.54330  Biso   1.000  C
  C35      1.0000 0.85440  0.27420  0.54330  Biso   1.000  C
  C36      1.0000 0.41980  0.14560  0.54330  Biso   1.000  C
  C37      1.0000 0.44860  0.23550  0.03250  Biso   1.000  C
  C38      1.0000 0.21310  0.44860  0.53250  Biso   1.000  C
  C39      1.0000 0.76450  0.21310  0.03250  Biso   1.000  C
  C40      1.0000 0.55140  0.76450  0.53250  Biso   1.000  C
  C41      1.0000 0.78690  0.55140  0.03250  Biso   1.000  C
  C42      1.0000 0.23550  0.78690  0.53250  Biso   1.000  C
  C43      1.0000 0.21310  0.76450  0.96750  Biso   1.000  C
  C44      1.0000 0.55140  0.78690  0.96750  Biso   1.000  C
  C45      1.0000 0.23550  0.44860  0.96750  Biso   1.000  C
  C46      1.0000 0.76450  0.55140  0.46750  Biso   1.000  C
  C47      1.0000 0.78690  0.23550  0.46750  Biso   1.000  C
  C48      1.0000 0.44860  0.21310  0.46750  Biso   1.000  C
  H37      1.0000 0.52320  0.29200  0.05730  Biso   1.000  H
  H38      1.0000 0.23120  0.52320  0.55730  Biso   1.000  H
  H39      1.0000 0.70800  0.23120  0.05730  Biso   1.000  H
  H40      1.0000 0.47680  0.70800  0.55730  Biso   1.000  H
  H41      1.0000 0.76880  0.47680  0.05730  Biso   1.000  H
  H42      1.0000 0.29200  0.76880  0.55730  Biso   1.000  H
  H43      1.0000 0.23120  0.70800  0.94270  Biso   1.000  H
  H44      1.0000 0.47680  0.76880  0.94270  Biso   1.000  H
  H45      1.0000 0.29200  0.52320  0.94270  Biso   1.000  H
  H46      1.0000 0.70800  0.47680  0.44270  Biso   1.000  H
  H47      1.0000 0.76880  0.29200  0.44270  Biso   1.000  H
  H48      1.0000 0.52320  0.23120  0.44270  Biso   1.000  H
  C49      1.0000 0.38240  0.12910  0.07210  Biso   1.000  C
  C50      1.0000 0.25330  0.38240  0.57210  Biso   1.000  C
  C51      1.0000 0.87090  0.25330  0.07210  Biso   1.000  C
  C52      1.0000 0.61760  0.87090  0.57210  Biso   1.000  C
  C53      1.0000 0.74670  0.61760  0.07210  Biso   1.000  C
  C54      1.0000 0.12910  0.74670  0.57210  Biso   1.000  C
  C55      1.0000 0.25330  0.87090  0.92790  Biso   1.000  C
  C56      1.0000 0.61760  0.74670  0.92790  Biso   1.000  C
  C57      1.0000 0.12910  0.38240  0.92790  Biso   1.000  C
  C58      1.0000 0.87090  0.61760  0.42790  Biso   1.000  C
  C59      1.0000 0.74670  0.12910  0.42790  Biso   1.000  C
  C60      1.0000 0.38240  0.25330  0.42790  Biso   1.000  C
  H49      1.0000 0.30270  0.07280  0.05400  Biso   1.000  H
  H50      1.0000 0.22990  0.30270  0.55400  Biso   1.000  H
  H51      1.0000 0.92720  0.22990  0.05400  Biso   1.000  H
  H52      1.0000 0.69730  0.92720  0.55400  Biso   1.000  H
  H53      1.0000 0.77010  0.69730  0.05400  Biso   1.000  H
  H54      1.0000 0.07280  0.77010  0.55400  Biso   1.000  H
  H55      1.0000 0.22990  0.92720  0.94600  Biso   1.000  H
  H56      1.0000 0.69730  0.77010  0.94600  Biso   1.000  H
  H57      1.0000 0.07280  0.30270  0.94600  Biso   1.000  H
  H58      1.0000 0.92720  0.69730  0.44600  Biso   1.000  H
  H59      1.0000 0.77010  0.07280  0.44600  Biso   1.000  H
  H60      1.0000 0.30270  0.22990  0.44600  Biso   1.000  H
  C61      1.0000 0.43410  0.10020  0.14370  Biso   1.000  C
  C62      1.0000 0.33390  0.43410  0.64370  Biso   1.000  C
  C63      1.0000 0.89980  0.33390  0.14370  Biso   1.000  C
  C64      1.0000 0.56590  0.89980  0.64370  Biso   1.000  C
  C65      1.0000 0.66610  0.56590  0.14370  Biso   1.000  C
  C66      1.0000 0.10020  0.66610  0.64370  Biso   1.000  C
  C67      1.0000 0.33390  0.89980  0.85630  Biso   1.000  C
  C68      1.0000 0.56590  0.66610  0.85630  Biso   1.000  C
  C69      1.0000 0.10020  0.43410  0.85630  Biso   1.000  C
  C70      1.0000 0.89980  0.56590  0.35630  Biso   1.000  C
  C71      1.0000 0.66610  0.10020  0.35630  Biso   1.000  C
  C72      1.0000 0.43410  0.33390  0.35630  Biso   1.000  C
  S1       1.0000 0.00000  0.00000  0.00000  Biso   1.000  S
  S2       1.0000 0.00000  0.00000  0.50000  Biso   1.000  S
  O25      1.0000 0.00000  0.00000  0.75000  Biso   1.000  O
  O26      1.0000 0.00000  0.00000  0.25000  Biso   1.000  O
  O27      1.0000 0.11160  0.00000  0.00000  Biso   1.000  O
  O28      1.0000 0.11160  0.11160  0.50000  Biso   1.000  O
  O29      1.0000 0.00000  0.11160  0.00000  Biso   1.000  O
  O30      1.0000 0.88840  0.00000  0.50000  Biso   1.000  O
  O31      1.0000 0.88840  0.88840  0.00000  Biso   1.000  O
  O32      1.0000 0.00000  0.88840  0.50000  Biso   1.000  O
  O33      1.0000 0.92980  0.92700  0.92870  Biso   1.000  O
  O34      1.0000 0.00280  0.92980  0.42870  Biso   1.000  O
  O35      1.0000 0.07300  0.00280  0.92870  Biso   1.000  O
  O36      1.0000 0.07020  0.07300  0.42870  Biso   1.000  O
  O37      1.0000 0.99720  0.07020  0.92870  Biso   1.000  O
  O38      1.0000 0.92700  0.99720  0.42870  Biso   1.000  O
  O39      1.0000 0.00280  0.07300  0.07130  Biso   1.000  O
  O40      1.0000 0.07020  0.99720  0.07130  Biso   1.000  O
  O41      1.0000 0.92700  0.92980  0.07130  Biso   1.000  O
  O42      1.0000 0.07300  0.07020  0.57130  Biso   1.000  O
  O43      1.0000 0.99720  0.92700  0.57130  Biso   1.000  O
  O44      1.0000 0.92980  0.00280  0.57130  Biso   1.000  O
