data_image0
_cell_length_a       8.0185
_cell_length_b       9.6335
_cell_length_c       11.097
_cell_angle_alpha    90
_cell_angle_beta     108.017
_cell_angle_gamma    90

_symmetry_space_group_name_H-M    "P 1"
_symmetry_int_tables_number       1

loop_
  _symmetry_equiv_pos_as_xyz
  'x, y, z'

loop_
  _atom_site_label
  _atom_site_occupancy
  _atom_site_fract_x
  _atom_site_fract_y
  _atom_site_fract_z
  _atom_site_thermal_displace_type
  _atom_site_B_iso_or_equiv
  _atom_site_type_symbol
  Cu1      1.0000 0.85458  0.88496  0.45724  Biso   1.000  Cu
  Cu2      1.0000 0.14542  0.38496  0.54276  Biso   1.000  Cu
  Cl1      1.0000 0.78470  0.97359  0.63424  Biso   1.000  Cl
  Cl2      1.0000 0.21530  0.47359  0.36576  Biso   1.000  Cl
  O1       1.0000 0.90933  0.46746  0.50438  Biso   1.000  O
  O2       1.0000 0.09067  0.96746  0.49562  Biso   1.000  O
  O3       1.0000 0.97244  0.69406  0.51022  Biso   1.000  O
  O4       1.0000 0.02756  0.19406  0.48978  Biso   1.000  O
  O5       1.0000 0.76377  0.13326  0.27598  Biso   1.000  O
  O6       1.0000 0.23623  0.63326  0.72402  Biso   1.000  O
  H1       1.0000 0.84460  0.16460  0.33450  Biso   1.000  H
  H2       1.0000 0.15540  0.66460  0.66550  Biso   1.000  H
  N1       1.0000 0.64066  0.76737  0.38309  Biso   1.000  N
  N2       1.0000 0.35934  0.26737  0.61691  Biso   1.000  N
  H3       1.0000 0.55220  0.80390  0.40830  Biso   1.000  H
  H4       1.0000 0.44780  0.30390  0.59170  Biso   1.000  H
  N3       1.0000 0.73651  0.99487  0.30004  Biso   1.000  N
  N4       1.0000 0.26349  0.49487  0.69996  Biso   1.000  N
  C1       1.0000 0.86625  0.59308  0.48513  Biso   1.000  C
  C2       1.0000 0.13375  0.09308  0.51487  Biso   1.000  C
  C3       1.0000 0.58980  0.78035  0.24129  Biso   1.000  C
  C4       1.0000 0.41020  0.28035  0.75871  Biso   1.000  C
  C5       1.0000 0.61288  0.93300  0.21527  Biso   1.000  C
  C6       1.0000 0.38712  0.43300  0.78473  Biso   1.000  C
  C7       1.0000 0.48559  0.99890  0.10189  Biso   1.000  C
  C8       1.0000 0.51441  0.49890  0.89811  Biso   1.000  C
  H5       1.0000 0.48180  0.94870  0.02530  Biso   1.000  H
  H6       1.0000 0.51820  0.44870  0.97470  Biso   1.000  H
  H7       1.0000 0.51790  0.09450  0.09310  Biso   1.000  H
  H8       1.0000 0.48210  0.59450  0.90690  Biso   1.000  H
  C9       1.0000 0.30870  0.99155  0.12640  Biso   1.000  C
  C10      1.0000 0.69130  0.49155  0.87360  Biso   1.000  C
  H9       1.0000 0.28030  0.07120  0.17140  Biso   1.000  H
  H10      1.0000 0.71970  0.57120  0.82860  Biso   1.000  H
  C11      1.0000 0.26486  0.85024  0.16905  Biso   1.000  C
  C12      1.0000 0.73514  0.35024  0.83095  Biso   1.000  C
  H11      1.0000 0.21220  0.85060  0.23790  Biso   1.000  H
  H12      1.0000 0.78780  0.35060  0.76210  Biso   1.000  H
  C13      1.0000 0.39759  0.73611  0.17448  Biso   1.000  C
  C14      1.0000 0.60241  0.23611  0.82552  Biso   1.000  C
  H13      1.0000 0.38680  0.70690  0.08880  Biso   1.000  H
  H14      1.0000 0.61320  0.20690  0.91120  Biso   1.000  H
  H15      1.0000 0.37000  0.65690  0.21880  Biso   1.000  H
  H16      1.0000 0.63000  0.15690  0.78120  Biso   1.000  H
  C15      1.0000 0.15346  0.91146  0.04410  Biso   1.000  C
  C16      1.0000 0.84654  0.41146  0.95590  Biso   1.000  C
  C17      1.0000 0.97430  0.96640  0.04030  Biso   1.000  C
  C18      1.0000 0.02570  0.46640  0.95970  Biso   1.000  C
  H17      1.0000 0.93630  0.03440  0.97420  Biso   1.000  H
  H18      1.0000 0.06370  0.53440  0.02580  Biso   1.000  H
  H19      1.0000 0.98160  0.00810  0.12030  Biso   1.000  H
  H20      1.0000 0.01840  0.50810  0.87970  Biso   1.000  H
  H21      1.0000 0.89170  0.89120  0.02380  Biso   1.000  H
  H22      1.0000 0.10830  0.39120  0.97620  Biso   1.000  H
  C19      1.0000 0.15260  0.85163  0.91858  Biso   1.000  C
  C20      1.0000 0.84740  0.35163  0.08142  Biso   1.000  C
  H23      1.0000 0.09840  0.91630  0.85220  Biso   1.000  H
  H24      1.0000 0.90160  0.41630  0.14780  Biso   1.000  H
  H25      1.0000 0.08790  0.76620  0.90390  Biso   1.000  H
  H26      1.0000 0.91210  0.26620  0.09610  Biso   1.000  H
  H27      1.0000 0.27100  0.83430  0.91970  Biso   1.000  H
  H28      1.0000 0.72900  0.33430  0.08030  Biso   1.000  H
  C21      1.0000 0.71560  0.69425  0.19052  Biso   1.000  C
  C22      1.0000 0.28440  0.19425  0.80948  Biso   1.000  C
  H29      1.0000 0.83450  0.71330  0.24020  Biso   1.000  H
  H30      1.0000 0.16550  0.21330  0.75980  Biso   1.000  H
  H31      1.0000 0.69910  0.71850  0.10370  Biso   1.000  H
  H32      1.0000 0.30090  0.21850  0.89630  Biso   1.000  H
  H33      1.0000 0.69150  0.59720  0.19600  Biso   1.000  H
  H34      1.0000 0.30850  0.09720  0.80400  Biso   1.000  H
  C23      1.0000 0.67211  0.62426  0.43304  Biso   1.000  C
  C24      1.0000 0.32789  0.12426  0.56696  Biso   1.000  C
  H35      1.0000 0.61750  0.55910  0.36580  Biso   1.000  H
  H36      1.0000 0.38250  0.05910  0.63420  Biso   1.000  H
  H37      1.0000 0.61850  0.61240  0.49960  Biso   1.000  H
  H38      1.0000 0.38150  0.11240  0.50040  Biso   1.000  H
  O7       1.0000 0.53740  0.84922  0.79615  Biso   1.000  O
  O8       1.0000 0.46260  0.34922  0.20385  Biso   1.000  O
  H39      1.0000 0.60300  0.88000  0.74200  Biso   1.000  H
  H40      1.0000 0.39700  0.38000  0.25800  Biso   1.000  H
  H41      1.0000 0.61400  0.84000  0.88160  Biso   1.000  H
  H42      1.0000 0.38600  0.34000  0.11840  Biso   1.000  H
  O9       1.0000 0.35556  0.76739  0.49295  Biso   1.000  O
  O10      1.0000 0.64444  0.26739  0.50705  Biso   1.000  O
  H43      1.0000 0.30600  0.68190  0.45400  Biso   1.000  H
  H44      1.0000 0.69400  0.18190  0.54600  Biso   1.000  H
  H45      1.0000 0.26800  0.82700  0.50800  Biso   1.000  H
  H46      1.0000 0.73200  0.32700  0.49200  Biso   1.000  H
