data_image0
_cell_length_a       7.775
_cell_length_b       7.995
_cell_length_c       7.949
_cell_angle_alpha    90
_cell_angle_beta     90
_cell_angle_gamma    64.83

_symmetry_space_group_name_H-M    "P 1"
_symmetry_int_tables_number       1

loop_
  _symmetry_equiv_pos_as_xyz
  'x, y, z'

loop_
  _atom_site_label
  _atom_site_occupancy
  _atom_site_fract_x
  _atom_site_fract_y
  _atom_site_fract_z
  _atom_site_thermal_displace_type
  _atom_site_B_iso_or_equiv
  _atom_site_type_symbol
  Cu1      1.0000 0.50000  0.50000  0.50000  Biso   1.000  Cu
  Cu2      1.0000 0.50000  0.00000  0.00000  Biso   1.000  Cu
  O1       1.0000 0.56250  0.55660  0.27200  Biso   1.000  O
  O2       1.0000 0.43750  0.94340  0.77200  Biso   1.000  O
  O3       1.0000 0.43750  0.44340  0.72800  Biso   1.000  O
  O4       1.0000 0.56250  0.05660  0.22800  Biso   1.000  O
  O5       1.0000 0.43270  0.75430  0.57400  Biso   1.000  O
  O6       1.0000 0.56730  0.74570  0.07400  Biso   1.000  O
  O7       1.0000 0.56730  0.24570  0.42600  Biso   1.000  O
  O8       1.0000 0.43270  0.25430  0.92600  Biso   1.000  O
  O9       1.0000 0.82020  0.42710  0.56950  Biso   1.000  O
  O10      1.0000 0.17980  0.07290  0.06950  Biso   1.000  O
  O11      1.0000 0.17980  0.57290  0.43050  Biso   1.000  O
  O12      1.0000 0.82020  0.92710  0.93050  Biso   1.000  O
  N1       1.0000 0.13190  0.25180  0.58970  Biso   1.000  N
  N2       1.0000 0.86810  0.24820  0.08970  Biso   1.000  N
  N3       1.0000 0.86810  0.74820  0.41030  Biso   1.000  N
  N4       1.0000 0.13190  0.75180  0.91030  Biso   1.000  N
  C1       1.0000 0.51010  0.71450  0.21100  Biso   1.000  C
  C2       1.0000 0.48990  0.78550  0.71100  Biso   1.000  C
  C3       1.0000 0.48990  0.28550  0.78900  Biso   1.000  C
  C4       1.0000 0.51010  0.21450  0.28900  Biso   1.000  C
  C5       1.0000 0.95430  0.28360  0.60590  Biso   1.000  C
  C6       1.0000 0.04570  0.21640  0.10590  Biso   1.000  C
  C7       1.0000 0.04570  0.71640  0.39410  Biso   1.000  C
  C8       1.0000 0.95430  0.78360  0.89410  Biso   1.000  C
  H1       1.0000 0.41800  0.82100  0.27800  Biso   1.000  H
  H2       1.0000 0.58200  0.67900  0.77800  Biso   1.000  H
  H3       1.0000 0.58200  0.17900  0.72200  Biso   1.000  H
  H4       1.0000 0.41800  0.32100  0.22200  Biso   1.000  H
  H5       1.0000 0.99000  0.12600  0.60600  Biso   1.000  H
  H6       1.0000 0.01000  0.37400  0.10600  Biso   1.000  H
  H7       1.0000 0.01000  0.87400  0.39400  Biso   1.000  H
  H8       1.0000 0.99000  0.62600  0.89400  Biso   1.000  H
  H9       1.0000 0.22500  0.14200  0.64600  Biso   1.000  H
  H10      1.0000 0.77500  0.35800  0.14600  Biso   1.000  H
  H11      1.0000 0.77500  0.85800  0.35400  Biso   1.000  H
  H12      1.0000 0.22500  0.64200  0.85400  Biso   1.000  H
  H13      1.0000 0.14600  0.34600  0.52800  Biso   1.000  H
  H14      1.0000 0.85400  0.15400  0.02800  Biso   1.000  H
  H15      1.0000 0.85400  0.65400  0.47200  Biso   1.000  H
  H16      1.0000 0.14600  0.84600  0.97200  Biso   1.000  H
