data_image0
_cell_length_a       13.43
_cell_length_b       17.1
_cell_length_c       22.27
_cell_angle_alpha    90
_cell_angle_beta     90
_cell_angle_gamma    128.3

_symmetry_space_group_name_H-M    "P 1"
_symmetry_int_tables_number       1

loop_
  _symmetry_equiv_pos_as_xyz
  'x, y, z'

loop_
  _atom_site_label
  _atom_site_occupancy
  _atom_site_fract_x
  _atom_site_fract_y
  _atom_site_fract_z
  _atom_site_thermal_displace_type
  _atom_site_B_iso_or_equiv
  _atom_site_type_symbol
  Cu1      1.0000 0.03120  0.37890  0.70450  Biso   1.000  Cu
  Cu2      1.0000 0.96880  0.12110  0.20450  Biso   1.000  Cu
  Cu3      1.0000 0.96880  0.62110  0.29550  Biso   1.000  Cu
  Cu4      1.0000 0.03120  0.87890  0.79550  Biso   1.000  Cu
  Cu5      1.0000 0.46820  0.75280  0.79080  Biso   1.000  Cu
  Cu6      1.0000 0.53180  0.74720  0.29080  Biso   1.000  Cu
  Cu7      1.0000 0.53180  0.24720  0.20920  Biso   1.000  Cu
  Cu8      1.0000 0.46820  0.25280  0.70920  Biso   1.000  Cu
  Cu9      1.0000 0.88220  0.44750  0.70710  Biso   1.000  Cu
  Cu10     1.0000 0.11780  0.05250  0.20710  Biso   1.000  Cu
  Cu11     1.0000 0.11780  0.55250  0.29290  Biso   1.000  Cu
  Cu12     1.0000 0.88220  0.94750  0.79290  Biso   1.000  Cu
  O1       1.0000 0.94530  0.40550  0.64600  Biso   1.000  O
  O2       1.0000 0.05470  0.09450  0.14600  Biso   1.000  O
  O3       1.0000 0.05470  0.59450  0.35400  Biso   1.000  O
  O4       1.0000 0.94530  0.90550  0.85400  Biso   1.000  O
  O5       1.0000 0.97700  0.42880  0.76240  Biso   1.000  O
  O6       1.0000 0.02300  0.07120  0.26240  Biso   1.000  O
  O7       1.0000 0.02300  0.57120  0.23760  Biso   1.000  O
  O8       1.0000 0.97700  0.92880  0.73760  Biso   1.000  O
  O9       1.0000 0.23190  0.51640  0.69540  Biso   1.000  O
  O10      1.0000 0.76810  0.98360  0.19540  Biso   1.000  O
  O11      1.0000 0.76810  0.48360  0.30460  Biso   1.000  O
  O12      1.0000 0.23190  0.01640  0.80460  Biso   1.000  O
  O13      1.0000 0.41380  0.65140  0.73010  Biso   1.000  O
  O14      1.0000 0.58620  0.84860  0.23010  Biso   1.000  O
  O15      1.0000 0.58620  0.34860  0.26990  Biso   1.000  O
  O16      1.0000 0.41380  0.15140  0.76990  Biso   1.000  O
  O17      1.0000 0.51590  0.70010  0.85190  Biso   1.000  O
  O18      1.0000 0.48410  0.79990  0.35190  Biso   1.000  O
  O19      1.0000 0.48410  0.29990  0.14810  Biso   1.000  O
  O20      1.0000 0.51590  0.20010  0.64810  Biso   1.000  O
  O21      1.0000 0.68450  0.80450  0.79700  Biso   1.000  O
  O22      1.0000 0.31550  0.69550  0.29700  Biso   1.000  O
  O23      1.0000 0.31550  0.19550  0.20300  Biso   1.000  O
  O24      1.0000 0.68450  0.30450  0.70300  Biso   1.000  O
  O25      1.0000 0.70230  0.74420  0.88120  Biso   1.000  O
  O26      1.0000 0.29770  0.75580  0.38120  Biso   1.000  O
  O27      1.0000 0.29770  0.25580  0.11880  Biso   1.000  O
  O28      1.0000 0.70230  0.24420  0.61880  Biso   1.000  O
  O29      1.0000 0.23470  0.59420  0.77720  Biso   1.000  O
  O30      1.0000 0.76530  0.90580  0.27720  Biso   1.000  O
  O31      1.0000 0.76530  0.40580  0.22280  Biso   1.000  O
  O32      1.0000 0.23470  0.09420  0.72280  Biso   1.000  O
  O33      1.0000 0.64640  0.71960  0.68710  Biso   1.000  O
  O34      1.0000 0.35360  0.78040  0.18710  Biso   1.000  O
  O35      1.0000 0.35360  0.28040  0.31290  Biso   1.000  O
  O36      1.0000 0.64640  0.21960  0.81290  Biso   1.000  O
  O37      1.0000 0.08380  0.03340  0.94950  Biso   1.000  O
  O38      1.0000 0.91620  0.46660  0.44950  Biso   1.000  O
  O39      1.0000 0.91620  0.96660  0.05050  Biso   1.000  O
  O40      1.0000 0.08380  0.53340  0.55050  Biso   1.000  O
  O41      1.0000 0.31600  0.58300  0.58000  Biso   1.000  O
  O42      1.0000 0.68400  0.91700  0.08000  Biso   1.000  O
  O43      1.0000 0.68400  0.41700  0.42000  Biso   1.000  O
  O44      1.0000 0.31600  0.08300  0.92000  Biso   1.000  O
  O45      1.0000 0.53010  0.27030  0.95690  Biso   1.000  O
  O46      1.0000 0.46990  0.22970  0.45690  Biso   1.000  O
  O47      1.0000 0.46990  0.72970  0.04310  Biso   1.000  O
  O48      1.0000 0.53010  0.77030  0.54310  Biso   1.000  O
  O49      1.0000 0.77480  0.94380  0.39710  Biso   1.000  O
  O50      1.0000 0.22520  0.55620  0.89710  Biso   1.000  O
  O51      1.0000 0.22520  0.05620  0.60290  Biso   1.000  O
  O52      1.0000 0.77480  0.44380  0.10290  Biso   1.000  O
  O53      1.0000 0.74520  0.78860  0.57330  Biso   1.000  O
  O54      1.0000 0.25480  0.71140  0.07330  Biso   1.000  O
  O55      1.0000 0.25480  0.21140  0.42670  Biso   1.000  O
  O56      1.0000 0.74520  0.28860  0.92670  Biso   1.000  O
  O57      1.0000 0.44870  0.60400  0.96300  Biso   1.000  O
  O58      1.0000 0.55130  0.89600  0.46300  Biso   1.000  O
  O59      1.0000 0.55130  0.39600  0.03700  Biso   1.000  O
  O60      1.0000 0.44870  0.10400  0.53700  Biso   1.000  O
  O61      1.0000 0.19820  0.23290  0.00230  Biso   1.000  O
  O62      1.0000 0.80180  0.26710  0.50230  Biso   1.000  O
  O63      1.0000 0.80180  0.76710  0.99770  Biso   1.000  O
  O64      1.0000 0.19820  0.73290  0.49770  Biso   1.000  O
  O65      1.0000 0.96910  0.07260  0.46250  Biso   1.000  O
  O66      1.0000 0.03090  0.42740  0.96250  Biso   1.000  O
  O67      1.0000 0.03090  0.92740  0.53750  Biso   1.000  O
  O68      1.0000 0.96910  0.57260  0.03750  Biso   1.000  O
  O69      1.0000 0.23800  0.41420  0.99360  Biso   1.000  O
  O70      1.0000 0.76200  0.08580  0.49360  Biso   1.000  O
  O71      1.0000 0.76200  0.58580  0.00640  Biso   1.000  O
  O72      1.0000 0.23800  0.91420  0.50640  Biso   1.000  O
  O73      1.0000 0.39160  0.44190  0.00410  Biso   1.000  O
  O74      1.0000 0.60840  0.05810  0.50410  Biso   1.000  O
  O75      1.0000 0.60840  0.55810  0.99590  Biso   1.000  O
  O76      1.0000 0.39160  0.94190  0.49590  Biso   1.000  O
  N1       1.0000 0.07040  0.31440  0.76660  Biso   1.000  N
  N2       1.0000 0.92960  0.18560  0.26660  Biso   1.000  N
  N3       1.0000 0.92960  0.68560  0.23340  Biso   1.000  N
  N4       1.0000 0.07040  0.81440  0.73340  Biso   1.000  N
  N5       1.0000 0.06180  0.30130  0.64920  Biso   1.000  N
  N6       1.0000 0.93820  0.19870  0.14920  Biso   1.000  N
  N7       1.0000 0.93820  0.69870  0.35080  Biso   1.000  N
  N8       1.0000 0.06180  0.80130  0.85080  Biso   1.000  N
  N9       1.0000 0.83480  0.50560  0.76770  Biso   1.000  N
  N10      1.0000 0.16520  0.99440  0.26770  Biso   1.000  N
  N11      1.0000 0.16520  0.49440  0.23230  Biso   1.000  N
  N12      1.0000 0.83480  0.00560  0.73230  Biso   1.000  N
  N13      1.0000 0.82910  0.50800  0.65180  Biso   1.000  N
  N14      1.0000 0.17090  0.99200  0.15180  Biso   1.000  N
  N15      1.0000 0.17090  0.49200  0.34820  Biso   1.000  N
  N16      1.0000 0.82910  0.00800  0.84820  Biso   1.000  N
  N17      1.0000 0.45900  0.84040  0.73310  Biso   1.000  N
  N18      1.0000 0.54100  0.65960  0.23310  Biso   1.000  N
  N19      1.0000 0.54100  0.15960  0.26690  Biso   1.000  N
  N20      1.0000 0.45900  0.34040  0.76690  Biso   1.000  N
  N21      1.0000 0.46170  0.83760  0.84950  Biso   1.000  N
  N22      1.0000 0.53830  0.66240  0.34950  Biso   1.000  N
  N23      1.0000 0.53830  0.16240  0.15050  Biso   1.000  N
  N24      1.0000 0.46170  0.33760  0.65050  Biso   1.000  N
  C1       1.0000 0.29010  0.58490  0.73460  Biso   1.000  C
  C2       1.0000 0.70990  0.91510  0.23460  Biso   1.000  C
  C3       1.0000 0.70990  0.41510  0.26540  Biso   1.000  C
  C4       1.0000 0.29010  0.08490  0.76540  Biso   1.000  C
  C5       1.0000 0.63730  0.74940  0.84310  Biso   1.000  C
  C6       1.0000 0.36270  0.75060  0.34310  Biso   1.000  C
  C7       1.0000 0.36270  0.25060  0.15690  Biso   1.000  C
  C8       1.0000 0.63730  0.24940  0.65690  Biso   1.000  C
  C9       1.0000 0.06590  0.32380  0.82560  Biso   1.000  C
  C10      1.0000 0.93410  0.17620  0.32560  Biso   1.000  C
  C11      1.0000 0.93410  0.67620  0.17440  Biso   1.000  C
  C12      1.0000 0.06590  0.82380  0.67440  Biso   1.000  C
  C13      1.0000 0.09670  0.27850  0.86510  Biso   1.000  C
  C14      1.0000 0.90330  0.22150  0.36510  Biso   1.000  C
  C15      1.0000 0.90330  0.72150  0.13490  Biso   1.000  C
  C16      1.0000 0.09670  0.77850  0.63490  Biso   1.000  C
  C17      1.0000 0.12950  0.22250  0.84110  Biso   1.000  C
  C18      1.0000 0.87050  0.27750  0.34110  Biso   1.000  C
  C19      1.0000 0.87050  0.77750  0.15890  Biso   1.000  C
  C20      1.0000 0.12950  0.72250  0.65890  Biso   1.000  C
  C21      1.0000 0.13270  0.21190  0.78050  Biso   1.000  C
  C22      1.0000 0.86730  0.28810  0.28050  Biso   1.000  C
  C23      1.0000 0.86730  0.78810  0.21950  Biso   1.000  C
  C24      1.0000 0.13270  0.71190  0.71950  Biso   1.000  C
  C25      1.0000 0.10410  0.25980  0.74320  Biso   1.000  C
  C26      1.0000 0.89590  0.24020  0.24320  Biso   1.000  C
  C27      1.0000 0.89590  0.74020  0.25680  Biso   1.000  C
  C28      1.0000 0.10410  0.75980  0.75680  Biso   1.000  C
  C29      1.0000 0.10060  0.25510  0.67750  Biso   1.000  C
  C30      1.0000 0.89940  0.24490  0.17750  Biso   1.000  C
  C31      1.0000 0.89940  0.74490  0.32250  Biso   1.000  C
  C32      1.0000 0.10060  0.75510  0.82250  Biso   1.000  C
  C33      1.0000 0.12960  0.20190  0.64500  Biso   1.000  C
  C34      1.0000 0.87040  0.29810  0.14500  Biso   1.000  C
  C35      1.0000 0.87040  0.79810  0.35500  Biso   1.000  C
  C36      1.0000 0.12960  0.70190  0.85500  Biso   1.000  C
  C37      1.0000 0.11880  0.19820  0.58320  Biso   1.000  C
  C38      1.0000 0.88120  0.30180  0.08320  Biso   1.000  C
  C39      1.0000 0.88120  0.80180  0.41680  Biso   1.000  C
  C40      1.0000 0.11880  0.69820  0.91680  Biso   1.000  C
  C41      1.0000 0.07800  0.24570  0.55390  Biso   1.000  C
  C42      1.0000 0.92200  0.25430  0.05390  Biso   1.000  C
  C43      1.0000 0.92200  0.75430  0.44610  Biso   1.000  C
  C44      1.0000 0.07800  0.74570  0.94610  Biso   1.000  C
  C45      1.0000 0.05270  0.30010  0.58860  Biso   1.000  C
  C46      1.0000 0.94730  0.19990  0.08860  Biso   1.000  C
  C47      1.0000 0.94730  0.69990  0.41140  Biso   1.000  C
  C48      1.0000 0.05270  0.80010  0.91140  Biso   1.000  C
  C49      1.0000 0.83380  0.48950  0.82710  Biso   1.000  C
  C50      1.0000 0.16620  0.01050  0.32710  Biso   1.000  C
  C51      1.0000 0.16620  0.51050  0.17290  Biso   1.000  C
  C52      1.0000 0.83380  0.98950  0.67290  Biso   1.000  C
  C53      1.0000 0.79640  0.53220  0.86750  Biso   1.000  C
  C54      1.0000 0.20360  0.96780  0.36750  Biso   1.000  C
  C55      1.0000 0.20360  0.46780  0.13250  Biso   1.000  C
  C56      1.0000 0.79640  0.03220  0.63250  Biso   1.000  C
  C57      1.0000 0.76040  0.58490  0.84450  Biso   1.000  C
  C58      1.0000 0.23960  0.91510  0.34450  Biso   1.000  C
  C59      1.0000 0.23960  0.41510  0.15550  Biso   1.000  C
  C60      1.0000 0.76040  0.08490  0.65550  Biso   1.000  C
  C61      1.0000 0.76020  0.59840  0.78280  Biso   1.000  C
  C62      1.0000 0.23980  0.90160  0.28280  Biso   1.000  C
  C63      1.0000 0.23980  0.40160  0.21720  Biso   1.000  C
  C64      1.0000 0.76020  0.09840  0.71720  Biso   1.000  C
  C65      1.0000 0.79460  0.55570  0.74580  Biso   1.000  C
  C66      1.0000 0.20540  0.94430  0.24580  Biso   1.000  C
  C67      1.0000 0.20540  0.44430  0.25420  Biso   1.000  C
  C68      1.0000 0.79460  0.05570  0.75420  Biso   1.000  C
  C69      1.0000 0.79140  0.55730  0.68030  Biso   1.000  C
  C70      1.0000 0.20860  0.94270  0.18030  Biso   1.000  C
  C71      1.0000 0.20860  0.44270  0.31970  Biso   1.000  C
  C72      1.0000 0.79140  0.05730  0.81970  Biso   1.000  C
  C73      1.0000 0.75440  0.60430  0.64680  Biso   1.000  C
  C74      1.0000 0.24560  0.89570  0.14680  Biso   1.000  C
  C75      1.0000 0.24560  0.39570  0.35320  Biso   1.000  C
  C76      1.0000 0.75440  0.10430  0.85320  Biso   1.000  C
  C77      1.0000 0.75170  0.59540  0.58400  Biso   1.000  C
  C78      1.0000 0.24830  0.90460  0.08400  Biso   1.000  C
  C79      1.0000 0.24830  0.40460  0.41600  Biso   1.000  C
  C80      1.0000 0.75170  0.09540  0.91600  Biso   1.000  C
  C81      1.0000 0.78540  0.54610  0.55520  Biso   1.000  C
  C82      1.0000 0.21460  0.95390  0.05520  Biso   1.000  C
  C83      1.0000 0.21460  0.45390  0.44480  Biso   1.000  C
  C84      1.0000 0.78540  0.04610  0.94480  Biso   1.000  C
  C85      1.0000 0.82390  0.50400  0.59230  Biso   1.000  C
  C86      1.0000 0.17610  0.99600  0.09230  Biso   1.000  C
  C87      1.0000 0.17610  0.49600  0.40770  Biso   1.000  C
  C88      1.0000 0.82390  0.00400  0.90770  Biso   1.000  C
  C89      1.0000 0.46140  0.83120  0.67390  Biso   1.000  C
  C90      1.0000 0.53860  0.66880  0.17390  Biso   1.000  C
  C91      1.0000 0.53860  0.16880  0.32610  Biso   1.000  C
  C92      1.0000 0.46140  0.33120  0.82610  Biso   1.000  C
  C93      1.0000 0.44920  0.89440  0.63570  Biso   1.000  C
  C94      1.0000 0.55080  0.60560  0.13570  Biso   1.000  C
  C95      1.0000 0.55080  0.10560  0.36430  Biso   1.000  C
  C96      1.0000 0.44920  0.39440  0.86430  Biso   1.000  C
  C97      1.0000 0.43360  0.95850  0.66320  Biso   1.000  C
  C98      1.0000 0.56640  0.54150  0.16320  Biso   1.000  C
  C99      1.0000 0.56640  0.04150  0.33680  Biso   1.000  C
  C100     1.0000 0.43360  0.45850  0.83680  Biso   1.000  C
  C101     1.0000 0.42700  0.96120  0.72430  Biso   1.000  C
  C102     1.0000 0.57300  0.53880  0.22430  Biso   1.000  C
  C103     1.0000 0.57300  0.03880  0.27570  Biso   1.000  C
  C104     1.0000 0.42700  0.46120  0.77570  Biso   1.000  C
  C105     1.0000 0.44210  0.90180  0.75930  Biso   1.000  C
  C106     1.0000 0.55790  0.59820  0.25930  Biso   1.000  C
  C107     1.0000 0.55790  0.09820  0.24070  Biso   1.000  C
  C108     1.0000 0.44210  0.40180  0.74070  Biso   1.000  C
  C109     1.0000 0.43730  0.89810  0.82510  Biso   1.000  C
  C110     1.0000 0.56270  0.60190  0.32510  Biso   1.000  C
  C111     1.0000 0.56270  0.10190  0.17490  Biso   1.000  C
  C112     1.0000 0.43730  0.39810  0.67490  Biso   1.000  C
  C113     1.0000 0.41420  0.95180  0.86090  Biso   1.000  C
  C114     1.0000 0.58580  0.54820  0.36090  Biso   1.000  C
  C115     1.0000 0.58580  0.04820  0.13910  Biso   1.000  C
  C116     1.0000 0.41420  0.45180  0.63910  Biso   1.000  C
  C117     1.0000 0.41250  0.94160  0.92170  Biso   1.000  C
  C118     1.0000 0.58750  0.55840  0.42170  Biso   1.000  C
  C119     1.0000 0.58750  0.05840  0.07830  Biso   1.000  C
  C120     1.0000 0.41250  0.44160  0.57830  Biso   1.000  C
  C121     1.0000 0.43690  0.88290  0.94770  Biso   1.000  C
  C122     1.0000 0.56310  0.61710  0.44770  Biso   1.000  C
  C123     1.0000 0.56310  0.11710  0.05230  Biso   1.000  C
  C124     1.0000 0.43690  0.38290  0.55230  Biso   1.000  C
  C125     1.0000 0.45990  0.83160  0.90990  Biso   1.000  C
  C126     1.0000 0.54010  0.66840  0.40990  Biso   1.000  C
  C127     1.0000 0.54010  0.16840  0.09010  Biso   1.000  C
  C128     1.0000 0.45990  0.33160  0.59010  Biso   1.000  C
  H1       1.0000 0.89000  0.35100  0.62200  Biso   1.000  H
  H2       1.0000 0.11000  0.14900  0.12200  Biso   1.000  H
  H3       1.0000 0.11000  0.64900  0.37800  Biso   1.000  H
  H4       1.0000 0.89000  0.85100  0.87800  Biso   1.000  H
  H5       1.0000 0.05300  0.49800  0.76600  Biso   1.000  H
  H6       1.0000 0.94700  0.00200  0.26600  Biso   1.000  H
  H7       1.0000 0.94700  0.50200  0.23400  Biso   1.000  H
  H8       1.0000 0.05300  0.99800  0.73400  Biso   1.000  H
  H9       1.0000 0.06000  0.38300  0.84000  Biso   1.000  H
  H10      1.0000 0.94000  0.11700  0.34000  Biso   1.000  H
  H11      1.0000 0.94000  0.61700  0.16000  Biso   1.000  H
  H12      1.0000 0.06000  0.88300  0.66000  Biso   1.000  H
  H13      1.0000 0.12500  0.16700  0.87400  Biso   1.000  H
  H14      1.0000 0.87500  0.33300  0.37400  Biso   1.000  H
  H15      1.0000 0.87500  0.83300  0.12600  Biso   1.000  H
  H16      1.0000 0.12500  0.66700  0.62600  Biso   1.000  H
  H17      1.0000 0.15500  0.16400  0.75800  Biso   1.000  H
  H18      1.0000 0.84500  0.33600  0.25800  Biso   1.000  H
  H19      1.0000 0.84500  0.83600  0.24200  Biso   1.000  H
  H20      1.0000 0.15500  0.66400  0.74200  Biso   1.000  H
  H21      1.0000 0.12000  0.14100  0.54600  Biso   1.000  H
  H22      1.0000 0.88000  0.35900  0.04600  Biso   1.000  H
  H23      1.0000 0.88000  0.85900  0.45400  Biso   1.000  H
  H24      1.0000 0.12000  0.64100  0.95400  Biso   1.000  H
  H25      1.0000 0.72900  0.62300  0.87300  Biso   1.000  H
  H26      1.0000 0.27100  0.87700  0.37300  Biso   1.000  H
  H27      1.0000 0.27100  0.37700  0.12700  Biso   1.000  H
  H28      1.0000 0.72900  0.12300  0.62700  Biso   1.000  H
  H29      1.0000 0.72400  0.63900  0.55500  Biso   1.000  H
  H30      1.0000 0.27600  0.86100  0.05500  Biso   1.000  H
  H31      1.0000 0.27600  0.36100  0.44500  Biso   1.000  H
  H32      1.0000 0.72400  0.13900  0.94500  Biso   1.000  H
  H33      1.0000 0.82400  0.45700  0.56800  Biso   1.000  H
  H34      1.0000 0.17600  0.04300  0.06800  Biso   1.000  H
  H35      1.0000 0.17600  0.54300  0.43200  Biso   1.000  H
  H36      1.0000 0.82400  0.95700  0.93200  Biso   1.000  H
  H37      1.0000 0.47600  0.78700  0.64300  Biso   1.000  H
  H38      1.0000 0.52400  0.71300  0.14300  Biso   1.000  H
  H39      1.0000 0.52400  0.21300  0.35700  Biso   1.000  H
  H40      1.0000 0.47600  0.28700  0.85700  Biso   1.000  H
  H41      1.0000 0.43800  0.01300  0.63500  Biso   1.000  H
  H42      1.0000 0.56200  0.48700  0.13500  Biso   1.000  H
  H43      1.0000 0.56200  0.98700  0.36500  Biso   1.000  H
  H44      1.0000 0.43800  0.51300  0.86500  Biso   1.000  H
  H45      1.0000 0.44600  0.02800  0.74200  Biso   1.000  H
  H46      1.0000 0.55400  0.47200  0.24200  Biso   1.000  H
  H47      1.0000 0.55400  0.97200  0.25800  Biso   1.000  H
  H48      1.0000 0.44600  0.52800  0.75800  Biso   1.000  H
  H49      1.0000 0.42500  0.00400  0.83600  Biso   1.000  H
  H50      1.0000 0.57500  0.49600  0.33600  Biso   1.000  H
  H51      1.0000 0.57500  0.99600  0.16400  Biso   1.000  H
  H52      1.0000 0.42500  0.50400  0.66400  Biso   1.000  H
  H53      1.0000 0.40700  0.98400  0.95100  Biso   1.000  H
  H54      1.0000 0.59300  0.51600  0.45100  Biso   1.000  H
  H55      1.0000 0.59300  0.01600  0.04900  Biso   1.000  H
  H56      1.0000 0.40700  0.48400  0.54900  Biso   1.000  H
  H57      1.0000 0.40200  0.85700  0.98100  Biso   1.000  H
  H58      1.0000 0.59800  0.64300  0.48100  Biso   1.000  H
  H59      1.0000 0.59800  0.14300  0.01900  Biso   1.000  H
  H60      1.0000 0.40200  0.35700  0.51900  Biso   1.000  H
  H61      1.0000 0.49700  0.80100  0.93200  Biso   1.000  H
  H62      1.0000 0.50300  0.69900  0.43200  Biso   1.000  H
  H63      1.0000 0.50300  0.19900  0.06800  Biso   1.000  H
  H64      1.0000 0.49700  0.30100  0.56800  Biso   1.000  H
