data_image0
_cell_length_a       12.351
_cell_length_b       21.156
_cell_length_c       5.073
_cell_angle_alpha    90
_cell_angle_beta     90
_cell_angle_gamma    90

_symmetry_space_group_name_H-M    "P 1"
_symmetry_int_tables_number       1

loop_
  _symmetry_equiv_pos_as_xyz
  'x, y, z'

loop_
  _atom_site_label
  _atom_site_occupancy
  _atom_site_fract_x
  _atom_site_fract_y
  _atom_site_fract_z
  _atom_site_thermal_displace_type
  _atom_site_B_iso_or_equiv
  _atom_site_type_symbol
  Cu1      1.0000 0.55100  0.16877  0.41520  Biso   1.000  Cu
  Cu2      1.0000 0.05100  0.33123  0.58480  Biso   1.000  Cu
  Cu3      1.0000 0.44900  0.66877  0.08480  Biso   1.000  Cu
  Cu4      1.0000 0.94900  0.83123  0.91520  Biso   1.000  Cu
  Mn1      1.0000 0.53100  0.91742  0.26250  Biso   1.000  Mn
  Mn2      1.0000 0.03100  0.58258  0.73750  Biso   1.000  Mn
  Mn3      1.0000 0.46900  0.41742  0.23750  Biso   1.000  Mn
  Mn4      1.0000 0.96900  0.08258  0.76250  Biso   1.000  Mn
  O1       1.0000 0.46550  0.98970  0.52000  Biso   1.000  O
  O2       1.0000 0.96550  0.51030  0.48000  Biso   1.000  O
  O3       1.0000 0.53450  0.48970  0.98000  Biso   1.000  O
  O4       1.0000 0.03450  0.01030  0.02000  Biso   1.000  O
  O5       1.0000 0.62320  0.00000  0.14900  Biso   1.000  O
  O6       1.0000 0.12320  0.50000  0.85100  Biso   1.000  O
  O7       1.0000 0.37680  0.50000  0.35100  Biso   1.000  O
  O8       1.0000 0.87680  0.00000  0.64900  Biso   1.000  O
  O9       1.0000 0.63440  0.10350  0.22500  Biso   1.000  O
  O10      1.0000 0.13440  0.39650  0.77500  Biso   1.000  O
  O11      1.0000 0.36560  0.60350  0.27500  Biso   1.000  O
  O12      1.0000 0.86560  0.89650  0.72500  Biso   1.000  O
  O13      1.0000 0.59960  0.23660  0.17000  Biso   1.000  O
  O14      1.0000 0.09960  0.26340  0.83000  Biso   1.000  O
  O15      1.0000 0.40040  0.73660  0.33000  Biso   1.000  O
  O16      1.0000 0.90040  0.76340  0.67000  Biso   1.000  O
  O17      1.0000 0.41370  0.33900  0.48300  Biso   1.000  O
  O18      1.0000 0.91370  0.16100  0.51700  Biso   1.000  O
  O19      1.0000 0.58630  0.83900  0.01700  Biso   1.000  O
  O20      1.0000 0.08630  0.66100  0.98300  Biso   1.000  O
  O21      1.0000 0.56180  0.33790  0.08400  Biso   1.000  O
  O22      1.0000 0.06180  0.16210  0.91600  Biso   1.000  O
  O23      1.0000 0.43820  0.83790  0.41600  Biso   1.000  O
  O24      1.0000 0.93820  0.66210  0.58400  Biso   1.000  O
  O25      1.0000 0.26130  0.15870  0.45600  Biso   1.000  O
  O26      1.0000 0.76130  0.34130  0.54400  Biso   1.000  O
  O27      1.0000 0.73870  0.65870  0.04400  Biso   1.000  O
  O28      1.0000 0.23870  0.84130  0.95600  Biso   1.000  O
  O29      1.0000 0.65760  0.88680  0.54500  Biso   1.000  O
  O30      1.0000 0.15760  0.61320  0.45500  Biso   1.000  O
  O31      1.0000 0.34240  0.38680  0.95500  Biso   1.000  O
  O32      1.0000 0.84240  0.11320  0.04500  Biso   1.000  O
  O33      1.0000 0.40030  0.93550  0.97800  Biso   1.000  O
  O34      1.0000 0.90030  0.56450  0.02200  Biso   1.000  O
  O35      1.0000 0.59970  0.43550  0.52200  Biso   1.000  O
  O36      1.0000 0.09970  0.06450  0.47800  Biso   1.000  O
  O37      1.0000 0.69600  0.20840  0.68900  Biso   1.000  O
  O38      1.0000 0.19600  0.29160  0.31100  Biso   1.000  O
  O39      1.0000 0.30400  0.70840  0.81100  Biso   1.000  O
  O40      1.0000 0.80400  0.79160  0.18900  Biso   1.000  O
  N1       1.0000 0.47190  0.09870  0.56100  Biso   1.000  N
  N2       1.0000 0.97190  0.40130  0.43900  Biso   1.000  N
  N3       1.0000 0.52810  0.59870  0.93900  Biso   1.000  N
  N4       1.0000 0.02810  0.90130  0.06100  Biso   1.000  N
  N5       1.0000 0.45480  0.23350  0.54900  Biso   1.000  N
  N6       1.0000 0.95480  0.26650  0.45100  Biso   1.000  N
  N7       1.0000 0.54520  0.73350  0.95100  Biso   1.000  N
  N8       1.0000 0.04520  0.76650  0.04900  Biso   1.000  N
  C1       1.0000 0.59220  0.04780  0.26600  Biso   1.000  C
  C2       1.0000 0.09220  0.45220  0.73400  Biso   1.000  C
  C3       1.0000 0.40780  0.54780  0.23400  Biso   1.000  C
  C4       1.0000 0.90780  0.95220  0.76600  Biso   1.000  C
  C5       1.0000 0.50410  0.04420  0.46900  Biso   1.000  C
  C6       1.0000 0.00410  0.45580  0.53100  Biso   1.000  C
  C7       1.0000 0.49590  0.54420  0.03100  Biso   1.000  C
  C8       1.0000 0.99590  0.95580  0.96900  Biso   1.000  C
  C9       1.0000 0.38200  0.10150  0.74600  Biso   1.000  C
  C10      1.0000 0.88200  0.39850  0.25400  Biso   1.000  C
  C11      1.0000 0.61800  0.60150  0.75400  Biso   1.000  C
  C12      1.0000 0.11800  0.89850  0.24600  Biso   1.000  C
  C13      1.0000 0.31370  0.16050  0.71900  Biso   1.000  C
  C14      1.0000 0.81370  0.33950  0.28100  Biso   1.000  C
  C15      1.0000 0.68630  0.66050  0.78100  Biso   1.000  C
  C16      1.0000 0.18630  0.83950  0.21900  Biso   1.000  C
  C17      1.0000 0.37310  0.22250  0.75500  Biso   1.000  C
  C18      1.0000 0.87310  0.27750  0.24500  Biso   1.000  C
  C19      1.0000 0.62690  0.72250  0.74500  Biso   1.000  C
  C20      1.0000 0.12690  0.77750  0.25500  Biso   1.000  C
  C21      1.0000 0.46700  0.28690  0.43500  Biso   1.000  C
  C22      1.0000 0.96700  0.21310  0.56500  Biso   1.000  C
  C23      1.0000 0.53300  0.78690  0.06500  Biso   1.000  C
  C24      1.0000 0.03300  0.71310  0.93500  Biso   1.000  C
  C25      1.0000 0.54840  0.28850  0.21200  Biso   1.000  C
  C26      1.0000 0.04840  0.21150  0.78800  Biso   1.000  C
  C27      1.0000 0.45160  0.78850  0.28800  Biso   1.000  C
  C28      1.0000 0.95160  0.71150  0.71200  Biso   1.000  C
  H1       1.0000 0.41180  0.09960  0.92400  Biso   1.000  H
  H2       1.0000 0.91180  0.40040  0.07600  Biso   1.000  H
  H3       1.0000 0.58820  0.59960  0.57600  Biso   1.000  H
  H4       1.0000 0.08820  0.90040  0.42400  Biso   1.000  H
  H5       1.0000 0.33730  0.06440  0.72640  Biso   1.000  H
  H6       1.0000 0.83730  0.43560  0.27360  Biso   1.000  H
  H7       1.0000 0.66270  0.56440  0.77360  Biso   1.000  H
  H8       1.0000 0.16270  0.93560  0.22640  Biso   1.000  H
  H9       1.0000 0.24610  0.16800  0.87500  Biso   1.000  H
  H10      1.0000 0.74610  0.33200  0.12500  Biso   1.000  H
  H11      1.0000 0.75390  0.66800  0.62500  Biso   1.000  H
  H12      1.0000 0.25390  0.83200  0.37500  Biso   1.000  H
  H13      1.0000 0.32280  0.25700  0.75670  Biso   1.000  H
  H14      1.0000 0.82280  0.24300  0.24330  Biso   1.000  H
  H15      1.0000 0.67720  0.75700  0.74330  Biso   1.000  H
  H16      1.0000 0.17720  0.74300  0.25670  Biso   1.000  H
  H17      1.0000 0.40900  0.22190  0.92400  Biso   1.000  H
  H18      1.0000 0.90900  0.27810  0.07600  Biso   1.000  H
  H19      1.0000 0.59100  0.72190  0.57600  Biso   1.000  H
  H20      1.0000 0.09100  0.77810  0.42400  Biso   1.000  H
  H21      1.0000 0.21870  0.20700  0.45700  Biso   1.000  H
  H22      1.0000 0.71870  0.29300  0.54300  Biso   1.000  H
  H23      1.0000 0.78130  0.70700  0.04300  Biso   1.000  H
  H24      1.0000 0.28130  0.79300  0.95700  Biso   1.000  H
  H25      1.0000 0.35550  0.90630  0.95700  Biso   1.000  H
  H26      1.0000 0.85550  0.59370  0.04300  Biso   1.000  H
  H27      1.0000 0.64450  0.40630  0.54300  Biso   1.000  H
  H28      1.0000 0.14450  0.09370  0.45700  Biso   1.000  H
  H29      1.0000 0.38280  0.96880  0.87500  Biso   1.000  H
  H30      1.0000 0.88280  0.53120  0.12500  Biso   1.000  H
  H31      1.0000 0.61720  0.46880  0.62500  Biso   1.000  H
  H32      1.0000 0.11720  0.03120  0.37500  Biso   1.000  H
  H33      1.0000 0.75390  0.17770  0.70900  Biso   1.000  H
  H34      1.0000 0.25390  0.32230  0.29100  Biso   1.000  H
  H35      1.0000 0.24610  0.67770  0.79100  Biso   1.000  H
  H36      1.0000 0.74610  0.82230  0.20900  Biso   1.000  H
  H37      1.0000 0.71870  0.24020  0.79300  Biso   1.000  H
  H38      1.0000 0.21870  0.25980  0.20700  Biso   1.000  H
  H39      1.0000 0.28130  0.74020  0.70700  Biso   1.000  H
  H40      1.0000 0.78130  0.75980  0.29300  Biso   1.000  H
