data_image0
_cell_length_a       15.369
_cell_length_b       10.394
_cell_length_c       14.085
_cell_angle_alpha    90
_cell_angle_beta     111.914
_cell_angle_gamma    90

_symmetry_space_group_name_H-M    "P 1"
_symmetry_int_tables_number       1

loop_
  _symmetry_equiv_pos_as_xyz
  'x, y, z'

loop_
  _atom_site_label
  _atom_site_occupancy
  _atom_site_fract_x
  _atom_site_fract_y
  _atom_site_fract_z
  _atom_site_thermal_displace_type
  _atom_site_B_iso_or_equiv
  _atom_site_type_symbol
  Cu1      1.0000 0.70604  0.45485  0.95190  Biso   1.000  Cu
  Cu2      1.0000 0.29396  0.95485  0.54810  Biso   1.000  Cu
  Cu3      1.0000 0.29396  0.54515  0.04810  Biso   1.000  Cu
  Cu4      1.0000 0.70604  0.04515  0.45190  Biso   1.000  Cu
  C1       1.0000 0.84960  0.15990  0.14920  Biso   1.000  C
  C2       1.0000 0.15040  0.65990  0.35080  Biso   1.000  C
  C3       1.0000 0.15040  0.84010  0.85080  Biso   1.000  C
  C4       1.0000 0.84960  0.34010  0.64920  Biso   1.000  C
  O1       1.0000 0.75090  0.33380  0.15611  Biso   1.000  O
  O2       1.0000 0.24910  0.83380  0.34389  Biso   1.000  O
  O3       1.0000 0.24910  0.66620  0.84389  Biso   1.000  O
  O4       1.0000 0.75090  0.16620  0.65611  Biso   1.000  O
  O5       1.0000 0.49125  0.94870  0.83690  Biso   1.000  O
  O6       1.0000 0.50875  0.44870  0.66310  Biso   1.000  O
  O7       1.0000 0.50875  0.05130  0.16310  Biso   1.000  O
  O8       1.0000 0.49125  0.55130  0.33690  Biso   1.000  O
  N1       1.0000 0.63598  0.61220  0.91096  Biso   1.000  N
  N2       1.0000 0.36402  0.11220  0.58904  Biso   1.000  N
  N3       1.0000 0.36402  0.38780  0.08904  Biso   1.000  N
  N4       1.0000 0.63598  0.88780  0.41096  Biso   1.000  N
  N5       1.0000 0.57270  0.38590  0.91340  Biso   1.000  N
  N6       1.0000 0.42730  0.88590  0.58660  Biso   1.000  N
  N7       1.0000 0.42730  0.61410  0.08660  Biso   1.000  N
  N8       1.0000 0.57270  0.11410  0.41340  Biso   1.000  N
  O9       1.0000 0.66384  0.05920  0.15110  Biso   1.000  O
  O10      1.0000 0.33616  0.55920  0.34890  Biso   1.000  O
  O11      1.0000 0.33616  0.94080  0.84890  Biso   1.000  O
  O12      1.0000 0.66384  0.44080  0.65110  Biso   1.000  O
  O13      1.0000 0.77823  0.30450  0.01406  Biso   1.000  O
  O14      1.0000 0.22177  0.80450  0.48594  Biso   1.000  O
  O15      1.0000 0.22177  0.69550  0.98594  Biso   1.000  O
  O16      1.0000 0.77823  0.19550  0.51406  Biso   1.000  O
  N9       1.0000 0.81271  0.58820  0.99510  Biso   1.000  N
  N10      1.0000 0.18729  0.08820  0.50490  Biso   1.000  N
  N11      1.0000 0.18729  0.41180  0.00490  Biso   1.000  N
  N12      1.0000 0.81271  0.91180  0.49510  Biso   1.000  N
  C5       1.0000 0.54210  0.60880  0.87730  Biso   1.000  C
  C6       1.0000 0.45790  0.10880  0.62270  Biso   1.000  C
  C7       1.0000 0.45790  0.39120  0.12270  Biso   1.000  C
  C8       1.0000 0.54210  0.89120  0.37730  Biso   1.000  C
  C9       1.0000 0.93340  0.15000  0.13380  Biso   1.000  C
  C10      1.0000 0.06660  0.65000  0.36620  Biso   1.000  C
  C11      1.0000 0.06660  0.85000  0.86620  Biso   1.000  C
  C12      1.0000 0.93340  0.35000  0.63380  Biso   1.000  C
  H1       1.0000 0.94870  0.21280  0.09560  Biso   1.000  H
  H2       1.0000 0.05130  0.71280  0.40440  Biso   1.000  H
  H3       1.0000 0.05130  0.78720  0.90440  Biso   1.000  H
  H4       1.0000 0.94870  0.28720  0.59560  Biso   1.000  H
  C13      1.0000 0.82740  0.06660  0.20750  Biso   1.000  C
  C14      1.0000 0.17260  0.56660  0.29250  Biso   1.000  C
  C15      1.0000 0.17260  0.93340  0.79250  Biso   1.000  C
  C16      1.0000 0.82740  0.43340  0.70750  Biso   1.000  C
  O17      1.0000 0.74490  0.08500  0.31740  Biso   1.000  O
  O18      1.0000 0.25510  0.58500  0.18260  Biso   1.000  O
  O19      1.0000 0.25510  0.91500  0.68260  Biso   1.000  O
  O20      1.0000 0.74490  0.41500  0.81740  Biso   1.000  O
  C17      1.0000 0.68140  0.72460  0.92040  Biso   1.000  C
  C18      1.0000 0.31860  0.22460  0.57960  Biso   1.000  C
  C19      1.0000 0.31860  0.27540  0.07960  Biso   1.000  C
  C20      1.0000 0.68140  0.77540  0.42040  Biso   1.000  C
  O21      1.0000 0.80790  0.11030  0.87240  Biso   1.000  O
  O22      1.0000 0.19210  0.61030  0.62760  Biso   1.000  O
  O23      1.0000 0.19210  0.88970  0.12760  Biso   1.000  O
  O24      1.0000 0.80790  0.38970  0.37240  Biso   1.000  O
  C21      1.0000 0.53580  0.83840  0.85960  Biso   1.000  C
  C22      1.0000 0.46420  0.33840  0.64040  Biso   1.000  C
  C23      1.0000 0.46420  0.16160  0.14040  Biso   1.000  C
  C24      1.0000 0.53580  0.66160  0.35960  Biso   1.000  C
  C25      1.0000 0.48980  0.71980  0.85040  Biso   1.000  C
  C26      1.0000 0.51020  0.21980  0.64960  Biso   1.000  C
  C27      1.0000 0.51020  0.28020  0.14960  Biso   1.000  C
  C28      1.0000 0.48980  0.78020  0.35040  Biso   1.000  C
  H5       1.0000 0.42470  0.71630  0.82640  Biso   1.000  H
  H6       1.0000 0.57530  0.21630  0.67360  Biso   1.000  H
  H7       1.0000 0.57530  0.28370  0.17360  Biso   1.000  H
  H8       1.0000 0.42470  0.78370  0.32640  Biso   1.000  H
  C29      1.0000 0.78740  0.27480  0.10550  Biso   1.000  C
  C30      1.0000 0.21260  0.77480  0.39450  Biso   1.000  C
  C31      1.0000 0.21260  0.72520  0.89450  Biso   1.000  C
  C32      1.0000 0.78740  0.22520  0.60550  Biso   1.000  C
  C33      1.0000 0.88880  0.96410  0.24580  Biso   1.000  C
  C34      1.0000 0.11120  0.46410  0.25420  Biso   1.000  C
  C35      1.0000 0.11120  0.03590  0.75420  Biso   1.000  C
  C36      1.0000 0.88880  0.53590  0.74580  Biso   1.000  C
  H9       1.0000 0.87410  0.90070  0.28400  Biso   1.000  H
  H10      1.0000 0.12590  0.40070  0.21600  Biso   1.000  H
  H11      1.0000 0.12590  0.09930  0.71600  Biso   1.000  H
  H12      1.0000 0.87410  0.59930  0.78400  Biso   1.000  H
  C37      1.0000 0.63360  0.83910  0.89470  Biso   1.000  C
  C38      1.0000 0.36640  0.33910  0.60530  Biso   1.000  C
  C39      1.0000 0.36640  0.16090  0.10530  Biso   1.000  C
  C40      1.0000 0.63360  0.66090  0.39470  Biso   1.000  C
  H13      1.0000 0.66600  0.91610  0.90050  Biso   1.000  H
  H14      1.0000 0.33400  0.41610  0.59950  Biso   1.000  H
  H15      1.0000 0.33400  0.08390  0.09950  Biso   1.000  H
  H16      1.0000 0.66600  0.58390  0.40050  Biso   1.000  H
  C41      1.0000 0.73820  0.07180  0.22830  Biso   1.000  C
  C42      1.0000 0.26180  0.57180  0.27170  Biso   1.000  C
  C43      1.0000 0.26180  0.92820  0.77170  Biso   1.000  C
  C44      1.0000 0.73820  0.42820  0.72830  Biso   1.000  C
  C45      1.0000 0.94250  0.78220  0.02270  Biso   1.000  C
  C46      1.0000 0.05750  0.28220  0.47730  Biso   1.000  C
  C47      1.0000 0.05750  0.21780  0.97730  Biso   1.000  C
  C48      1.0000 0.94250  0.71780  0.52270  Biso   1.000  C
  H17      1.0000 0.98640  0.84740  0.03220  Biso   1.000  H
  H18      1.0000 0.01360  0.34740  0.46780  Biso   1.000  H
  H19      1.0000 0.01360  0.15260  0.96780  Biso   1.000  H
  H20      1.0000 0.98640  0.65260  0.53220  Biso   1.000  H
  C49      1.0000 0.78470  0.70920  0.96520  Biso   1.000  C
  C50      1.0000 0.21530  0.20920  0.53480  Biso   1.000  C
  C51      1.0000 0.21530  0.29080  0.03480  Biso   1.000  C
  C52      1.0000 0.78470  0.79080  0.46520  Biso   1.000  C
  C53      1.0000 0.50530  0.47750  0.87920  Biso   1.000  C
  C54      1.0000 0.49470  0.97750  0.62080  Biso   1.000  C
  C55      1.0000 0.49470  0.52250  0.12080  Biso   1.000  C
  C56      1.0000 0.50530  0.02250  0.37920  Biso   1.000  C
  C57      1.0000 0.84790  0.80910  0.97700  Biso   1.000  C
  C58      1.0000 0.15210  0.30910  0.52300  Biso   1.000  C
  C59      1.0000 0.15210  0.19090  0.02300  Biso   1.000  C
  C60      1.0000 0.84790  0.69090  0.47700  Biso   1.000  C
  H21      1.0000 0.82710  0.89180  0.95470  Biso   1.000  H
  H22      1.0000 0.17290  0.39180  0.54530  Biso   1.000  H
  H23      1.0000 0.17290  0.10820  0.04530  Biso   1.000  H
  H24      1.0000 0.82710  0.60820  0.45470  Biso   1.000  H
  C61      1.0000 0.41200  0.44880  0.85240  Biso   1.000  C
  C62      1.0000 0.58800  0.94880  0.64760  Biso   1.000  C
  C63      1.0000 0.58800  0.55120  0.14760  Biso   1.000  C
  C64      1.0000 0.41200  0.05120  0.35240  Biso   1.000  C
  H25      1.0000 0.36680  0.51310  0.82950  Biso   1.000  H
  H26      1.0000 0.63320  0.01310  0.67050  Biso   1.000  H
  H27      1.0000 0.63320  0.48690  0.17050  Biso   1.000  H
  H28      1.0000 0.36680  0.98690  0.32950  Biso   1.000  H
  C65      1.0000 0.54590  0.26410  0.92000  Biso   1.000  C
  C66      1.0000 0.45410  0.76410  0.58000  Biso   1.000  C
  C67      1.0000 0.45410  0.73590  0.08000  Biso   1.000  C
  C68      1.0000 0.54590  0.23590  0.42000  Biso   1.000  C
  H29      1.0000 0.59160  0.20050  0.94250  Biso   1.000  H
  H30      1.0000 0.40840  0.70050  0.55750  Biso   1.000  H
  H31      1.0000 0.40840  0.79950  0.05750  Biso   1.000  H
  H32      1.0000 0.59160  0.29950  0.44250  Biso   1.000  H
  C69      1.0000 0.45440  0.23040  0.89500  Biso   1.000  C
  C70      1.0000 0.54560  0.73040  0.60500  Biso   1.000  C
  C71      1.0000 0.54560  0.76960  0.10500  Biso   1.000  C
  C72      1.0000 0.45440  0.26960  0.39500  Biso   1.000  C
  H33      1.0000 0.43830  0.14550  0.90170  Biso   1.000  H
  H34      1.0000 0.56170  0.64550  0.59830  Biso   1.000  H
  H35      1.0000 0.56170  0.85450  0.09830  Biso   1.000  H
  H36      1.0000 0.43830  0.35450  0.40170  Biso   1.000  H
  C73      1.0000 0.38600  0.32300  0.86000  Biso   1.000  C
  C74      1.0000 0.61400  0.82300  0.64000  Biso   1.000  C
  C75      1.0000 0.61400  0.67700  0.14000  Biso   1.000  C
  C76      1.0000 0.38600  0.17700  0.36000  Biso   1.000  C
  H37      1.0000 0.32310  0.30140  0.84160  Biso   1.000  H
  H38      1.0000 0.67690  0.80140  0.65840  Biso   1.000  H
  H39      1.0000 0.67690  0.69860  0.15840  Biso   1.000  H
  H40      1.0000 0.32310  0.19860  0.34160  Biso   1.000  H
  C77      1.0000 0.99430  0.04960  0.17380  Biso   1.000  C
  C78      1.0000 0.00570  0.54960  0.32620  Biso   1.000  C
  C79      1.0000 0.00570  0.95040  0.82620  Biso   1.000  C
  C80      1.0000 0.99430  0.45040  0.67380  Biso   1.000  C
  H41      1.0000 0.05090  0.04550  0.16430  Biso   1.000  H
  H42      1.0000 0.94910  0.54550  0.33570  Biso   1.000  H
  H43      1.0000 0.94910  0.95450  0.83570  Biso   1.000  H
  H44      1.0000 0.05090  0.45450  0.66430  Biso   1.000  H
  C81      1.0000 0.90480  0.56490  0.03800  Biso   1.000  C
  C82      1.0000 0.09520  0.06490  0.46200  Biso   1.000  C
  C83      1.0000 0.09520  0.43510  0.96200  Biso   1.000  C
  C84      1.0000 0.90480  0.93510  0.53800  Biso   1.000  C
  H45      1.0000 0.92470  0.48120  0.05790  Biso   1.000  H
  H46      1.0000 0.07530  0.98120  0.44210  Biso   1.000  H
  H47      1.0000 0.07530  0.51880  0.94210  Biso   1.000  H
  H48      1.0000 0.92470  0.01880  0.55790  Biso   1.000  H
  C85      1.0000 0.97150  0.65950  0.05390  Biso   1.000  C
  C86      1.0000 0.02850  0.15950  0.44610  Biso   1.000  C
  C87      1.0000 0.02850  0.34050  0.94610  Biso   1.000  C
  C88      1.0000 0.97150  0.84050  0.55390  Biso   1.000  C
  H49      1.0000 0.03500  0.64030  0.08520  Biso   1.000  H
  H50      1.0000 0.96500  0.14030  0.41480  Biso   1.000  H
  H51      1.0000 0.96500  0.35970  0.91480  Biso   1.000  H
  H52      1.0000 0.03500  0.85970  0.58520  Biso   1.000  H
  C89      1.0000 0.97010  0.95470  0.22830  Biso   1.000  C
  C90      1.0000 0.02990  0.45470  0.27170  Biso   1.000  C
  C91      1.0000 0.02990  0.04530  0.77170  Biso   1.000  C
  C92      1.0000 0.97010  0.54530  0.72830  Biso   1.000  C
  H53      1.0000 0.00940  0.88440  0.25310  Biso   1.000  H
  H54      1.0000 0.99060  0.38440  0.24690  Biso   1.000  H
  H55      1.0000 0.99060  0.11560  0.74690  Biso   1.000  H
  H56      1.0000 0.00940  0.61560  0.75310  Biso   1.000  H
  H57      1.0000 0.78700  0.13300  0.81060  Biso   1.000  H
  H58      1.0000 0.21300  0.63300  0.68940  Biso   1.000  H
  H59      1.0000 0.21300  0.86700  0.18940  Biso   1.000  H
  H60      1.0000 0.78700  0.36700  0.31060  Biso   1.000  H
  H61      1.0000 0.79600  0.17200  0.90400  Biso   1.000  H
  H62      1.0000 0.20400  0.67200  0.59600  Biso   1.000  H
  H63      1.0000 0.20400  0.82800  0.09600  Biso   1.000  H
  H64      1.0000 0.79600  0.32800  0.40400  Biso   1.000  H
  H65      1.0000 0.43200  0.94600  0.83900  Biso   1.000  H
  H66      1.0000 0.56800  0.44600  0.66100  Biso   1.000  H
  H67      1.0000 0.56800  0.05400  0.16100  Biso   1.000  H
  H68      1.0000 0.43200  0.55400  0.33900  Biso   1.000  H
