data_image0
_cell_length_a       7.9092
_cell_length_b       11.2366
_cell_length_c       19.2416
_cell_angle_alpha    90
_cell_angle_beta     95.413
_cell_angle_gamma    90

_symmetry_space_group_name_H-M    "P 1"
_symmetry_int_tables_number       1

loop_
  _symmetry_equiv_pos_as_xyz
  'x, y, z'

loop_
  _atom_site_label
  _atom_site_occupancy
  _atom_site_fract_x
  _atom_site_fract_y
  _atom_site_fract_z
  _atom_site_thermal_displace_type
  _atom_site_B_iso_or_equiv
  _atom_site_type_symbol
  C1       1.0000 0.44840  0.50820  0.25750  Biso   1.000  C
  C2       1.0000 0.55160  0.00820  0.24250  Biso   1.000  C
  C3       1.0000 0.55160  0.49180  0.74250  Biso   1.000  C
  C4       1.0000 0.44840  0.99180  0.75750  Biso   1.000  C
  H1       1.0000 0.33210  0.48930  0.26540  Biso   1.000  H
  H2       1.0000 0.66790  0.98930  0.23460  Biso   1.000  H
  H3       1.0000 0.66790  0.51070  0.73460  Biso   1.000  H
  H4       1.0000 0.33210  0.01070  0.76540  Biso   1.000  H
  H5       1.0000 0.52150  0.47740  0.29670  Biso   1.000  H
  H6       1.0000 0.47850  0.97740  0.20330  Biso   1.000  H
  H7       1.0000 0.47850  0.52260  0.70330  Biso   1.000  H
  H8       1.0000 0.52150  0.02260  0.79670  Biso   1.000  H
  C5       1.0000 0.46750  0.64000  0.25510  Biso   1.000  C
  C6       1.0000 0.53250  0.14000  0.24490  Biso   1.000  C
  C7       1.0000 0.53250  0.36000  0.74490  Biso   1.000  C
  C8       1.0000 0.46750  0.86000  0.75510  Biso   1.000  C
  H9       1.0000 0.43690  0.67330  0.29870  Biso   1.000  H
  H10      1.0000 0.56310  0.17330  0.20130  Biso   1.000  H
  H11      1.0000 0.56310  0.32670  0.70130  Biso   1.000  H
  H12      1.0000 0.43690  0.82670  0.79870  Biso   1.000  H
  H13      1.0000 0.38900  0.67140  0.21790  Biso   1.000  H
  H14      1.0000 0.61100  0.17140  0.28210  Biso   1.000  H
  H15      1.0000 0.61100  0.32860  0.78210  Biso   1.000  H
  H16      1.0000 0.38900  0.82860  0.71790  Biso   1.000  H
  Cu1      1.0000 0.04878  0.19258  0.15583  Biso   1.000  Cu
  Cu2      1.0000 0.95122  0.69258  0.34417  Biso   1.000  Cu
  Cu3      1.0000 0.95122  0.80742  0.84417  Biso   1.000  Cu
  Cu4      1.0000 0.04878  0.30742  0.65583  Biso   1.000  Cu
  C9       1.0000 0.81940  0.36070  0.16030  Biso   1.000  C
  C10      1.0000 0.18060  0.86070  0.33970  Biso   1.000  C
  C11      1.0000 0.18060  0.63930  0.83970  Biso   1.000  C
  C12      1.0000 0.81940  0.13930  0.66030  Biso   1.000  C
  C13      1.0000 0.97890  0.58960  0.21143  Biso   1.000  C
  C14      1.0000 0.02110  0.08960  0.28857  Biso   1.000  C
  C15      1.0000 0.02110  0.41040  0.78857  Biso   1.000  C
  C16      1.0000 0.97890  0.91040  0.71143  Biso   1.000  C
  C17      1.0000 0.79010  0.56480  0.20981  Biso   1.000  C
  C18      1.0000 0.20990  0.06480  0.29019  Biso   1.000  C
  C19      1.0000 0.20990  0.43520  0.79019  Biso   1.000  C
  C20      1.0000 0.79010  0.93520  0.70981  Biso   1.000  C
  C21      1.0000 0.71900  0.46330  0.18525  Biso   1.000  C
  C22      1.0000 0.28100  0.96330  0.31475  Biso   1.000  C
  C23      1.0000 0.28100  0.53670  0.81475  Biso   1.000  C
  C24      1.0000 0.71900  0.03670  0.68525  Biso   1.000  C
  C25      1.0000 0.16990  0.38070  0.05974  Biso   1.000  C
  C26      1.0000 0.83010  0.88070  0.44026  Biso   1.000  C
  C27      1.0000 0.83010  0.61930  0.94026  Biso   1.000  C
  C28      1.0000 0.16990  0.11930  0.55974  Biso   1.000  C
  H17      1.0000 0.12740  0.43790  0.08840  Biso   1.000  H
  H18      1.0000 0.87260  0.93790  0.41160  Biso   1.000  H
  H19      1.0000 0.87260  0.56210  0.91160  Biso   1.000  H
  H20      1.0000 0.12740  0.06210  0.58840  Biso   1.000  H
  C29      1.0000 0.24970  0.41640  0.00170  Biso   1.000  C
  C30      1.0000 0.75030  0.91640  0.49830  Biso   1.000  C
  C31      1.0000 0.75030  0.58360  0.99830  Biso   1.000  C
  C32      1.0000 0.24970  0.08360  0.50170  Biso   1.000  C
  H21      1.0000 0.26070  0.49700  0.99220  Biso   1.000  H
  H22      1.0000 0.73930  0.99700  0.50780  Biso   1.000  H
  H23      1.0000 0.73930  0.50300  0.00780  Biso   1.000  H
  H24      1.0000 0.26070  0.00300  0.49220  Biso   1.000  H
  C33      1.0000 0.31140  0.33470  0.95908  Biso   1.000  C
  C34      1.0000 0.68860  0.83470  0.54092  Biso   1.000  C
  C35      1.0000 0.68860  0.66530  0.04092  Biso   1.000  C
  C36      1.0000 0.31140  0.16530  0.45908  Biso   1.000  C
  H25      1.0000 0.36610  0.35940  0.92090  Biso   1.000  H
  H26      1.0000 0.63390  0.85940  0.57910  Biso   1.000  H
  H27      1.0000 0.63390  0.64060  0.07910  Biso   1.000  H
  H28      1.0000 0.36610  0.14060  0.42090  Biso   1.000  H
  C37      1.0000 0.29310  0.21260  0.97232  Biso   1.000  C
  C38      1.0000 0.70690  0.71260  0.52768  Biso   1.000  C
  C39      1.0000 0.70690  0.78740  0.02768  Biso   1.000  C
  C40      1.0000 0.29310  0.28740  0.47232  Biso   1.000  C
  C41      1.0000 0.34360  0.11830  0.92921  Biso   1.000  C
  C42      1.0000 0.65640  0.61830  0.57079  Biso   1.000  C
  C43      1.0000 0.65640  0.88170  0.07079  Biso   1.000  C
  C44      1.0000 0.34360  0.38170  0.42921  Biso   1.000  C
  H29      1.0000 0.39480  0.13660  0.88900  Biso   1.000  H
  H30      1.0000 0.60520  0.63660  0.61100  Biso   1.000  H
  H31      1.0000 0.60520  0.86340  0.11100  Biso   1.000  H
  H32      1.0000 0.39480  0.36340  0.38900  Biso   1.000  H
  C45      1.0000 0.31910  0.00320  0.94529  Biso   1.000  C
  C46      1.0000 0.68090  0.50320  0.55471  Biso   1.000  C
  C47      1.0000 0.68090  0.99680  0.05471  Biso   1.000  C
  C48      1.0000 0.31910  0.49680  0.44529  Biso   1.000  C
  H33      1.0000 0.35150  0.94380  0.91560  Biso   1.000  H
  H34      1.0000 0.64850  0.44380  0.58440  Biso   1.000  H
  H35      1.0000 0.64850  0.05620  0.08440  Biso   1.000  H
  H36      1.0000 0.35150  0.55620  0.41560  Biso   1.000  H
  C49      1.0000 0.24410  0.97090  0.00747  Biso   1.000  C
  C50      1.0000 0.75590  0.47090  0.49253  Biso   1.000  C
  C51      1.0000 0.75590  0.02910  0.99253  Biso   1.000  C
  C52      1.0000 0.24410  0.52910  0.50747  Biso   1.000  C
  C53      1.0000 0.21820  0.85360  0.02913  Biso   1.000  C
  C54      1.0000 0.78180  0.35360  0.47087  Biso   1.000  C
  C55      1.0000 0.78180  0.14640  0.97087  Biso   1.000  C
  C56      1.0000 0.21820  0.64640  0.52913  Biso   1.000  C
  H37      1.0000 0.25030  0.79000  0.00240  Biso   1.000  H
  H38      1.0000 0.74970  0.29000  0.49760  Biso   1.000  H
  H39      1.0000 0.74970  0.21000  0.99760  Biso   1.000  H
  H40      1.0000 0.25030  0.71000  0.50240  Biso   1.000  H
  C57      1.0000 0.14600  0.83330  0.08946  Biso   1.000  C
  C58      1.0000 0.85400  0.33330  0.41054  Biso   1.000  C
  C59      1.0000 0.85400  0.16670  0.91054  Biso   1.000  C
  C60      1.0000 0.14600  0.66670  0.58946  Biso   1.000  C
  H41      1.0000 0.13080  0.75570  0.10450  Biso   1.000  H
  H42      1.0000 0.86920  0.25570  0.39550  Biso   1.000  H
  H43      1.0000 0.86920  0.24430  0.89550  Biso   1.000  H
  H44      1.0000 0.13080  0.74430  0.60450  Biso   1.000  H
  C61      1.0000 0.09490  0.92860  0.12858  Biso   1.000  C
  C62      1.0000 0.90510  0.42860  0.37142  Biso   1.000  C
  C63      1.0000 0.90510  0.07140  0.87142  Biso   1.000  C
  C64      1.0000 0.09490  0.57140  0.62858  Biso   1.000  C
  H45      1.0000 0.04470  0.91320  0.16940  Biso   1.000  H
  H46      1.0000 0.95530  0.41320  0.33060  Biso   1.000  H
  H47      1.0000 0.95530  0.08680  0.83060  Biso   1.000  H
  H48      1.0000 0.04470  0.58680  0.66940  Biso   1.000  H
  C65      1.0000 0.19130  0.06170  0.05022  Biso   1.000  C
  C66      1.0000 0.80870  0.56170  0.44978  Biso   1.000  C
  C67      1.0000 0.80870  0.93830  0.94978  Biso   1.000  C
  C68      1.0000 0.19130  0.43830  0.55022  Biso   1.000  C
  C69      1.0000 0.21400  0.18360  0.03235  Biso   1.000  C
  C70      1.0000 0.78600  0.68360  0.46765  Biso   1.000  C
  C71      1.0000 0.78600  0.81640  0.96765  Biso   1.000  C
  C72      1.0000 0.21400  0.31640  0.53235  Biso   1.000  C
  N1       1.0000 0.15330  0.26547  0.07481  Biso   1.000  N
  N2       1.0000 0.84670  0.76547  0.42519  Biso   1.000  N
  N3       1.0000 0.84670  0.73453  0.92519  Biso   1.000  N
  N4       1.0000 0.15330  0.23453  0.57481  Biso   1.000  N
  N5       1.0000 0.11540  0.04113  0.10959  Biso   1.000  N
  N6       1.0000 0.88460  0.54113  0.39041  Biso   1.000  N
  N7       1.0000 0.88460  0.95887  0.89041  Biso   1.000  N
  N8       1.0000 0.11540  0.45887  0.60959  Biso   1.000  N
  O1       1.0000 0.96690  0.34347  0.19050  Biso   1.000  O
  O2       1.0000 0.03310  0.84347  0.30950  Biso   1.000  O
  O3       1.0000 0.03310  0.65653  0.80950  Biso   1.000  O
  O4       1.0000 0.96690  0.15653  0.69050  Biso   1.000  O
  O5       1.0000 0.75140  0.29592  0.11353  Biso   1.000  O
  O6       1.0000 0.24860  0.79592  0.38647  Biso   1.000  O
  O7       1.0000 0.24860  0.70408  0.88647  Biso   1.000  O
  O8       1.0000 0.75140  0.20408  0.61353  Biso   1.000  O
  O9       1.0000 0.04530  0.58829  0.15606  Biso   1.000  O
  O10      1.0000 0.95470  0.08829  0.34394  Biso   1.000  O
  O11      1.0000 0.95470  0.41171  0.84394  Biso   1.000  O
  O12      1.0000 0.04530  0.91171  0.65606  Biso   1.000  O
  O13      1.0000 0.05750  0.61151  0.27121  Biso   1.000  O
  O14      1.0000 0.94250  0.11151  0.22879  Biso   1.000  O
  O15      1.0000 0.94250  0.38849  0.72879  Biso   1.000  O
  O16      1.0000 0.05750  0.88849  0.77121  Biso   1.000  O
  S1       1.0000 0.68175  0.68784  0.24130  Biso   1.000  S
  S2       1.0000 0.31825  0.18784  0.25870  Biso   1.000  S
  S3       1.0000 0.31825  0.31216  0.75870  Biso   1.000  S
  S4       1.0000 0.68175  0.81216  0.74130  Biso   1.000  S
  S5       1.0000 0.50043  0.43319  0.17788  Biso   1.000  S
  S6       1.0000 0.49957  0.93319  0.32212  Biso   1.000  S
  S7       1.0000 0.49957  0.56681  0.82212  Biso   1.000  S
  S8       1.0000 0.50043  0.06681  0.67788  Biso   1.000  S
  C73      1.0000 0.39940  0.54250  0.22610  Biso   1.000  C
  C74      1.0000 0.60060  0.04250  0.27390  Biso   1.000  C
  C75      1.0000 0.60060  0.45750  0.77390  Biso   1.000  C
  C76      1.0000 0.39940  0.95750  0.72610  Biso   1.000  C
  C77      1.0000 0.51830  0.60480  0.28060  Biso   1.000  C
  C78      1.0000 0.48170  0.10480  0.21940  Biso   1.000  C
  C79      1.0000 0.48170  0.39520  0.71940  Biso   1.000  C
  C80      1.0000 0.51830  0.89520  0.78060  Biso   1.000  C
  H49      1.0000 0.34770  0.60150  0.19400  Biso   1.000  H
  H50      1.0000 0.65230  0.10150  0.30600  Biso   1.000  H
  H51      1.0000 0.65230  0.39850  0.80600  Biso   1.000  H
  H52      1.0000 0.34770  0.89850  0.69400  Biso   1.000  H
  H53      1.0000 0.30920  0.50490  0.24900  Biso   1.000  H
  H54      1.0000 0.69080  0.00490  0.25100  Biso   1.000  H
  H55      1.0000 0.69080  0.49510  0.75100  Biso   1.000  H
  H56      1.0000 0.30920  0.99510  0.74900  Biso   1.000  H
  H57      1.0000 0.57150  0.54620  0.31260  Biso   1.000  H
  H58      1.0000 0.42850  0.04620  0.18740  Biso   1.000  H
  H59      1.0000 0.42850  0.45380  0.68740  Biso   1.000  H
  H60      1.0000 0.57150  0.95380  0.81260  Biso   1.000  H
  H61      1.0000 0.45360  0.65870  0.30720  Biso   1.000  H
  H62      1.0000 0.54640  0.15870  0.19280  Biso   1.000  H
  H63      1.0000 0.54640  0.34130  0.69280  Biso   1.000  H
  H64      1.0000 0.45360  0.84130  0.80720  Biso   1.000  H
