data_image0
_cell_length_a       7.7845
_cell_length_b       12.2006
_cell_length_c       12.2707
_cell_angle_alpha    109.26
_cell_angle_beta     94.393
_cell_angle_gamma    99.606

_symmetry_space_group_name_H-M    "P 1"
_symmetry_int_tables_number       1

loop_
  _symmetry_equiv_pos_as_xyz
  'x, y, z'

loop_
  _atom_site_label
  _atom_site_occupancy
  _atom_site_fract_x
  _atom_site_fract_y
  _atom_site_fract_z
  _atom_site_thermal_displace_type
  _atom_site_B_iso_or_equiv
  _atom_site_type_symbol
  C1       1.0000 0.34220  0.13310  0.48250  Biso   1.000  C
  C2       1.0000 0.65780  0.86690  0.51750  Biso   1.000  C
  H1       1.0000 0.28100  0.05080  0.45530  Biso   1.000  H
  H2       1.0000 0.71900  0.94920  0.54470  Biso   1.000  H
  H3       1.0000 0.40050  0.14680  0.41970  Biso   1.000  H
  H4       1.0000 0.59950  0.85320  0.58030  Biso   1.000  H
  C3       1.0000 0.20990  0.21280  0.51320  Biso   1.000  C
  C4       1.0000 0.79010  0.78720  0.48680  Biso   1.000  C
  H5       1.0000 0.27200  0.29410  0.55310  Biso   1.000  H
  H6       1.0000 0.72800  0.70590  0.44690  Biso   1.000  H
  H7       1.0000 0.14150  0.20920  0.44220  Biso   1.000  H
  H8       1.0000 0.85850  0.79080  0.55780  Biso   1.000  H
  O1       1.0000 0.59320  0.17440  0.87030  Biso   1.000  O
  O2       1.0000 0.40680  0.82560  0.12970  Biso   1.000  O
  O3       1.0000 0.45940  0.98720  0.77530  Biso   1.000  O
  O4       1.0000 0.54060  0.01280  0.22470  Biso   1.000  O
  O5       1.0000 0.46700  0.82100  0.10510  Biso   1.000  O
  O6       1.0000 0.53300  0.17900  0.89490  Biso   1.000  O
  O7       1.0000 0.48510  0.00160  0.23270  Biso   1.000  O
  O8       1.0000 0.51490  0.99840  0.76730  Biso   1.000  O
  Cu1      1.0000 0.81639  0.05365  0.89835  Biso   1.000  Cu
  Cu2      1.0000 0.18361  0.94635  0.10165  Biso   1.000  Cu
  Cu3      1.0000 0.45828  0.88674  0.90603  Biso   1.000  Cu
  Cu4      1.0000 0.54172  0.11326  0.09397  Biso   1.000  Cu
  C5       1.0000 0.10080  0.10750  0.79790  Biso   1.000  C
  C6       1.0000 0.89920  0.89250  0.20210  Biso   1.000  C
  C7       1.0000 0.47810  0.09720  0.79530  Biso   1.000  C
  C8       1.0000 0.52190  0.90280  0.20470  Biso   1.000  C
  C9       1.0000 0.19890  0.13540  0.70680  Biso   1.000  C
  C10      1.0000 0.80110  0.86460  0.29320  Biso   1.000  C
  C11      1.0000 0.37170  0.13210  0.70670  Biso   1.000  C
  C12      1.0000 0.62830  0.86790  0.29330  Biso   1.000  C
  C13      1.0000 0.74530  0.78820  0.80390  Biso   1.000  C
  C14      1.0000 0.25470  0.21180  0.19610  Biso   1.000  C
  C15      1.0000 0.10300  0.75140  0.86540  Biso   1.000  C
  C16      1.0000 0.89700  0.24860  0.13460  Biso   1.000  C
  C17      1.0000 0.96360  0.65670  0.77540  Biso   1.000  C
  C18      1.0000 0.03640  0.34330  0.22460  Biso   1.000  C
  C19      1.0000 0.80300  0.67330  0.74780  Biso   1.000  C
  C20      1.0000 0.19700  0.32670  0.25220  Biso   1.000  C
  C21      1.0000 0.86560  0.41880  0.63040  Biso   1.000  C
  C22      1.0000 0.13440  0.58120  0.36960  Biso   1.000  C
  H9       1.0000 0.79660  0.38810  0.68050  Biso   1.000  H
  H10      1.0000 0.20340  0.61190  0.31950  Biso   1.000  H
  H11      1.0000 0.90770  0.35340  0.57780  Biso   1.000  H
  H12      1.0000 0.09230  0.64660  0.42220  Biso   1.000  H
  C23      1.0000 0.74950  0.46450  0.56060  Biso   1.000  C
  C24      1.0000 0.25050  0.53550  0.43940  Biso   1.000  C
  H13      1.0000 0.82110  0.50280  0.51690  Biso   1.000  H
  H14      1.0000 0.17890  0.49720  0.48310  Biso   1.000  H
  H15      1.0000 0.66570  0.39800  0.50490  Biso   1.000  H
  H16      1.0000 0.33430  0.60200  0.49510  Biso   1.000  H
  O9       1.0000 0.93700  0.10246  0.78783  Biso   1.000  O
  O10      1.0000 0.06300  0.89754  0.21217  Biso   1.000  O
  O11      1.0000 0.18440  0.09700  0.88110  Biso   1.000  O
  O12      1.0000 0.81560  0.90300  0.11890  Biso   1.000  O
  O13      1.0000 0.84540  0.88367  0.81860  Biso   1.000  O
  O14      1.0000 0.15460  0.11633  0.18140  Biso   1.000  O
  O15      1.0000 0.58980  0.77245  0.82630  Biso   1.000  O
  O16      1.0000 0.41020  0.22755  0.17370  Biso   1.000  O
  O17      1.0000 0.06930  0.79353  0.96624  Biso   1.000  O
  O18      1.0000 0.93070  0.20647  0.03376  Biso   1.000  O
  O19      1.0000 0.24620  0.77370  0.82789  Biso   1.000  O
  O20      1.0000 0.75380  0.22630  0.17211  Biso   1.000  O
  O21      1.0000 0.66690  0.00279  0.99660  Biso   1.000  O
  O22      1.0000 0.33310  0.99721  0.00340  Biso   1.000  O
  H17      1.0000 0.73230  0.96870  0.04430  Biso   1.000  H
  H18      1.0000 0.26770  0.03130  0.95570  Biso   1.000  H
  O23      1.0000 0.78320  0.19500  0.40240  Biso   1.000  O
  O24      1.0000 0.21680  0.80500  0.59760  Biso   1.000  O
  H19      1.0000 0.71770  0.24550  0.42120  Biso   1.000  H
  H20      1.0000 0.28230  0.75450  0.57880  Biso   1.000  H
  H21      1.0000 0.80990  0.18420  0.33420  Biso   1.000  H
  H22      1.0000 0.19010  0.81580  0.66580  Biso   1.000  H
  S1       1.0000 0.50675  0.16113  0.60843  Biso   1.000  S
  S2       1.0000 0.49325  0.83887  0.39157  Biso   1.000  S
  S3       1.0000 0.06298  0.16865  0.60592  Biso   1.000  S
  S4       1.0000 0.93702  0.83135  0.39408  Biso   1.000  S
  S5       1.0000 0.05074  0.52851  0.71859  Biso   1.000  S
  S6       1.0000 0.94926  0.47149  0.28141  Biso   1.000  S
  S7       1.0000 0.63073  0.56804  0.64670  Biso   1.000  S
  S8       1.0000 0.36927  0.43196  0.35330  Biso   1.000  S
  N1       1.0000 0.46520  0.39440  0.95930  Biso   1.000  N
  N2       1.0000 0.53480  0.60560  0.04070  Biso   1.000  N
  H23      1.0000 0.47700  0.30260  0.92040  Biso   1.000  H
  H24      1.0000 0.52300  0.69740  0.07960  Biso   1.000  H
  C25      1.0000 0.52880  0.46110  0.88370  Biso   1.000  C
  C26      1.0000 0.47120  0.53890  0.11630  Biso   1.000  C
  H25      1.0000 0.64930  0.45670  0.87500  Biso   1.000  H
  H26      1.0000 0.35070  0.54330  0.12500  Biso   1.000  H
  H27      1.0000 0.45960  0.42720  0.80790  Biso   1.000  H
  H28      1.0000 0.54040  0.57280  0.19210  Biso   1.000  H
  C27      1.0000 0.48540  0.41140  0.05930  Biso   1.000  C
  C28      1.0000 0.51460  0.58860  0.94070  Biso   1.000  C
  H29      1.0000 0.37210  0.36030  0.04650  Biso   1.000  H
  H30      1.0000 0.62790  0.63970  0.95350  Biso   1.000  H
  H31      1.0000 0.56330  0.39070  0.11030  Biso   1.000  H
  H32      1.0000 0.43670  0.60930  0.88970  Biso   1.000  H
  C29      1.0000 0.27970  0.40150  0.97390  Biso   1.000  C
  C30      1.0000 0.72030  0.59850  0.02610  Biso   1.000  C
  H33      1.0000 0.20830  0.36970  0.89880  Biso   1.000  H
  H34      1.0000 0.79170  0.63030  0.10120  Biso   1.000  H
  H35      1.0000 0.23700  0.35540  0.01990  Biso   1.000  H
  H36      1.0000 0.76300  0.64460  0.98010  Biso   1.000  H
  C31      1.0000 0.73180  0.47040  0.96740  Biso   1.000  C
  C32      1.0000 0.26820  0.52960  0.03260  Biso   1.000  C
  H37      1.0000 0.81100  0.44770  0.01590  Biso   1.000  H
  H38      1.0000 0.18900  0.55230  0.98410  Biso   1.000  H
  H39      1.0000 0.77620  0.46080  0.89470  Biso   1.000  H
  H40      1.0000 0.22380  0.53920  0.10530  Biso   1.000  H
  N3       1.0000 0.55470  0.39390  0.94640  Biso   1.000  N
  N4       1.0000 0.44530  0.60610  0.05360  Biso   1.000  N
  H41      1.0000 0.57340  0.29450  0.89840  Biso   1.000  H
  H42      1.0000 0.42660  0.70550  0.10160  Biso   1.000  H
  C33      1.0000 0.43400  0.42660  0.86790  Biso   1.000  C
  C34      1.0000 0.56600  0.57340  0.13210  Biso   1.000  C
  H43      1.0000 0.31930  0.37670  0.85240  Biso   1.000  H
  H44      1.0000 0.68070  0.62330  0.14760  Biso   1.000  H
  H45      1.0000 0.47880  0.41600  0.79520  Biso   1.000  H
  H46      1.0000 0.52120  0.58400  0.20480  Biso   1.000  H
  C35      1.0000 0.57720  0.44540  0.07470  Biso   1.000  C
  C36      1.0000 0.42280  0.55460  0.92530  Biso   1.000  C
  H47      1.0000 0.53800  0.40080  0.12280  Biso   1.000  H
  H48      1.0000 0.46200  0.59920  0.87720  Biso   1.000  H
  H49      1.0000 0.69720  0.44000  0.06530  Biso   1.000  H
  H50      1.0000 0.30280  0.56000  0.93470  Biso   1.000  H
  C37      1.0000 0.63060  0.79560  0.48950  Biso   1.000  C
  C38      1.0000 0.36940  0.20440  0.51050  Biso   1.000  C
  C39      1.0000 0.81560  0.86830  0.51870  Biso   1.000  C
  C40      1.0000 0.18440  0.13170  0.48130  Biso   1.000  C
  H51      1.0000 0.57930  0.80510  0.56080  Biso   1.000  H
  H52      1.0000 0.42070  0.19490  0.43920  Biso   1.000  H
  H53      1.0000 0.63430  0.71240  0.45350  Biso   1.000  H
  H54      1.0000 0.36570  0.28760  0.54650  Biso   1.000  H
  H55      1.0000 0.87720  0.85450  0.58320  Biso   1.000  H
  H56      1.0000 0.12280  0.14550  0.41680  Biso   1.000  H
  H57      1.0000 0.81120  0.95190  0.54340  Biso   1.000  H
  H58      1.0000 0.18880  0.04810  0.45660  Biso   1.000  H
