data_image0
_cell_length_a       15.308
_cell_length_b       16.129
_cell_length_c       7.999
_cell_angle_alpha    90
_cell_angle_beta     110.94
_cell_angle_gamma    90

_symmetry_space_group_name_H-M    "P 1"
_symmetry_int_tables_number       1

loop_
  _symmetry_equiv_pos_as_xyz
  'x, y, z'

loop_
  _atom_site_label
  _atom_site_occupancy
  _atom_site_fract_x
  _atom_site_fract_y
  _atom_site_fract_z
  _atom_site_thermal_displace_type
  _atom_site_B_iso_or_equiv
  _atom_site_type_symbol
  C1       1.0000 0.58040  0.80030  0.26070  Biso   1.000  C
  C2       1.0000 0.41960  0.80030  0.73930  Biso   1.000  C
  C3       1.0000 0.08040  0.30030  0.26070  Biso   1.000  C
  C4       1.0000 0.91960  0.30030  0.73930  Biso   1.000  C
  H1       1.0000 0.58250  0.86040  0.26310  Biso   1.000  H
  H2       1.0000 0.41750  0.86040  0.73690  Biso   1.000  H
  H3       1.0000 0.08250  0.36040  0.26310  Biso   1.000  H
  H4       1.0000 0.91750  0.36040  0.73690  Biso   1.000  H
  H5       1.0000 0.51520  0.78360  0.21520  Biso   1.000  H
  H6       1.0000 0.48480  0.78360  0.78480  Biso   1.000  H
  H7       1.0000 0.01520  0.28360  0.21520  Biso   1.000  H
  H8       1.0000 0.98480  0.28360  0.78480  Biso   1.000  H
  C5       1.0000 0.62670  0.76740  0.44950  Biso   1.000  C
  C6       1.0000 0.37330  0.76740  0.55050  Biso   1.000  C
  C7       1.0000 0.12670  0.26740  0.44950  Biso   1.000  C
  C8       1.0000 0.87330  0.26740  0.55050  Biso   1.000  C
  H9       1.0000 0.59990  0.79490  0.52780  Biso   1.000  H
  H10      1.0000 0.40010  0.79490  0.47220  Biso   1.000  H
  H11      1.0000 0.09990  0.29490  0.52780  Biso   1.000  H
  H12      1.0000 0.90010  0.29490  0.47220  Biso   1.000  H
  H13      1.0000 0.69290  0.78050  0.49150  Biso   1.000  H
  H14      1.0000 0.30710  0.78050  0.50850  Biso   1.000  H
  H15      1.0000 0.19290  0.28050  0.49150  Biso   1.000  H
  H16      1.0000 0.80710  0.28050  0.50850  Biso   1.000  H
  Cu1      1.0000 0.74340  0.58108  0.75257  Biso   1.000  Cu
  Cu2      1.0000 0.25660  0.58108  0.24743  Biso   1.000  Cu
  Cu3      1.0000 0.24340  0.08108  0.75257  Biso   1.000  Cu
  Cu4      1.0000 0.75660  0.08108  0.24743  Biso   1.000  Cu
  C9       1.0000 0.74870  0.63600  0.09710  Biso   1.000  C
  C10      1.0000 0.25130  0.63600  0.90290  Biso   1.000  C
  C11      1.0000 0.24870  0.13600  0.09710  Biso   1.000  C
  C12      1.0000 0.75130  0.13600  0.90290  Biso   1.000  C
  C13      1.0000 0.72470  0.54120  0.38570  Biso   1.000  C
  C14      1.0000 0.27530  0.54120  0.61430  Biso   1.000  C
  C15      1.0000 0.22470  0.04120  0.38570  Biso   1.000  C
  C16      1.0000 0.77530  0.04120  0.61430  Biso   1.000  C
  C17      1.0000 0.68790  0.66850  0.20010  Biso   1.000  C
  C18      1.0000 0.31210  0.66850  0.79990  Biso   1.000  C
  C19      1.0000 0.18790  0.16850  0.20010  Biso   1.000  C
  C20      1.0000 0.81210  0.16850  0.79990  Biso   1.000  C
  C21      1.0000 0.68010  0.62450  0.33560  Biso   1.000  C
  C22      1.0000 0.31990  0.62450  0.66440  Biso   1.000  C
  C23      1.0000 0.18010  0.12450  0.33560  Biso   1.000  C
  C24      1.0000 0.81990  0.12450  0.66440  Biso   1.000  C
  C25      1.0000 0.82300  0.74790  0.79900  Biso   1.000  C
  C26      1.0000 0.17700  0.74790  0.20100  Biso   1.000  C
  C27      1.0000 0.32300  0.24790  0.79900  Biso   1.000  C
  C28      1.0000 0.67700  0.24790  0.20100  Biso   1.000  C
  H17      1.0000 0.77110  0.75950  0.82980  Biso   1.000  H
  H18      1.0000 0.22890  0.75950  0.17020  Biso   1.000  H
  H19      1.0000 0.27110  0.25950  0.82980  Biso   1.000  H
  H20      1.0000 0.72890  0.25950  0.17020  Biso   1.000  H
  C29      1.0000 0.88270  0.81270  0.79700  Biso   1.000  C
  C30      1.0000 0.11730  0.81270  0.20300  Biso   1.000  C
  C31      1.0000 0.38270  0.31270  0.79700  Biso   1.000  C
  C32      1.0000 0.61730  0.31270  0.20300  Biso   1.000  C
  H21      1.0000 0.87040  0.86650  0.82440  Biso   1.000  H
  H22      1.0000 0.12960  0.86650  0.17560  Biso   1.000  H
  H23      1.0000 0.37040  0.36650  0.82440  Biso   1.000  H
  H24      1.0000 0.62960  0.36650  0.17560  Biso   1.000  H
  C33      1.0000 0.96160  0.79550  0.75290  Biso   1.000  C
  C34      1.0000 0.03840  0.79550  0.24710  Biso   1.000  C
  C35      1.0000 0.46160  0.29550  0.75290  Biso   1.000  C
  C36      1.0000 0.53840  0.29550  0.24710  Biso   1.000  C
  C37      1.0000 0.02680  0.86490  0.75230  Biso   1.000  C
  C38      1.0000 0.97320  0.86490  0.24770  Biso   1.000  C
  C39      1.0000 0.52680  0.36490  0.75230  Biso   1.000  C
  C40      1.0000 0.47320  0.36490  0.24770  Biso   1.000  C
  C41      1.0000 0.00890  0.94600  0.77670  Biso   1.000  C
  C42      1.0000 0.99110  0.94600  0.22330  Biso   1.000  C
  C43      1.0000 0.50890  0.44600  0.77670  Biso   1.000  C
  C44      1.0000 0.49110  0.44600  0.22330  Biso   1.000  C
  H25      1.0000 0.95410  0.96070  0.79420  Biso   1.000  H
  H26      1.0000 0.04590  0.96070  0.20580  Biso   1.000  H
  H27      1.0000 0.45410  0.46070  0.79420  Biso   1.000  H
  H28      1.0000 0.54590  0.46070  0.20580  Biso   1.000  H
  C45      1.0000 0.07330  0.00620  0.77500  Biso   1.000  C
  C46      1.0000 0.92670  0.00620  0.22500  Biso   1.000  C
  C47      1.0000 0.57330  0.50620  0.77500  Biso   1.000  C
  C48      1.0000 0.42670  0.50620  0.22500  Biso   1.000  C
  H29      1.0000 0.05970  0.06140  0.78950  Biso   1.000  H
  H30      1.0000 0.94030  0.06140  0.21050  Biso   1.000  H
  H31      1.0000 0.55970  0.56140  0.78950  Biso   1.000  H
  H32      1.0000 0.44030  0.56140  0.21050  Biso   1.000  H
  C49      1.0000 0.17150  0.91150  0.73600  Biso   1.000  C
  C50      1.0000 0.82850  0.91150  0.26400  Biso   1.000  C
  C51      1.0000 0.67150  0.41150  0.73600  Biso   1.000  C
  C52      1.0000 0.32850  0.41150  0.26400  Biso   1.000  C
  H33      1.0000 0.22830  0.89900  0.72400  Biso   1.000  H
  H34      1.0000 0.77170  0.89900  0.27600  Biso   1.000  H
  H35      1.0000 0.72830  0.39900  0.72400  Biso   1.000  H
  H36      1.0000 0.27170  0.39900  0.27600  Biso   1.000  H
  C53      1.0000 0.11200  0.84660  0.73390  Biso   1.000  C
  C54      1.0000 0.88800  0.84660  0.26610  Biso   1.000  C
  C55      1.0000 0.61200  0.34660  0.73390  Biso   1.000  C
  C56      1.0000 0.38800  0.34660  0.26610  Biso   1.000  C
  H37      1.0000 0.12840  0.79210  0.72060  Biso   1.000  H
  H38      1.0000 0.87160  0.79210  0.27940  Biso   1.000  H
  H39      1.0000 0.62840  0.29210  0.72060  Biso   1.000  H
  H40      1.0000 0.37160  0.29210  0.27940  Biso   1.000  H
  C57      1.0000 0.97290  0.71420  0.71420  Biso   1.000  C
  C58      1.0000 0.02710  0.71420  0.28580  Biso   1.000  C
  C59      1.0000 0.47290  0.21420  0.71420  Biso   1.000  C
  C60      1.0000 0.52710  0.21420  0.28580  Biso   1.000  C
  H41      1.0000 0.02430  0.69930  0.68470  Biso   1.000  H
  H42      1.0000 0.97570  0.69930  0.31530  Biso   1.000  H
  H43      1.0000 0.52430  0.19930  0.68470  Biso   1.000  H
  H44      1.0000 0.47570  0.19930  0.31530  Biso   1.000  H
  C61      1.0000 0.91130  0.65570  0.71820  Biso   1.000  C
  C62      1.0000 0.08870  0.65570  0.28180  Biso   1.000  C
  C63      1.0000 0.41130  0.15570  0.71820  Biso   1.000  C
  C64      1.0000 0.58870  0.15570  0.28180  Biso   1.000  C
  H45      1.0000 0.92180  0.60150  0.69030  Biso   1.000  H
  H46      1.0000 0.07820  0.60150  0.30970  Biso   1.000  H
  H47      1.0000 0.42180  0.10150  0.69030  Biso   1.000  H
  H48      1.0000 0.57820  0.10150  0.30970  Biso   1.000  H
  N1       1.0000 0.83650  0.67080  0.75940  Biso   1.000  N
  N2       1.0000 0.16350  0.67080  0.24060  Biso   1.000  N
  N3       1.0000 0.33650  0.17080  0.75940  Biso   1.000  N
  N4       1.0000 0.66350  0.17080  0.24060  Biso   1.000  N
  N5       1.0000 0.15280  0.98880  0.75370  Biso   1.000  N
  N6       1.0000 0.84720  0.98880  0.24630  Biso   1.000  N
  N7       1.0000 0.65280  0.48880  0.75370  Biso   1.000  N
  N8       1.0000 0.34720  0.48880  0.24630  Biso   1.000  N
  O1       1.0000 0.70520  0.63530  0.93010  Biso   1.000  O
  O2       1.0000 0.29480  0.63530  0.06990  Biso   1.000  O
  O3       1.0000 0.20520  0.13530  0.93010  Biso   1.000  O
  O4       1.0000 0.79480  0.13530  0.06990  Biso   1.000  O
  O5       1.0000 0.83230  0.62560  0.17650  Biso   1.000  O
  O6       1.0000 0.16770  0.62560  0.82350  Biso   1.000  O
  O7       1.0000 0.33230  0.12560  0.17650  Biso   1.000  O
  O8       1.0000 0.66770  0.12560  0.82350  Biso   1.000  O
  O9       1.0000 0.72410  0.49420  0.26680  Biso   1.000  O
  O10      1.0000 0.27590  0.49420  0.73320  Biso   1.000  O
  O11      1.0000 0.22410  0.99420  0.26680  Biso   1.000  O
  O12      1.0000 0.77590  0.99420  0.73320  Biso   1.000  O
  O13      1.0000 0.76190  0.52310  0.55170  Biso   1.000  O
  O14      1.0000 0.23810  0.52310  0.44830  Biso   1.000  O
  O15      1.0000 0.26190  0.02310  0.55170  Biso   1.000  O
  O16      1.0000 0.73810  0.02310  0.44830  Biso   1.000  O
  O17      1.0000 0.90220  0.50660  0.00270  Biso   1.000  O
  O18      1.0000 0.09780  0.50660  0.99730  Biso   1.000  O
  O19      1.0000 0.40220  0.00660  0.00270  Biso   1.000  O
  O20      1.0000 0.59780  0.00660  0.99730  Biso   1.000  O
  H49      1.0000 0.91520  0.55500  0.04650  Biso   1.000  H
  H50      1.0000 0.08480  0.55500  0.95350  Biso   1.000  H
  H51      1.0000 0.41520  0.05500  0.04650  Biso   1.000  H
  H52      1.0000 0.58480  0.05500  0.95350  Biso   1.000  H
  H53      1.0000 0.86200  0.50700  0.89690  Biso   1.000  H
  H54      1.0000 0.13800  0.50700  0.10310  Biso   1.000  H
  H55      1.0000 0.36200  0.00700  0.89690  Biso   1.000  H
  H56      1.0000 0.63800  0.00700  0.10310  Biso   1.000  H
  S1       1.0000 0.61249  0.65712  0.46200  Biso   1.000  S
  S2       1.0000 0.38751  0.65712  0.53800  Biso   1.000  S
  S3       1.0000 0.11249  0.15712  0.46200  Biso   1.000  S
  S4       1.0000 0.88751  0.15712  0.53800  Biso   1.000  S
  S5       1.0000 0.63625  0.76288  0.11310  Biso   1.000  S
  S6       1.0000 0.36375  0.76288  0.88690  Biso   1.000  S
  S7       1.0000 0.13625  0.26288  0.11310  Biso   1.000  S
  S8       1.0000 0.86375  0.26288  0.88690  Biso   1.000  S
  C65      1.0000 0.63000  0.80730  0.31400  Biso   1.000  C
  C66      1.0000 0.37000  0.80730  0.68600  Biso   1.000  C
  C67      1.0000 0.13000  0.30730  0.31400  Biso   1.000  C
  C68      1.0000 0.87000  0.30730  0.68600  Biso   1.000  C
  C69      1.0000 0.56590  0.75790  0.38500  Biso   1.000  C
  C70      1.0000 0.43410  0.75790  0.61500  Biso   1.000  C
  C71      1.0000 0.06590  0.25790  0.38500  Biso   1.000  C
  C72      1.0000 0.93410  0.25790  0.61500  Biso   1.000  C
  H57      1.0000 0.69230  0.80890  0.40520  Biso   1.000  H
  H58      1.0000 0.30770  0.80890  0.59480  Biso   1.000  H
  H59      1.0000 0.19230  0.30890  0.40520  Biso   1.000  H
  H60      1.0000 0.80770  0.30890  0.59480  Biso   1.000  H
  H61      1.0000 0.60740  0.86380  0.29080  Biso   1.000  H
  H62      1.0000 0.39260  0.86380  0.70920  Biso   1.000  H
  H63      1.0000 0.10740  0.36380  0.29080  Biso   1.000  H
  H64      1.0000 0.89260  0.36380  0.70920  Biso   1.000  H
  H65      1.0000 0.50530  0.75190  0.28990  Biso   1.000  H
  H66      1.0000 0.49470  0.75190  0.71010  Biso   1.000  H
  H67      1.0000 0.00530  0.25190  0.28990  Biso   1.000  H
  H68      1.0000 0.99470  0.25190  0.71010  Biso   1.000  H
  H69      1.0000 0.55700  0.78810  0.48210  Biso   1.000  H
  H70      1.0000 0.44300  0.78810  0.51790  Biso   1.000  H
  H71      1.0000 0.05700  0.28810  0.48210  Biso   1.000  H
  H72      1.0000 0.94300  0.28810  0.51790  Biso   1.000  H
