data_image0
_cell_length_a       6.8167
_cell_length_b       10.8308
_cell_length_c       12.0167
_cell_angle_alpha    86.596
_cell_angle_beta     83.997
_cell_angle_gamma    73.499

_symmetry_space_group_name_H-M    "P 1"
_symmetry_int_tables_number       1

loop_
  _symmetry_equiv_pos_as_xyz
  'x, y, z'

loop_
  _atom_site_label
  _atom_site_occupancy
  _atom_site_fract_x
  _atom_site_fract_y
  _atom_site_fract_z
  _atom_site_thermal_displace_type
  _atom_site_B_iso_or_equiv
  _atom_site_type_symbol
  Cu1      1.0000 0.64820  0.56548  0.85192  Biso   1.000  Cu
  Cu2      1.0000 0.35180  0.43452  0.14808  Biso   1.000  Cu
  Cu3      1.0000 0.99169  0.36155  0.00879  Biso   1.000  Cu
  Cu4      1.0000 0.00831  0.63845  0.99121  Biso   1.000  Cu
  C1       1.0000 0.68990  0.36270  0.27020  Biso   1.000  C
  C2       1.0000 0.31010  0.63730  0.72980  Biso   1.000  C
  C3       1.0000 0.79520  0.29180  0.36930  Biso   1.000  C
  C4       1.0000 0.20480  0.70820  0.63070  Biso   1.000  C
  C5       1.0000 0.68750  0.26940  0.46690  Biso   1.000  C
  C6       1.0000 0.31250  0.73060  0.53310  Biso   1.000  C
  H1       1.0000 0.54490  0.29980  0.47410  Biso   1.000  H
  H2       1.0000 0.45510  0.70020  0.52590  Biso   1.000  H
  C7       1.0000 0.78880  0.20150  0.55550  Biso   1.000  C
  C8       1.0000 0.21120  0.79850  0.44450  Biso   1.000  C
  H3       1.0000 0.71270  0.18680  0.62130  Biso   1.000  H
  H4       1.0000 0.28730  0.81320  0.37870  Biso   1.000  H
  C9       1.0000 0.99790  0.15580  0.54810  Biso   1.000  C
  C10      1.0000 0.00210  0.84420  0.45190  Biso   1.000  C
  C11      1.0000 0.11090  0.08530  0.64440  Biso   1.000  C
  C12      1.0000 0.88910  0.91470  0.35560  Biso   1.000  C
  H5       1.0000 0.22310  0.01280  0.61780  Biso   1.000  H
  H6       1.0000 0.77690  0.98720  0.38220  Biso   1.000  H
  H7       1.0000 0.01880  0.05340  0.69800  Biso   1.000  H
  H8       1.0000 0.98120  0.94660  0.30200  Biso   1.000  H
  C13      1.0000 0.10490  0.17610  0.44960  Biso   1.000  C
  C14      1.0000 0.89510  0.82390  0.55040  Biso   1.000  C
  H9       1.0000 0.24730  0.14390  0.44250  Biso   1.000  H
  H10      1.0000 0.75270  0.85610  0.55750  Biso   1.000  H
  C15      1.0000 0.00730  0.24310  0.36000  Biso   1.000  C
  C16      1.0000 0.99270  0.75690  0.64000  Biso   1.000  C
  H11      1.0000 0.08370  0.25550  0.29360  Biso   1.000  H
  H12      1.0000 0.91630  0.74450  0.70640  Biso   1.000  H
  C17      1.0000 0.34470  0.13120  0.76310  Biso   1.000  C
  C18      1.0000 0.65530  0.86880  0.23690  Biso   1.000  C
  C19      1.0000 0.42570  0.22420  0.79920  Biso   1.000  C
  C20      1.0000 0.57430  0.77580  0.20080  Biso   1.000  C
  H13      1.0000 0.36930  0.31050  0.77950  Biso   1.000  H
  H14      1.0000 0.63070  0.68950  0.22050  Biso   1.000  H
  C21      1.0000 0.59000  0.18936  0.86430  Biso   1.000  C
  C22      1.0000 0.41000  0.81064  0.13570  Biso   1.000  C
  C23      1.0000 0.67440  0.29228  0.90050  Biso   1.000  C
  C24      1.0000 0.32560  0.70772  0.09950  Biso   1.000  C
  C25      1.0000 0.67720  0.06040  0.89400  Biso   1.000  C
  C26      1.0000 0.32280  0.93960  0.10600  Biso   1.000  C
  H15      1.0000 0.79000  0.03640  0.93600  Biso   1.000  H
  H16      1.0000 0.21000  0.96360  0.06400  Biso   1.000  H
  C27      1.0000 0.59160  0.96851  0.85950  Biso   1.000  C
  C28      1.0000 0.40840  0.03149  0.14050  Biso   1.000  C
  C29      1.0000 0.68060  0.82868  0.89140  Biso   1.000  C
  C30      1.0000 0.31940  0.17132  0.10860  Biso   1.000  C
  C31      1.0000 0.42540  0.00270  0.79470  Biso   1.000  C
  C32      1.0000 0.57460  0.99730  0.20530  Biso   1.000  C
  H17      1.0000 0.36900  0.94020  0.77280  Biso   1.000  H
  H18      1.0000 0.63100  0.05980  0.22720  Biso   1.000  H
  O1       1.0000 0.56430  0.40666  0.88726  Biso   1.000  O
  O2       1.0000 0.43570  0.59334  0.11274  Biso   1.000  O
  O3       1.0000 0.84390  0.25935  0.94078  Biso   1.000  O
  O4       1.0000 0.15610  0.74065  0.05922  Biso   1.000  O
  O5       1.0000 0.83060  0.80225  0.94925  Biso   1.000  O
  O6       1.0000 0.16940  0.19775  0.05075  Biso   1.000  O
  O7       1.0000 0.59840  0.75149  0.85558  Biso   1.000  O
  O8       1.0000 0.40160  0.24851  0.14442  Biso   1.000  O
  O9       1.0000 0.18860  0.17652  0.69535  Biso   1.000  O
  O10      1.0000 0.81140  0.82348  0.30465  Biso   1.000  O
  O11      1.0000 0.79630  0.38570  0.18565  Biso   1.000  O
  O12      1.0000 0.20370  0.61430  0.81435  Biso   1.000  O
  O13      1.0000 0.49520  0.39652  0.28193  Biso   1.000  O
  O14      1.0000 0.50480  0.60348  0.71807  Biso   1.000  O
  O15      1.0000 0.94770  0.46240  0.75120  Biso   1.000  O
  O16      1.0000 0.05230  0.53760  0.24880  Biso   1.000  O
  H19      1.0000 0.98300  0.39300  0.71600  Biso   1.000  H
  H20      1.0000 0.01700  0.60700  0.28400  Biso   1.000  H
  H21      1.0000 0.02200  0.51400  0.75100  Biso   1.000  H
  H22      1.0000 0.97800  0.48600  0.24900  Biso   1.000  H
  O17      1.0000 0.81060  0.53558  0.98122  Biso   1.000  O
  O18      1.0000 0.18940  0.46442  0.01878  Biso   1.000  O
  H23      1.0000 0.72700  0.54600  0.03300  Biso   1.000  H
  H24      1.0000 0.27300  0.45400  0.96700  Biso   1.000  H
  O19      1.0000 0.12000  0.47120  0.50060  Biso   1.000  O
  O20      1.0000 0.88000  0.52880  0.49940  Biso   1.000  O
  H25      1.0000 0.18500  0.50800  0.44300  Biso   1.000  H
  H26      1.0000 0.81500  0.49200  0.55700  Biso   1.000  H
