data_image0
_cell_length_a       9.1546
_cell_length_b       13.015
_cell_length_c       13.4
_cell_angle_alpha    79.23
_cell_angle_beta     85.15
_cell_angle_gamma    89.84

_symmetry_space_group_name_H-M    "P 1"
_symmetry_int_tables_number       1

loop_
  _symmetry_equiv_pos_as_xyz
  'x, y, z'

loop_
  _atom_site_label
  _atom_site_occupancy
  _atom_site_fract_x
  _atom_site_fract_y
  _atom_site_fract_z
  _atom_site_thermal_displace_type
  _atom_site_B_iso_or_equiv
  _atom_site_type_symbol
  Gd1      1.0000 0.28993  0.16896  0.26583  Biso   1.000  Gd
  Gd2      1.0000 0.71007  0.83104  0.73417  Biso   1.000  Gd
  Cu1      1.0000 0.23285  0.22981  0.00799  Biso   1.000  Cu
  Cu2      1.0000 0.76715  0.77019  0.99201  Biso   1.000  Cu
  O1       1.0000 0.37460  0.15910  0.10100  Biso   1.000  O
  O2       1.0000 0.62540  0.84090  0.89900  Biso   1.000  O
  O3       1.0000 0.30120  0.61710  0.50040  Biso   1.000  O
  O4       1.0000 0.69880  0.38290  0.49960  Biso   1.000  O
  O5       1.0000 0.14390  0.25500  0.13980  Biso   1.000  O
  O6       1.0000 0.85610  0.74500  0.86020  Biso   1.000  O
  O7       1.0000 0.08780  0.27840  0.32770  Biso   1.000  O
  O8       1.0000 0.91220  0.72160  0.67230  Biso   1.000  O
  O9       1.0000 0.57050  0.17030  0.22740  Biso   1.000  O
  O10      1.0000 0.42950  0.82970  0.77260  Biso   1.000  O
  O11      1.0000 0.11440  0.03760  0.22920  Biso   1.000  O
  O12      1.0000 0.88560  0.96240  0.77080  Biso   1.000  O
  O13      1.0000 0.11450  0.04970  0.38670  Biso   1.000  O
  O14      1.0000 0.88550  0.95030  0.61330  Biso   1.000  O
  O15      1.0000 0.00530  0.91730  0.34550  Biso   1.000  O
  O16      1.0000 0.99470  0.08270  0.65450  Biso   1.000  O
  N1       1.0000 0.31350  0.15240  0.90230  Biso   1.000  N
  N2       1.0000 0.68650  0.84760  0.09770  Biso   1.000  N
  N3       1.0000 0.06330  0.29350  0.93610  Biso   1.000  N
  N4       1.0000 0.93670  0.70650  0.06390  Biso   1.000  N
  N5       1.0000 0.07530  0.99880  0.32170  Biso   1.000  N
  N6       1.0000 0.92470  0.00120  0.67830  Biso   1.000  N
  N7       1.0000 0.38350  0.53390  0.13030  Biso   1.000  N
  N8       1.0000 0.61650  0.46610  0.86970  Biso   1.000  N
  N9       1.0000 0.60120  0.63570  0.04820  Biso   1.000  N
  N10      1.0000 0.39880  0.36430  0.95180  Biso   1.000  N
  N11      1.0000 0.39650  0.98970  0.31370  Biso   1.000  N
  N12      1.0000 0.60350  0.01030  0.68630  Biso   1.000  N
  N13      1.0000 0.37650  0.35440  0.22820  Biso   1.000  N
  N14      1.0000 0.62350  0.64560  0.77180  Biso   1.000  N
  N15      1.0000 0.63050  0.81980  0.56700  Biso   1.000  N
  N16      1.0000 0.36950  0.18020  0.43300  Biso   1.000  N
  N17      1.0000 0.52230  0.83660  0.40350  Biso   1.000  N
  N18      1.0000 0.47770  0.16340  0.59650  Biso   1.000  N
  C1       1.0000 0.51230  0.14300  0.06800  Biso   1.000  C
  C2       1.0000 0.48770  0.85700  0.93200  Biso   1.000  C
  C3       1.0000 0.34200  0.63030  0.41100  Biso   1.000  C
  C4       1.0000 0.65800  0.36970  0.58900  Biso   1.000  C
  C5       1.0000 0.62220  0.14540  0.13540  Biso   1.000  C
  C6       1.0000 0.37780  0.85460  0.86460  Biso   1.000  C
  C7       1.0000 0.48580  0.58830  0.37460  Biso   1.000  C
  C8       1.0000 0.51420  0.41170  0.62540  Biso   1.000  C
  H1       1.0000 0.54900  0.57690  0.42910  Biso   1.000  H
  H2       1.0000 0.45100  0.42310  0.57090  Biso   1.000  H
  H3       1.0000 0.53110  0.63780  0.31840  Biso   1.000  H
  H4       1.0000 0.46890  0.36220  0.68160  Biso   1.000  H
  H5       1.0000 0.46910  0.52340  0.35290  Biso   1.000  H
  H6       1.0000 0.53090  0.47660  0.64710  Biso   1.000  H
  C9       1.0000 0.76590  0.12490  0.10710  Biso   1.000  C
  C10      1.0000 0.23410  0.87510  0.89290  Biso   1.000  C
  H7       1.0000 0.83790  0.12700  0.15170  Biso   1.000  H
  H8       1.0000 0.16210  0.87300  0.84830  Biso   1.000  H
  C11      1.0000 0.25160  0.68620  0.33120  Biso   1.000  C
  C12      1.0000 0.74840  0.31380  0.66880  Biso   1.000  C
  H9       1.0000 0.21530  0.63730  0.29350  Biso   1.000  H
  H10      1.0000 0.78470  0.36270  0.70650  Biso   1.000  H
  H11      1.0000 0.31050  0.73880  0.28580  Biso   1.000  H
  H12      1.0000 0.68950  0.26120  0.71420  Biso   1.000  H
  H13      1.0000 0.17050  0.71870  0.36290  Biso   1.000  H
  H14      1.0000 0.82950  0.28130  0.63710  Biso   1.000  H
  C13      1.0000 0.80290  0.10090  0.01020  Biso   1.000  C
  C14      1.0000 0.19710  0.89910  0.98980  Biso   1.000  C
  H15      1.0000 0.89950  0.08560  0.99150  Biso   1.000  H
  H16      1.0000 0.10050  0.91440  0.00850  Biso   1.000  H
  C15      1.0000 0.69860  0.09970  0.94330  Biso   1.000  C
  C16      1.0000 0.30140  0.90030  0.05670  Biso   1.000  C
  H17      1.0000 0.72490  0.08400  0.87930  Biso   1.000  H
  H18      1.0000 0.27510  0.91600  0.12070  Biso   1.000  H
  C17      1.0000 0.55190  0.12190  0.97030  Biso   1.000  C
  C18      1.0000 0.44810  0.87810  0.02970  Biso   1.000  C
  C19      1.0000 0.44520  0.11910  0.89720  Biso   1.000  C
  C20      1.0000 0.55480  0.88090  0.10280  Biso   1.000  C
  H19      1.0000 0.47540  0.09020  0.84060  Biso   1.000  H
  H20      1.0000 0.52460  0.90980  0.15940  Biso   1.000  H
  C21      1.0000 0.22450  0.14280  0.81810  Biso   1.000  C
  C22      1.0000 0.77550  0.85720  0.18190  Biso   1.000  C
  H21      1.0000 0.14160  0.09630  0.84370  Biso   1.000  H
  H22      1.0000 0.85840  0.90370  0.15630  Biso   1.000  H
  H23      1.0000 0.28300  0.11280  0.76720  Biso   1.000  H
  H24      1.0000 0.71700  0.88720  0.23280  Biso   1.000  H
  C23      1.0000 0.16950  0.24930  0.76950  Biso   1.000  C
  C24      1.0000 0.83050  0.75070  0.23050  Biso   1.000  C
  H25      1.0000 0.24790  0.30070  0.76340  Biso   1.000  H
  H26      1.0000 0.75210  0.69930  0.23660  Biso   1.000  H
  H27      1.0000 0.14370  0.24650  0.70130  Biso   1.000  H
  H28      1.0000 0.85630  0.75350  0.29870  Biso   1.000  H
  C25      1.0000 0.03780  0.28400  0.83000  Biso   1.000  C
  C26      1.0000 0.96220  0.71600  0.17000  Biso   1.000  C
  H29      1.0000 0.00680  0.35130  0.79430  Biso   1.000  H
  H30      1.0000 0.99320  0.64870  0.20570  Biso   1.000  H
  H31      1.0000 0.95810  0.23440  0.83260  Biso   1.000  H
  H32      1.0000 0.04190  0.76560  0.16740  Biso   1.000  H
  C27      1.0000 0.96790  0.35010  0.97580  Biso   1.000  C
  C28      1.0000 0.03210  0.64990  0.02420  Biso   1.000  C
  H33      1.0000 0.89920  0.38170  0.93300  Biso   1.000  H
  H34      1.0000 0.10080  0.61830  0.06700  Biso   1.000  H
  C29      1.0000 0.95360  0.37100  0.07920  Biso   1.000  C
  C30      1.0000 0.04640  0.62900  0.92080  Biso   1.000  C
  C31      1.0000 0.03920  0.32120  0.15560  Biso   1.000  C
  C32      1.0000 0.96080  0.67880  0.84440  Biso   1.000  C
  C33      1.0000 0.00710  0.33940  0.25520  Biso   1.000  C
  C34      1.0000 0.99290  0.66060  0.74480  Biso   1.000  C
  C35      1.0000 0.89990  0.40850  0.27760  Biso   1.000  C
  C36      1.0000 0.10010  0.59150  0.72240  Biso   1.000  C
  H35      1.0000 0.88300  0.42140  0.34350  Biso   1.000  H
  H36      1.0000 0.11700  0.57860  0.65650  Biso   1.000  H
  C37      1.0000 0.81670  0.45880  0.20020  Biso   1.000  C
  C38      1.0000 0.18330  0.54120  0.79980  Biso   1.000  C
  H37      1.0000 0.74470  0.50570  0.21460  Biso   1.000  H
  H38      1.0000 0.25530  0.49430  0.78540  Biso   1.000  H
  C39      1.0000 0.84170  0.43870  0.10220  Biso   1.000  C
  C40      1.0000 0.15830  0.56130  0.89780  Biso   1.000  C
  H39      1.0000 0.78400  0.47040  0.05150  Biso   1.000  H
  H40      1.0000 0.21600  0.52960  0.94850  Biso   1.000  H
  C41      1.0000 0.05420  0.28480  0.43420  Biso   1.000  C
  C42      1.0000 0.94580  0.71520  0.56580  Biso   1.000  C
  H41      1.0000 0.08590  0.22140  0.47670  Biso   1.000  H
  H42      1.0000 0.91410  0.77860  0.52330  Biso   1.000  H
  H43      1.0000 0.94900  0.28990  0.44800  Biso   1.000  H
  H44      1.0000 0.05100  0.71010  0.55200  Biso   1.000  H
  C43      1.0000 0.12840  0.37790  0.46130  Biso   1.000  C
  C44      1.0000 0.87160  0.62210  0.53870  Biso   1.000  C
  H45      1.0000 0.23170  0.37620  0.44230  Biso   1.000  H
  H46      1.0000 0.76830  0.62380  0.55770  Biso   1.000  H
  H47      1.0000 0.11220  0.37570  0.53340  Biso   1.000  H
  H48      1.0000 0.88780  0.62430  0.46660  Biso   1.000  H
  H49      1.0000 0.08840  0.44110  0.42540  Biso   1.000  H
  H50      1.0000 0.91160  0.55890  0.57460  Biso   1.000  H
  C45      1.0000 0.67760  0.19830  0.29220  Biso   1.000  C
  C46      1.0000 0.32240  0.80170  0.70780  Biso   1.000  C
  H51      1.0000 0.63410  0.24730  0.33210  Biso   1.000  H
  H52      1.0000 0.36590  0.75270  0.66790  Biso   1.000  H
  H53      1.0000 0.76090  0.23290  0.24970  Biso   1.000  H
  H54      1.0000 0.23910  0.76710  0.75030  Biso   1.000  H
  C47      1.0000 0.73050  0.10390  0.36370  Biso   1.000  C
  C48      1.0000 0.26950  0.89610  0.63630  Biso   1.000  C
  H55      1.0000 0.64940  0.07180  0.40870  Biso   1.000  H
  H56      1.0000 0.35060  0.92820  0.59130  Biso   1.000  H
  H57      1.0000 0.80360  0.12570  0.40300  Biso   1.000  H
  H58      1.0000 0.19640  0.87430  0.59700  Biso   1.000  H
  H59      1.0000 0.77190  0.05450  0.32470  Biso   1.000  H
  H60      1.0000 0.22810  0.94550  0.67530  Biso   1.000  H
  C49      1.0000 0.50260  0.58440  0.08750  Biso   1.000  C
  C50      1.0000 0.49740  0.41560  0.91250  Biso   1.000  C
  C51      1.0000 0.38790  0.43820  0.18020  Biso   1.000  C
  C52      1.0000 0.61210  0.56180  0.81980  Biso   1.000  C
  C53      1.0000 0.45540  0.92070  0.36040  Biso   1.000  C
  C54      1.0000 0.54460  0.07930  0.63960  Biso   1.000  C
  C55      1.0000 0.57830  0.83230  0.49020  Biso   1.000  C
  C56      1.0000 0.42170  0.16770  0.50980  Biso   1.000  C
