data_image0
_cell_length_a       11.1921
_cell_length_b       11.1921
_cell_length_c       21.5632
_cell_angle_alpha    90
_cell_angle_beta     90
_cell_angle_gamma    120

_symmetry_space_group_name_H-M    "P 1"
_symmetry_int_tables_number       1

loop_
  _symmetry_equiv_pos_as_xyz
  'x, y, z'

loop_
  _atom_site_label
  _atom_site_occupancy
  _atom_site_fract_x
  _atom_site_fract_y
  _atom_site_fract_z
  _atom_site_thermal_displace_type
  _atom_site_B_iso_or_equiv
  _atom_site_type_symbol
  Cu1      1.0000 0.00146  0.57423  0.24545  Biso   1.000  Cu
  Cu2      1.0000 0.42577  0.42723  0.57879  Biso   1.000  Cu
  Cu3      1.0000 0.57277  0.99854  0.91212  Biso   1.000  Cu
  Cu4      1.0000 0.99854  0.42577  0.74545  Biso   1.000  Cu
  Cu5      1.0000 0.57423  0.57277  0.07879  Biso   1.000  Cu
  Cu6      1.0000 0.42723  0.00146  0.41212  Biso   1.000  Cu
  S1       1.0000 0.60902  0.37678  0.26634  Biso   1.000  S
  S2       1.0000 0.62322  0.23224  0.59967  Biso   1.000  S
  S3       1.0000 0.76776  0.39098  0.93301  Biso   1.000  S
  S4       1.0000 0.39098  0.62322  0.76634  Biso   1.000  S
  S5       1.0000 0.37678  0.76776  0.09967  Biso   1.000  S
  S6       1.0000 0.23224  0.60902  0.43301  Biso   1.000  S
  O1       1.0000 0.22503  0.68790  0.26733  Biso   1.000  O
  O2       1.0000 0.31210  0.53713  0.60066  Biso   1.000  O
  O3       1.0000 0.46287  0.77497  0.93400  Biso   1.000  O
  O4       1.0000 0.77497  0.31210  0.76733  Biso   1.000  O
  O5       1.0000 0.68790  0.46287  0.10066  Biso   1.000  O
  O6       1.0000 0.53713  0.22503  0.43400  Biso   1.000  O
  H1       1.0000 0.23560  0.69570  0.30500  Biso   1.000  H
  H2       1.0000 0.30430  0.53990  0.63833  Biso   1.000  H
  H3       1.0000 0.46010  0.76440  0.97167  Biso   1.000  H
  H4       1.0000 0.76440  0.30430  0.80500  Biso   1.000  H
  H5       1.0000 0.69570  0.46010  0.13833  Biso   1.000  H
  H6       1.0000 0.53990  0.23560  0.47167  Biso   1.000  H
  H7       1.0000 0.28160  0.70930  0.24500  Biso   1.000  H
  H8       1.0000 0.29070  0.57230  0.57833  Biso   1.000  H
  H9       1.0000 0.42770  0.71840  0.91167  Biso   1.000  H
  H10      1.0000 0.71840  0.29070  0.74500  Biso   1.000  H
  H11      1.0000 0.70930  0.42770  0.07833  Biso   1.000  H
  H12      1.0000 0.57230  0.28160  0.41167  Biso   1.000  H
  O7       1.0000 0.94010  0.55858  0.33276  Biso   1.000  O
  O8       1.0000 0.44142  0.38152  0.66609  Biso   1.000  O
  O9       1.0000 0.61848  0.05990  0.99943  Biso   1.000  O
  O10      1.0000 0.05990  0.44142  0.83276  Biso   1.000  O
  O11      1.0000 0.55858  0.61848  0.16609  Biso   1.000  O
  O12      1.0000 0.38152  0.94010  0.49943  Biso   1.000  O
  H13      1.0000 0.85750  0.50210  0.33510  Biso   1.000  H
  H14      1.0000 0.49790  0.35540  0.66843  Biso   1.000  H
  H15      1.0000 0.64460  0.14250  0.00177  Biso   1.000  H
  H16      1.0000 0.14250  0.49790  0.83510  Biso   1.000  H
  H17      1.0000 0.50210  0.64460  0.16843  Biso   1.000  H
  H18      1.0000 0.35540  0.85750  0.50177  Biso   1.000  H
  H19      1.0000 0.99390  0.54950  0.35540  Biso   1.000  H
  H20      1.0000 0.45050  0.44440  0.68873  Biso   1.000  H
  H21      1.0000 0.55560  0.00610  0.02207  Biso   1.000  H
  H22      1.0000 0.00610  0.45050  0.85540  Biso   1.000  H
  H23      1.0000 0.54950  0.55560  0.18873  Biso   1.000  H
  H24      1.0000 0.44440  0.99390  0.52207  Biso   1.000  H
  O13      1.0000 0.00888  0.56752  0.15459  Biso   1.000  O
  O14      1.0000 0.43248  0.44136  0.48792  Biso   1.000  O
  O15      1.0000 0.55864  0.99112  0.82126  Biso   1.000  O
  O16      1.0000 0.99112  0.43248  0.65459  Biso   1.000  O
  O17      1.0000 0.56752  0.55864  0.98792  Biso   1.000  O
  O18      1.0000 0.44136  0.00888  0.32126  Biso   1.000  O
  H25      1.0000 0.08800  0.61960  0.14280  Biso   1.000  H
  H26      1.0000 0.38040  0.46840  0.47613  Biso   1.000  H
  H27      1.0000 0.53160  0.91200  0.80947  Biso   1.000  H
  H28      1.0000 0.91200  0.38040  0.64280  Biso   1.000  H
  H29      1.0000 0.61960  0.53160  0.97613  Biso   1.000  H
  H30      1.0000 0.46840  0.08800  0.30947  Biso   1.000  H
  H31      1.0000 0.97570  0.49820  0.14410  Biso   1.000  H
  H32      1.0000 0.50180  0.47750  0.47743  Biso   1.000  H
  H33      1.0000 0.52250  0.02430  0.81077  Biso   1.000  H
  H34      1.0000 0.02430  0.50180  0.64410  Biso   1.000  H
  H35      1.0000 0.49820  0.52250  0.97743  Biso   1.000  H
  H36      1.0000 0.47750  0.97570  0.31077  Biso   1.000  H
  O19      1.0000 0.65720  0.39580  0.33127  Biso   1.000  O
  O20      1.0000 0.60420  0.26140  0.66460  Biso   1.000  O
  O21      1.0000 0.73860  0.34280  0.99794  Biso   1.000  O
  O22      1.0000 0.34280  0.60420  0.83127  Biso   1.000  O
  O23      1.0000 0.39580  0.73860  0.16460  Biso   1.000  O
  O24      1.0000 0.26140  0.65720  0.49794  Biso   1.000  O
  O25      1.0000 0.52710  0.44450  0.25685  Biso   1.000  O
  O26      1.0000 0.55550  0.08260  0.59018  Biso   1.000  O
  O27      1.0000 0.91740  0.47290  0.92352  Biso   1.000  O
  O28      1.0000 0.47290  0.55550  0.75685  Biso   1.000  O
  O29      1.0000 0.44450  0.91740  0.09018  Biso   1.000  O
  O30      1.0000 0.08260  0.52710  0.42352  Biso   1.000  O
  O31      1.0000 0.52280  0.22961  0.25268  Biso   1.000  O
  O32      1.0000 0.77039  0.29319  0.58601  Biso   1.000  O
  O33      1.0000 0.70681  0.47720  0.91935  Biso   1.000  O
  O34      1.0000 0.47720  0.77039  0.75268  Biso   1.000  O
  O35      1.0000 0.22961  0.70681  0.08601  Biso   1.000  O
  O36      1.0000 0.29319  0.52280  0.41935  Biso   1.000  O
  O37      1.0000 0.72999  0.43785  0.22501  Biso   1.000  O
  O38      1.0000 0.56215  0.29214  0.55834  Biso   1.000  O
  O39      1.0000 0.70786  0.27001  0.89168  Biso   1.000  O
  O40      1.0000 0.27001  0.56215  0.72501  Biso   1.000  O
  O41      1.0000 0.43785  0.70786  0.05834  Biso   1.000  O
  O42      1.0000 0.29214  0.72999  0.39168  Biso   1.000  O
  N1       1.0000 0.00350  0.39237  0.25082  Biso   1.000  N
  N2       1.0000 0.60763  0.61113  0.58415  Biso   1.000  N
  N3       1.0000 0.38887  0.99650  0.91749  Biso   1.000  N
  N4       1.0000 0.99650  0.60763  0.75082  Biso   1.000  N
  N5       1.0000 0.39237  0.38887  0.08415  Biso   1.000  N
  N6       1.0000 0.61113  0.00350  0.41749  Biso   1.000  N
  N7       1.0000 0.00400  0.75824  0.24024  Biso   1.000  N
  N8       1.0000 0.24176  0.24576  0.57357  Biso   1.000  N
  N9       1.0000 0.75424  0.99600  0.90691  Biso   1.000  N
  N10      1.0000 0.99600  0.24176  0.74024  Biso   1.000  N
  N11      1.0000 0.75824  0.75424  0.07357  Biso   1.000  N
  N12      1.0000 0.24576  0.00400  0.40691  Biso   1.000  N
  C1       1.0000 0.88980  0.27280  0.25258  Biso   1.000  C
  C2       1.0000 0.72720  0.61700  0.58591  Biso   1.000  C
  C3       1.0000 0.38300  0.11020  0.91925  Biso   1.000  C
  C4       1.0000 0.11020  0.72720  0.75258  Biso   1.000  C
  C5       1.0000 0.27280  0.38300  0.08591  Biso   1.000  C
  C6       1.0000 0.61700  0.88980  0.41925  Biso   1.000  C
  H37      1.0000 0.80650  0.27190  0.25540  Biso   1.000  H
  H38      1.0000 0.72810  0.53460  0.58873  Biso   1.000  H
  H39      1.0000 0.46540  0.19350  0.92207  Biso   1.000  H
  H40      1.0000 0.19350  0.72810  0.75540  Biso   1.000  H
  H41      1.0000 0.27190  0.46540  0.08873  Biso   1.000  H
  H42      1.0000 0.53460  0.80650  0.42207  Biso   1.000  H
  C7       1.0000 0.12080  0.38850  0.24940  Biso   1.000  C
  C8       1.0000 0.61150  0.73230  0.58273  Biso   1.000  C
  C9       1.0000 0.26770  0.87920  0.91607  Biso   1.000  C
  C10      1.0000 0.87920  0.61150  0.74940  Biso   1.000  C
  C11      1.0000 0.38850  0.26770  0.08273  Biso   1.000  C
  C12      1.0000 0.73230  0.12080  0.41607  Biso   1.000  C
  H43      1.0000 0.20370  0.47180  0.24990  Biso   1.000  H
  H44      1.0000 0.52820  0.73190  0.58323  Biso   1.000  H
  H45      1.0000 0.26810  0.79630  0.91657  Biso   1.000  H
  H46      1.0000 0.79630  0.52820  0.74990  Biso   1.000  H
  H47      1.0000 0.47180  0.26810  0.08323  Biso   1.000  H
  H48      1.0000 0.73190  0.20370  0.41657  Biso   1.000  H
  C13      1.0000 0.12330  0.88010  0.23939  Biso   1.000  C
  C14      1.0000 0.11990  0.24320  0.57272  Biso   1.000  C
  C15      1.0000 0.75680  0.87670  0.90606  Biso   1.000  C
  C16      1.0000 0.87670  0.11990  0.73939  Biso   1.000  C
  C17      1.0000 0.88010  0.75680  0.07272  Biso   1.000  C
  C18      1.0000 0.24320  0.12330  0.40606  Biso   1.000  C
  H49      1.0000 0.20610  0.87970  0.23730  Biso   1.000  H
  H50      1.0000 0.12030  0.32640  0.57063  Biso   1.000  H
  H51      1.0000 0.67360  0.79390  0.90397  Biso   1.000  H
  H52      1.0000 0.79390  0.12030  0.73730  Biso   1.000  H
  H53      1.0000 0.87970  0.67360  0.07063  Biso   1.000  H
  H54      1.0000 0.32640  0.20610  0.40397  Biso   1.000  H
  C19      1.0000 0.12710  0.00510  0.24150  Biso   1.000  C
  C20      1.0000 0.99490  0.12200  0.57483  Biso   1.000  C
  C21      1.0000 0.87800  0.87290  0.90817  Biso   1.000  C
  C22      1.0000 0.87290  0.99490  0.74150  Biso   1.000  C
  C23      1.0000 0.00510  0.87800  0.07483  Biso   1.000  C
  C24      1.0000 0.12200  0.12710  0.40817  Biso   1.000  C
  H55      1.0000 0.21160  0.08670  0.24110  Biso   1.000  H
  H56      1.0000 0.91330  0.12490  0.57443  Biso   1.000  H
  H57      1.0000 0.87510  0.78840  0.90777  Biso   1.000  H
  H58      1.0000 0.78840  0.91330  0.74110  Biso   1.000  H
  H59      1.0000 0.08670  0.87510  0.07443  Biso   1.000  H
  H60      1.0000 0.12490  0.21160  0.40777  Biso   1.000  H
  C25      1.0000 0.12600  0.26770  0.24730  Biso   1.000  C
  C26      1.0000 0.73230  0.85830  0.58063  Biso   1.000  C
  C27      1.0000 0.14170  0.87400  0.91397  Biso   1.000  C
  C28      1.0000 0.87400  0.73230  0.74730  Biso   1.000  C
  C29      1.0000 0.26770  0.14170  0.08063  Biso   1.000  C
  C30      1.0000 0.85830  0.12600  0.41397  Biso   1.000  C
  H61      1.0000 0.21070  0.27120  0.24570  Biso   1.000  H
  H62      1.0000 0.72880  0.93950  0.57903  Biso   1.000  H
  H63      1.0000 0.06050  0.78930  0.91237  Biso   1.000  H
  H64      1.0000 0.78930  0.72880  0.74570  Biso   1.000  H
  H65      1.0000 0.27120  0.06050  0.07903  Biso   1.000  H
  H66      1.0000 0.93950  0.21070  0.41237  Biso   1.000  H
  C31      1.0000 0.88630  0.14750  0.25050  Biso   1.000  C
  C32      1.0000 0.85250  0.73880  0.58383  Biso   1.000  C
  C33      1.0000 0.26120  0.11370  0.91717  Biso   1.000  C
  C34      1.0000 0.11370  0.85250  0.75050  Biso   1.000  C
  C35      1.0000 0.14750  0.26120  0.08383  Biso   1.000  C
  C36      1.0000 0.73880  0.88630  0.41717  Biso   1.000  C
  H67      1.0000 0.80190  0.06580  0.25120  Biso   1.000  H
  H68      1.0000 0.93420  0.73610  0.58453  Biso   1.000  H
  H69      1.0000 0.26390  0.19810  0.91787  Biso   1.000  H
  H70      1.0000 0.19810  0.93420  0.75120  Biso   1.000  H
  H71      1.0000 0.06580  0.26390  0.08453  Biso   1.000  H
  H72      1.0000 0.73610  0.80190  0.41787  Biso   1.000  H
  C37      1.0000 0.00610  0.14270  0.24742  Biso   1.000  C
  C38      1.0000 0.85730  0.86340  0.58075  Biso   1.000  C
  C39      1.0000 0.13660  0.99390  0.91409  Biso   1.000  C
  C40      1.0000 0.99390  0.85730  0.74742  Biso   1.000  C
  C41      1.0000 0.14270  0.13660  0.08075  Biso   1.000  C
  C42      1.0000 0.86340  0.00610  0.41409  Biso   1.000  C
  C43      1.0000 0.00610  0.00990  0.24423  Biso   1.000  C
  C44      1.0000 0.99010  0.99620  0.57756  Biso   1.000  C
  C45      1.0000 0.00380  0.99390  0.91090  Biso   1.000  C
  C46      1.0000 0.99390  0.99010  0.74423  Biso   1.000  C
  C47      1.0000 0.00990  0.00380  0.07756  Biso   1.000  C
  C48      1.0000 0.99620  0.00610  0.41090  Biso   1.000  C
  C49      1.0000 0.88390  0.88420  0.24411  Biso   1.000  C
  C50      1.0000 0.11580  0.99970  0.57744  Biso   1.000  C
  C51      1.0000 0.00030  0.11610  0.91078  Biso   1.000  C
  C52      1.0000 0.11610  0.11580  0.74411  Biso   1.000  C
  C53      1.0000 0.88420  0.00030  0.07744  Biso   1.000  C
  C54      1.0000 0.99970  0.88390  0.41078  Biso   1.000  C
  H73      1.0000 0.79950  0.88150  0.24570  Biso   1.000  H
  H74      1.0000 0.11850  0.91800  0.57903  Biso   1.000  H
  H75      1.0000 0.08200  0.20050  0.91237  Biso   1.000  H
  H76      1.0000 0.20050  0.11850  0.74570  Biso   1.000  H
  H77      1.0000 0.88150  0.08200  0.07903  Biso   1.000  H
  H78      1.0000 0.91800  0.79950  0.41237  Biso   1.000  H
  C55      1.0000 0.88820  0.76270  0.24158  Biso   1.000  C
  C56      1.0000 0.23730  0.12550  0.57491  Biso   1.000  C
  C57      1.0000 0.87450  0.11180  0.90825  Biso   1.000  C
  C58      1.0000 0.11180  0.23730  0.74158  Biso   1.000  C
  C59      1.0000 0.76270  0.87450  0.07491  Biso   1.000  C
  C60      1.0000 0.12550  0.88820  0.40825  Biso   1.000  C
  H79      1.0000 0.80500  0.67970  0.24080  Biso   1.000  H
  H80      1.0000 0.32030  0.12530  0.57413  Biso   1.000  H
  H81      1.0000 0.87470  0.19500  0.90747  Biso   1.000  H
  H82      1.0000 0.19500  0.32030  0.74080  Biso   1.000  H
  H83      1.0000 0.67970  0.87470  0.07413  Biso   1.000  H
  H84      1.0000 0.12530  0.80500  0.40747  Biso   1.000  H
  O43      1.0000 0.48350  0.62840  0.31981  Biso   1.000  O
  O44      1.0000 0.37160  0.85510  0.65314  Biso   1.000  O
  O45      1.0000 0.14490  0.51650  0.98648  Biso   1.000  O
  O46      1.0000 0.51650  0.37160  0.81981  Biso   1.000  O
  O47      1.0000 0.62840  0.14490  0.15314  Biso   1.000  O
  O48      1.0000 0.85510  0.48350  0.48648  Biso   1.000  O
  H85      1.0000 0.49300  0.56300  0.30200  Biso   1.000  H
  H86      1.0000 0.43700  0.93000  0.63533  Biso   1.000  H
  H87      1.0000 0.07000  0.50700  0.96867  Biso   1.000  H
  H88      1.0000 0.50700  0.43700  0.80200  Biso   1.000  H
  H89      1.0000 0.56300  0.07000  0.13533  Biso   1.000  H
  H90      1.0000 0.93000  0.49300  0.46867  Biso   1.000  H
  H91      1.0000 0.44500  0.60800  0.34300  Biso   1.000  H
  H92      1.0000 0.39200  0.83700  0.67633  Biso   1.000  H
  H93      1.0000 0.16300  0.55500  0.00967  Biso   1.000  H
  H94      1.0000 0.55500  0.39200  0.84300  Biso   1.000  H
  H95      1.0000 0.60800  0.16300  0.17633  Biso   1.000  H
  H96      1.0000 0.83700  0.44500  0.50967  Biso   1.000  H
  O49      1.0000 0.88000  0.31360  0.10126  Biso   1.000  O
  O50      1.0000 0.68640  0.56640  0.43459  Biso   1.000  O
  O51      1.0000 0.43360  0.12000  0.76793  Biso   1.000  O
  O52      1.0000 0.12000  0.68640  0.60126  Biso   1.000  O
  O53      1.0000 0.31360  0.43360  0.93459  Biso   1.000  O
  O54      1.0000 0.56640  0.88000  0.26793  Biso   1.000  O
  H97      1.0000 0.80800  0.26000  0.11690  Biso   1.000  H
  H98      1.0000 0.74000  0.54800  0.45023  Biso   1.000  H
  H99      1.0000 0.45200  0.19200  0.78357  Biso   1.000  H
  H100     1.0000 0.19200  0.74000  0.61690  Biso   1.000  H
  H101     1.0000 0.26000  0.45200  0.95023  Biso   1.000  H
  H102     1.0000 0.54800  0.80800  0.28357  Biso   1.000  H
  H103     1.0000 0.87500  0.32400  0.07300  Biso   1.000  H
  H104     1.0000 0.67600  0.55100  0.40633  Biso   1.000  H
  H105     1.0000 0.44900  0.12500  0.73967  Biso   1.000  H
  H106     1.0000 0.12500  0.67600  0.57300  Biso   1.000  H
  H107     1.0000 0.32400  0.44900  0.90633  Biso   1.000  H
  H108     1.0000 0.55100  0.87500  0.23967  Biso   1.000  H
