data_image0
_cell_length_a       11.187
_cell_length_b       11.187
_cell_length_c       21.5775
_cell_angle_alpha    90
_cell_angle_beta     90
_cell_angle_gamma    120

_symmetry_space_group_name_H-M    "P 1"
_symmetry_int_tables_number       1

loop_
  _symmetry_equiv_pos_as_xyz
  'x, y, z'

loop_
  _atom_site_label
  _atom_site_occupancy
  _atom_site_fract_x
  _atom_site_fract_y
  _atom_site_fract_z
  _atom_site_thermal_displace_type
  _atom_site_B_iso_or_equiv
  _atom_site_type_symbol
  Cu1      1.0000 0.00150  0.42733  0.04860  Biso   1.000  Cu
  Cu2      1.0000 0.57267  0.57417  0.38193  Biso   1.000  Cu
  Cu3      1.0000 0.42583  0.99850  0.71527  Biso   1.000  Cu
  Cu4      1.0000 0.99850  0.57267  0.54860  Biso   1.000  Cu
  Cu5      1.0000 0.42733  0.42583  0.88193  Biso   1.000  Cu
  Cu6      1.0000 0.57417  0.00150  0.21527  Biso   1.000  Cu
  S1       1.0000 0.60898  0.23236  0.02867  Biso   1.000  S
  S2       1.0000 0.76764  0.37662  0.36200  Biso   1.000  S
  S3       1.0000 0.62338  0.39102  0.69534  Biso   1.000  S
  S4       1.0000 0.39102  0.76764  0.52867  Biso   1.000  S
  S5       1.0000 0.23236  0.62338  0.86200  Biso   1.000  S
  S6       1.0000 0.37662  0.60898  0.19534  Biso   1.000  S
  O1       1.0000 0.52780  0.08410  0.03835  Biso   1.000  O
  O2       1.0000 0.91590  0.44370  0.37168  Biso   1.000  O
  O3       1.0000 0.55630  0.47220  0.70502  Biso   1.000  O
  O4       1.0000 0.47220  0.91590  0.53835  Biso   1.000  O
  O5       1.0000 0.08410  0.55630  0.87168  Biso   1.000  O
  O6       1.0000 0.44370  0.52780  0.20502  Biso   1.000  O
  O7       1.0000 0.52130  0.29180  0.04227  Biso   1.000  O
  O8       1.0000 0.70820  0.22950  0.37560  Biso   1.000  O
  O9       1.0000 0.77050  0.47870  0.70894  Biso   1.000  O
  O10      1.0000 0.47870  0.70820  0.54227  Biso   1.000  O
  O11      1.0000 0.29180  0.77050  0.87560  Biso   1.000  O
  O12      1.0000 0.22950  0.52130  0.20894  Biso   1.000  O
  O13      1.0000 0.65750  0.26210  0.96412  Biso   1.000  O
  O14      1.0000 0.73790  0.39540  0.29745  Biso   1.000  O
  O15      1.0000 0.60460  0.34250  0.63079  Biso   1.000  O
  O16      1.0000 0.34250  0.73790  0.46412  Biso   1.000  O
  O17      1.0000 0.26210  0.60460  0.79745  Biso   1.000  O
  O18      1.0000 0.39540  0.65750  0.13079  Biso   1.000  O
  O19      1.0000 0.72980  0.29270  0.07010  Biso   1.000  O
  O20      1.0000 0.70730  0.43710  0.40343  Biso   1.000  O
  O21      1.0000 0.56290  0.27020  0.73677  Biso   1.000  O
  O22      1.0000 0.27020  0.70730  0.57010  Biso   1.000  O
  O23      1.0000 0.29270  0.56290  0.90343  Biso   1.000  O
  O24      1.0000 0.43710  0.72980  0.23677  Biso   1.000  O
  O25      1.0000 0.93930  0.38180  0.96233  Biso   1.000  O
  O26      1.0000 0.61820  0.55750  0.29566  Biso   1.000  O
  O27      1.0000 0.44250  0.06070  0.62900  Biso   1.000  O
  O28      1.0000 0.06070  0.61820  0.46233  Biso   1.000  O
  O29      1.0000 0.38180  0.44250  0.79566  Biso   1.000  O
  O30      1.0000 0.55750  0.93930  0.12900  Biso   1.000  O
  H1       1.0000 0.85990  0.36210  0.95380  Biso   1.000  H
  H2       1.0000 0.63790  0.49780  0.28713  Biso   1.000  H
  H3       1.0000 0.50220  0.14010  0.62047  Biso   1.000  H
  H4       1.0000 0.14010  0.63790  0.45380  Biso   1.000  H
  H5       1.0000 0.36210  0.50220  0.78713  Biso   1.000  H
  H6       1.0000 0.49780  0.85990  0.12047  Biso   1.000  H
  H7       1.0000 0.99940  0.43940  0.93800  Biso   1.000  H
  H8       1.0000 0.56060  0.56000  0.27133  Biso   1.000  H
  H9       1.0000 0.44000  0.00060  0.60467  Biso   1.000  H
  H10      1.0000 0.00060  0.56060  0.43800  Biso   1.000  H
  H11      1.0000 0.43940  0.44000  0.77133  Biso   1.000  H
  H12      1.0000 0.56000  0.99940  0.10467  Biso   1.000  H
  O31      1.0000 0.00900  0.44180  0.14026  Biso   1.000  O
  O32      1.0000 0.55820  0.56720  0.47359  Biso   1.000  O
  O33      1.0000 0.43280  0.99100  0.80693  Biso   1.000  O
  O34      1.0000 0.99100  0.55820  0.64026  Biso   1.000  O
  O35      1.0000 0.44180  0.43280  0.97359  Biso   1.000  O
  O36      1.0000 0.56720  0.00900  0.30693  Biso   1.000  O
  H13      1.0000 0.97260  0.49940  0.15210  Biso   1.000  H
  H14      1.0000 0.50060  0.47320  0.48543  Biso   1.000  H
  H15      1.0000 0.52680  0.02740  0.81877  Biso   1.000  H
  H16      1.0000 0.02740  0.50060  0.65210  Biso   1.000  H
  H17      1.0000 0.49940  0.52680  0.98543  Biso   1.000  H
  H18      1.0000 0.47320  0.97260  0.31877  Biso   1.000  H
  H19      1.0000 0.08070  0.45060  0.16180  Biso   1.000  H
  H20      1.0000 0.54940  0.63010  0.49513  Biso   1.000  H
  H21      1.0000 0.36990  0.91930  0.82847  Biso   1.000  H
  H22      1.0000 0.91930  0.54940  0.66180  Biso   1.000  H
  H23      1.0000 0.45060  0.36990  0.99513  Biso   1.000  H
  H24      1.0000 0.63010  0.08070  0.32847  Biso   1.000  H
  O37      1.0000 0.22530  0.53770  0.02743  Biso   1.000  O
  O38      1.0000 0.46230  0.68760  0.36076  Biso   1.000  O
  O39      1.0000 0.31240  0.77470  0.69410  Biso   1.000  O
  O40      1.0000 0.77470  0.46230  0.52743  Biso   1.000  O
  O41      1.0000 0.53770  0.31240  0.86076  Biso   1.000  O
  O42      1.0000 0.68760  0.22530  0.19410  Biso   1.000  O
  H25      1.0000 0.25570  0.55330  0.98590  Biso   1.000  H
  H26      1.0000 0.44670  0.70240  0.31923  Biso   1.000  H
  H27      1.0000 0.29760  0.74430  0.65257  Biso   1.000  H
  H28      1.0000 0.74430  0.44670  0.48590  Biso   1.000  H
  H29      1.0000 0.55330  0.29760  0.81923  Biso   1.000  H
  H30      1.0000 0.70240  0.25570  0.15257  Biso   1.000  H
  H31      1.0000 0.29350  0.58090  0.05400  Biso   1.000  H
  H32      1.0000 0.41910  0.71260  0.38733  Biso   1.000  H
  H33      1.0000 0.28740  0.70650  0.72067  Biso   1.000  H
  H34      1.0000 0.70650  0.41910  0.55400  Biso   1.000  H
  H35      1.0000 0.58090  0.28740  0.88733  Biso   1.000  H
  H36      1.0000 0.71260  0.29350  0.22067  Biso   1.000  H
  N1       1.0000 0.00410  0.24620  0.05496  Biso   1.000  N
  N2       1.0000 0.75380  0.75790  0.38829  Biso   1.000  N
  N3       1.0000 0.24210  0.99590  0.72163  Biso   1.000  N
  N4       1.0000 0.99590  0.75380  0.55496  Biso   1.000  N
  N5       1.0000 0.24620  0.24210  0.88829  Biso   1.000  N
  N6       1.0000 0.75790  0.00410  0.22163  Biso   1.000  N
  N7       1.0000 0.00480  0.61240  0.04470  Biso   1.000  N
  N8       1.0000 0.38760  0.39240  0.37803  Biso   1.000  N
  N9       1.0000 0.60760  0.99520  0.71137  Biso   1.000  N
  N10      1.0000 0.99520  0.38760  0.54470  Biso   1.000  N
  N11      1.0000 0.61240  0.60760  0.87803  Biso   1.000  N
  N12      1.0000 0.39240  0.00480  0.21137  Biso   1.000  N
  C1       1.0000 0.12200  0.24260  0.05600  Biso   1.000  C
  C2       1.0000 0.75740  0.87940  0.38933  Biso   1.000  C
  C3       1.0000 0.12060  0.87800  0.72267  Biso   1.000  C
  C4       1.0000 0.87800  0.75740  0.55600  Biso   1.000  C
  C5       1.0000 0.24260  0.12060  0.88933  Biso   1.000  C
  C6       1.0000 0.87940  0.12200  0.22267  Biso   1.000  C
  H37      1.0000 0.20760  0.32830  0.05870  Biso   1.000  H
  H38      1.0000 0.67170  0.87930  0.39203  Biso   1.000  H
  H39      1.0000 0.12070  0.79240  0.72537  Biso   1.000  H
  H40      1.0000 0.79240  0.67170  0.55870  Biso   1.000  H
  H41      1.0000 0.32830  0.12070  0.89203  Biso   1.000  H
  H42      1.0000 0.87930  0.20760  0.22537  Biso   1.000  H
  C7       1.0000 0.12700  0.12220  0.05410  Biso   1.000  C
  C8       1.0000 0.87780  0.00480  0.38743  Biso   1.000  C
  C9       1.0000 0.99520  0.87300  0.72077  Biso   1.000  C
  C10      1.0000 0.87300  0.87780  0.55410  Biso   1.000  C
  C11      1.0000 0.12220  0.99520  0.88743  Biso   1.000  C
  C12      1.0000 0.00480  0.12700  0.22077  Biso   1.000  C
  H43      1.0000 0.21470  0.12590  0.05420  Biso   1.000  H
  H44      1.0000 0.87410  0.08880  0.38753  Biso   1.000  H
  H45      1.0000 0.91120  0.78530  0.72087  Biso   1.000  H
  H46      1.0000 0.78530  0.87410  0.55420  Biso   1.000  H
  H47      1.0000 0.12590  0.91120  0.88753  Biso   1.000  H
  H48      1.0000 0.08880  0.21470  0.22087  Biso   1.000  H
  C13      1.0000 0.00630  0.99630  0.05060  Biso   1.000  C
  C14      1.0000 0.00370  0.01000  0.38393  Biso   1.000  C
  C15      1.0000 0.99000  0.99370  0.71727  Biso   1.000  C
  C16      1.0000 0.99370  0.00370  0.55060  Biso   1.000  C
  C17      1.0000 0.99630  0.99000  0.88393  Biso   1.000  C
  C18      1.0000 0.01000  0.00630  0.21727  Biso   1.000  C
  C19      1.0000 0.88510  0.00040  0.05170  Biso   1.000  C
  C20      1.0000 0.99960  0.88470  0.38503  Biso   1.000  C
  C21      1.0000 0.11530  0.11490  0.71837  Biso   1.000  C
  C22      1.0000 0.11490  0.99960  0.55170  Biso   1.000  C
  C23      1.0000 0.00040  0.11530  0.88503  Biso   1.000  C
  C24      1.0000 0.88470  0.88510  0.21837  Biso   1.000  C
  H49      1.0000 0.79840  0.91560  0.05000  Biso   1.000  H
  H50      1.0000 0.08440  0.88280  0.38333  Biso   1.000  H
  H51      1.0000 0.11720  0.20160  0.71667  Biso   1.000  H
  H52      1.0000 0.20160  0.08440  0.55000  Biso   1.000  H
  H53      1.0000 0.91560  0.11720  0.88333  Biso   1.000  H
  H54      1.0000 0.88280  0.79840  0.21667  Biso   1.000  H
  C25      1.0000 0.88780  0.12510  0.05330  Biso   1.000  C
  C26      1.0000 0.87490  0.76270  0.38663  Biso   1.000  C
  C27      1.0000 0.23730  0.11220  0.71997  Biso   1.000  C
  C28      1.0000 0.11220  0.87490  0.55330  Biso   1.000  C
  C29      1.0000 0.12510  0.23730  0.88663  Biso   1.000  C
  C30      1.0000 0.76270  0.88780  0.21997  Biso   1.000  C
  H55      1.0000 0.80170  0.12440  0.05510  Biso   1.000  H
  H56      1.0000 0.87560  0.67730  0.38843  Biso   1.000  H
  H57      1.0000 0.32270  0.19830  0.72177  Biso   1.000  H
  H58      1.0000 0.19830  0.87560  0.55510  Biso   1.000  H
  H59      1.0000 0.12440  0.32270  0.88843  Biso   1.000  H
  H60      1.0000 0.67730  0.80170  0.22177  Biso   1.000  H
  C31      1.0000 0.88930  0.61680  0.04360  Biso   1.000  C
  C32      1.0000 0.38320  0.27250  0.37693  Biso   1.000  C
  C33      1.0000 0.72750  0.11070  0.71027  Biso   1.000  C
  C34      1.0000 0.11070  0.38320  0.54360  Biso   1.000  C
  C35      1.0000 0.61680  0.72750  0.87693  Biso   1.000  C
  C36      1.0000 0.27250  0.88930  0.21027  Biso   1.000  C
  H61      1.0000 0.80310  0.53260  0.03840  Biso   1.000  H
  H62      1.0000 0.46740  0.27050  0.37173  Biso   1.000  H
  H63      1.0000 0.72950  0.19690  0.70507  Biso   1.000  H
  H64      1.0000 0.19690  0.46740  0.53840  Biso   1.000  H
  H65      1.0000 0.53260  0.72950  0.87173  Biso   1.000  H
  H66      1.0000 0.27050  0.80310  0.20507  Biso   1.000  H
  C37      1.0000 0.88850  0.74010  0.04530  Biso   1.000  C
  C38      1.0000 0.25990  0.14840  0.37863  Biso   1.000  C
  C39      1.0000 0.85160  0.11150  0.71197  Biso   1.000  C
  C40      1.0000 0.11150  0.25990  0.54530  Biso   1.000  C
  C41      1.0000 0.74010  0.85160  0.87863  Biso   1.000  C
  C42      1.0000 0.14840  0.88850  0.21197  Biso   1.000  C
  H67      1.0000 0.80210  0.73850  0.04700  Biso   1.000  H
  H68      1.0000 0.26150  0.06360  0.38033  Biso   1.000  H
  H69      1.0000 0.93640  0.19790  0.71367  Biso   1.000  H
  H70      1.0000 0.19790  0.26150  0.54700  Biso   1.000  H
  H71      1.0000 0.73850  0.93640  0.88033  Biso   1.000  H
  H72      1.0000 0.06360  0.80210  0.21367  Biso   1.000  H
  C43      1.0000 0.00580  0.86240  0.04790  Biso   1.000  C
  C44      1.0000 0.13760  0.14340  0.38123  Biso   1.000  C
  C45      1.0000 0.85660  0.99420  0.71457  Biso   1.000  C
  C46      1.0000 0.99420  0.13760  0.54790  Biso   1.000  C
  C47      1.0000 0.86240  0.85660  0.88123  Biso   1.000  C
  C48      1.0000 0.14340  0.00580  0.21457  Biso   1.000  C
  C49      1.0000 0.12460  0.85730  0.04890  Biso   1.000  C
  C50      1.0000 0.14270  0.26730  0.38223  Biso   1.000  C
  C51      1.0000 0.73270  0.87540  0.71557  Biso   1.000  C
  C52      1.0000 0.87540  0.14270  0.54890  Biso   1.000  C
  C53      1.0000 0.85730  0.73270  0.88223  Biso   1.000  C
  C54      1.0000 0.26730  0.12460  0.21557  Biso   1.000  C
  H73      1.0000 0.21180  0.94080  0.05190  Biso   1.000  H
  H74      1.0000 0.05920  0.27100  0.38523  Biso   1.000  H
  H75      1.0000 0.72900  0.78820  0.71857  Biso   1.000  H
  H76      1.0000 0.78820  0.05920  0.55190  Biso   1.000  H
  H77      1.0000 0.94080  0.72900  0.88523  Biso   1.000  H
  H78      1.0000 0.27100  0.21180  0.21857  Biso   1.000  H
  C55      1.0000 0.11950  0.73100  0.04650  Biso   1.000  C
  C56      1.0000 0.26900  0.38850  0.37983  Biso   1.000  C
  C57      1.0000 0.61150  0.88050  0.71317  Biso   1.000  C
  C58      1.0000 0.88050  0.26900  0.54650  Biso   1.000  C
  C59      1.0000 0.73100  0.61150  0.87983  Biso   1.000  C
  C60      1.0000 0.38850  0.11950  0.21317  Biso   1.000  C
  H79      1.0000 0.20510  0.73060  0.04750  Biso   1.000  H
  H80      1.0000 0.26940  0.47450  0.38083  Biso   1.000  H
  H81      1.0000 0.52550  0.79490  0.71417  Biso   1.000  H
  H82      1.0000 0.79490  0.26940  0.54750  Biso   1.000  H
  H83      1.0000 0.73060  0.52550  0.88083  Biso   1.000  H
  H84      1.0000 0.47450  0.20510  0.21417  Biso   1.000  H
  O43      1.0000 0.87970  0.56590  0.19400  Biso   1.000  O
  O44      1.0000 0.43410  0.31380  0.52733  Biso   1.000  O
  O45      1.0000 0.68620  0.12030  0.86067  Biso   1.000  O
  O46      1.0000 0.12030  0.43410  0.69400  Biso   1.000  O
  O47      1.0000 0.56590  0.68620  0.02733  Biso   1.000  O
  O48      1.0000 0.31380  0.87970  0.36067  Biso   1.000  O
  H85      1.0000 0.86330  0.52350  0.22760  Biso   1.000  H
  H86      1.0000 0.47650  0.33980  0.56093  Biso   1.000  H
  H87      1.0000 0.66020  0.13670  0.89427  Biso   1.000  H
  H88      1.0000 0.13670  0.47650  0.72760  Biso   1.000  H
  H89      1.0000 0.52350  0.66020  0.06093  Biso   1.000  H
  H90      1.0000 0.33980  0.86330  0.39427  Biso   1.000  H
  H91      1.0000 0.80470  0.54210  0.16600  Biso   1.000  H
  H92      1.0000 0.45790  0.26260  0.49933  Biso   1.000  H
  H93      1.0000 0.73740  0.19530  0.83267  Biso   1.000  H
  H94      1.0000 0.19530  0.45790  0.66600  Biso   1.000  H
  H95      1.0000 0.54210  0.73740  0.99933  Biso   1.000  H
  H96      1.0000 0.26260  0.80470  0.33267  Biso   1.000  H
  O49      1.0000 0.62730  0.48380  0.14204  Biso   1.000  O
  O50      1.0000 0.51620  0.14350  0.47537  Biso   1.000  O
  O51      1.0000 0.85650  0.37270  0.80871  Biso   1.000  O
  O52      1.0000 0.37270  0.51620  0.64204  Biso   1.000  O
  O53      1.0000 0.48380  0.85650  0.97537  Biso   1.000  O
  O54      1.0000 0.14350  0.62730  0.30871  Biso   1.000  O
  H97      1.0000 0.62070  0.44430  0.10890  Biso   1.000  H
  H98      1.0000 0.55570  0.17640  0.44223  Biso   1.000  H
  H99      1.0000 0.82360  0.37930  0.77557  Biso   1.000  H
  H100     1.0000 0.37930  0.55570  0.60890  Biso   1.000  H
  H101     1.0000 0.44430  0.82360  0.94223  Biso   1.000  H
  H102     1.0000 0.17640  0.62070  0.27557  Biso   1.000  H
  H103     1.0000 0.54750  0.47710  0.16160  Biso   1.000  H
  H104     1.0000 0.52290  0.07040  0.49493  Biso   1.000  H
  H105     1.0000 0.92960  0.45250  0.82827  Biso   1.000  H
  H106     1.0000 0.45250  0.52290  0.66160  Biso   1.000  H
  H107     1.0000 0.47710  0.92960  0.99493  Biso   1.000  H
  H108     1.0000 0.07040  0.54750  0.32827  Biso   1.000  H
