data_image0
_cell_length_a       22.9863
_cell_length_b       13.4707
_cell_length_c       13.4902
_cell_angle_alpha    90
_cell_angle_beta     106.03
_cell_angle_gamma    90

_symmetry_space_group_name_H-M    "P 1"
_symmetry_int_tables_number       1

loop_
  _symmetry_equiv_pos_as_xyz
  'x, y, z'

loop_
  _atom_site_label
  _atom_site_occupancy
  _atom_site_fract_x
  _atom_site_fract_y
  _atom_site_fract_z
  _atom_site_thermal_displace_type
  _atom_site_B_iso_or_equiv
  _atom_site_type_symbol
  Cu1      1.0000 0.00000  0.42690  0.25000  Biso   1.000  Cu
  Cu2      1.0000 0.50000  0.92690  0.25000  Biso   1.000  Cu
  Cu3      1.0000 0.00000  0.57310  0.75000  Biso   1.000  Cu
  Cu4      1.0000 0.50000  0.07310  0.75000  Biso   1.000  Cu
  Cu5      1.0000 0.25000  0.25000  0.50000  Biso   1.000  Cu
  Cu6      1.0000 0.75000  0.25000  0.00000  Biso   1.000  Cu
  Cu7      1.0000 0.75000  0.75000  0.50000  Biso   1.000  Cu
  Cu8      1.0000 0.25000  0.75000  0.00000  Biso   1.000  Cu
  S1       1.0000 0.12280  0.46300  0.43440  Biso   1.000  S
  S2       1.0000 0.87720  0.46300  0.06560  Biso   1.000  S
  S3       1.0000 0.62280  0.96300  0.43440  Biso   1.000  S
  S4       1.0000 0.37720  0.96300  0.06560  Biso   1.000  S
  S5       1.0000 0.87720  0.53700  0.56560  Biso   1.000  S
  S6       1.0000 0.12280  0.53700  0.93440  Biso   1.000  S
  S7       1.0000 0.37720  0.03700  0.56560  Biso   1.000  S
  S8       1.0000 0.62280  0.03700  0.93440  Biso   1.000  S
  O1       1.0000 0.08790  0.42360  0.33130  Biso   1.000  O
  O2       1.0000 0.91210  0.42360  0.16870  Biso   1.000  O
  O3       1.0000 0.58790  0.92360  0.33130  Biso   1.000  O
  O4       1.0000 0.41210  0.92360  0.16870  Biso   1.000  O
  O5       1.0000 0.91210  0.57640  0.66870  Biso   1.000  O
  O6       1.0000 0.08790  0.57640  0.83130  Biso   1.000  O
  O7       1.0000 0.41210  0.07640  0.66870  Biso   1.000  O
  O8       1.0000 0.58790  0.07640  0.83130  Biso   1.000  O
  O9       1.0000 0.08930  0.43940  0.51120  Biso   1.000  O
  O10      1.0000 0.91070  0.43940  0.98880  Biso   1.000  O
  O11      1.0000 0.58930  0.93940  0.51120  Biso   1.000  O
  O12      1.0000 0.41070  0.93940  0.98880  Biso   1.000  O
  O13      1.0000 0.91070  0.56060  0.48880  Biso   1.000  O
  O14      1.0000 0.08930  0.56060  0.01120  Biso   1.000  O
  O15      1.0000 0.41070  0.06060  0.48880  Biso   1.000  O
  O16      1.0000 0.58930  0.06060  0.01120  Biso   1.000  O
  O17      1.0000 0.18140  0.41120  0.46320  Biso   1.000  O
  O18      1.0000 0.81860  0.41120  0.03680  Biso   1.000  O
  O19      1.0000 0.68140  0.91120  0.46320  Biso   1.000  O
  O20      1.0000 0.31860  0.91120  0.03680  Biso   1.000  O
  O21      1.0000 0.81860  0.58880  0.53680  Biso   1.000  O
  O22      1.0000 0.18140  0.58880  0.96320  Biso   1.000  O
  O23      1.0000 0.31860  0.08880  0.53680  Biso   1.000  O
  O24      1.0000 0.68140  0.08880  0.96320  Biso   1.000  O
  O25      1.0000 0.13080  0.56960  0.42830  Biso   1.000  O
  O26      1.0000 0.86920  0.56960  0.07170  Biso   1.000  O
  O27      1.0000 0.63080  0.06960  0.42830  Biso   1.000  O
  O28      1.0000 0.36920  0.06960  0.07170  Biso   1.000  O
  O29      1.0000 0.86920  0.43040  0.57170  Biso   1.000  O
  O30      1.0000 0.13080  0.43040  0.92830  Biso   1.000  O
  O31      1.0000 0.36920  0.93040  0.57170  Biso   1.000  O
  O32      1.0000 0.63080  0.93040  0.92830  Biso   1.000  O
  O33      1.0000 0.03120  0.40830  0.09160  Biso   1.000  O
  O34      1.0000 0.96880  0.40830  0.40840  Biso   1.000  O
  O35      1.0000 0.53120  0.90830  0.09160  Biso   1.000  O
  O36      1.0000 0.46880  0.90830  0.40840  Biso   1.000  O
  O37      1.0000 0.96880  0.59170  0.90840  Biso   1.000  O
  O38      1.0000 0.03120  0.59170  0.59160  Biso   1.000  O
  O39      1.0000 0.46880  0.09170  0.90840  Biso   1.000  O
  O40      1.0000 0.53120  0.09170  0.59160  Biso   1.000  O
  O41      1.0000 0.08200  0.24820  0.99980  Biso   1.000  O
  O42      1.0000 0.91800  0.24820  0.50020  Biso   1.000  O
  O43      1.0000 0.58200  0.74820  0.99980  Biso   1.000  O
  O44      1.0000 0.41800  0.74820  0.50020  Biso   1.000  O
  O45      1.0000 0.91800  0.75180  0.00020  Biso   1.000  O
  O46      1.0000 0.08200  0.75180  0.49980  Biso   1.000  O
  O47      1.0000 0.41800  0.25180  0.00020  Biso   1.000  O
  O48      1.0000 0.58200  0.25180  0.49980  Biso   1.000  O
  N1       1.0000 0.00000  0.57540  0.25000  Biso   1.000  N
  N2       1.0000 0.50000  0.07540  0.25000  Biso   1.000  N
  N3       1.0000 0.00000  0.42460  0.75000  Biso   1.000  N
  N4       1.0000 0.50000  0.92460  0.75000  Biso   1.000  N
  N5       1.0000 0.00000  0.27640  0.25000  Biso   1.000  N
  N6       1.0000 0.50000  0.77640  0.25000  Biso   1.000  N
  N7       1.0000 0.00000  0.72360  0.75000  Biso   1.000  N
  N8       1.0000 0.50000  0.22360  0.75000  Biso   1.000  N
  N9       1.0000 0.32040  0.33960  0.50600  Biso   1.000  N
  N10      1.0000 0.67960  0.33960  0.99400  Biso   1.000  N
  N11      1.0000 0.82040  0.83960  0.50600  Biso   1.000  N
  N12      1.0000 0.17960  0.83960  0.99400  Biso   1.000  N
  N13      1.0000 0.67960  0.66040  0.49400  Biso   1.000  N
  N14      1.0000 0.32040  0.66040  0.00600  Biso   1.000  N
  N15      1.0000 0.17960  0.16040  0.49400  Biso   1.000  N
  N16      1.0000 0.82040  0.16040  0.00600  Biso   1.000  N
  N17      1.0000 0.24190  0.23430  0.34550  Biso   1.000  N
  N18      1.0000 0.75810  0.23430  0.15450  Biso   1.000  N
  N19      1.0000 0.74190  0.73430  0.34550  Biso   1.000  N
  N20      1.0000 0.25810  0.73430  0.15450  Biso   1.000  N
  N21      1.0000 0.75810  0.76570  0.65450  Biso   1.000  N
  N22      1.0000 0.24190  0.76570  0.84550  Biso   1.000  N
  N23      1.0000 0.25810  0.26570  0.65450  Biso   1.000  N
  N24      1.0000 0.74190  0.26570  0.84550  Biso   1.000  N
  C1       1.0000 0.95560  0.62710  0.27260  Biso   1.000  C
  C2       1.0000 0.04440  0.62710  0.22740  Biso   1.000  C
  C3       1.0000 0.45560  0.12710  0.27260  Biso   1.000  C
  C4       1.0000 0.54440  0.12710  0.22740  Biso   1.000  C
  C5       1.0000 0.04440  0.37290  0.72740  Biso   1.000  C
  C6       1.0000 0.95560  0.37290  0.77260  Biso   1.000  C
  C7       1.0000 0.54440  0.87290  0.72740  Biso   1.000  C
  C8       1.0000 0.45560  0.87290  0.77260  Biso   1.000  C
  C9       1.0000 0.95520  0.73030  0.27280  Biso   1.000  C
  C10      1.0000 0.04480  0.73030  0.22720  Biso   1.000  C
  C11      1.0000 0.45520  0.23030  0.27280  Biso   1.000  C
  C12      1.0000 0.54480  0.23030  0.22720  Biso   1.000  C
  C13      1.0000 0.04480  0.26970  0.72720  Biso   1.000  C
  C14      1.0000 0.95520  0.26970  0.77280  Biso   1.000  C
  C15      1.0000 0.54480  0.76970  0.72720  Biso   1.000  C
  C16      1.0000 0.45520  0.76970  0.77280  Biso   1.000  C
  C17      1.0000 0.00000  0.78460  0.25000  Biso   1.000  C
  C18      1.0000 0.50000  0.28460  0.25000  Biso   1.000  C
  C19      1.0000 0.00000  0.21540  0.75000  Biso   1.000  C
  C20      1.0000 0.50000  0.71540  0.75000  Biso   1.000  C
  C21      1.0000 0.04760  0.22480  0.23860  Biso   1.000  C
  C22      1.0000 0.95240  0.22480  0.26140  Biso   1.000  C
  C23      1.0000 0.54760  0.72480  0.23860  Biso   1.000  C
  C24      1.0000 0.45240  0.72480  0.26140  Biso   1.000  C
  C25      1.0000 0.95240  0.77520  0.76140  Biso   1.000  C
  C26      1.0000 0.04760  0.77520  0.73860  Biso   1.000  C
  C27      1.0000 0.45240  0.27520  0.76140  Biso   1.000  C
  C28      1.0000 0.54760  0.27520  0.73860  Biso   1.000  C
  C29      1.0000 0.05000  0.12160  0.23750  Biso   1.000  C
  C30      1.0000 0.95000  0.12160  0.26250  Biso   1.000  C
  C31      1.0000 0.55000  0.62160  0.23750  Biso   1.000  C
  C32      1.0000 0.45000  0.62160  0.26250  Biso   1.000  C
  C33      1.0000 0.95000  0.87840  0.76250  Biso   1.000  C
  C34      1.0000 0.05000  0.87840  0.73750  Biso   1.000  C
  C35      1.0000 0.45000  0.37840  0.76250  Biso   1.000  C
  C36      1.0000 0.55000  0.37840  0.73750  Biso   1.000  C
  C37      1.0000 0.00000  0.06500  0.25000  Biso   1.000  C
  C38      1.0000 0.50000  0.56500  0.25000  Biso   1.000  C
  C39      1.0000 0.00000  0.93500  0.75000  Biso   1.000  C
  C40      1.0000 0.50000  0.43500  0.75000  Biso   1.000  C
  C41      1.0000 0.02200  0.95900  0.24710  Biso   1.000  C
  C42      1.0000 0.97800  0.95900  0.25290  Biso   1.000  C
  C43      1.0000 0.52200  0.45900  0.24710  Biso   1.000  C
  C44      1.0000 0.47800  0.45900  0.25290  Biso   1.000  C
  C45      1.0000 0.97800  0.04100  0.75290  Biso   1.000  C
  C46      1.0000 0.02200  0.04100  0.74710  Biso   1.000  C
  C47      1.0000 0.47800  0.54100  0.75290  Biso   1.000  C
  C48      1.0000 0.52200  0.54100  0.74710  Biso   1.000  C
  C49      1.0000 0.02120  0.89310  0.24470  Biso   1.000  C
  C50      1.0000 0.97880  0.89310  0.25530  Biso   1.000  C
  C51      1.0000 0.52120  0.39310  0.24470  Biso   1.000  C
  C52      1.0000 0.47880  0.39310  0.25530  Biso   1.000  C
  C53      1.0000 0.97880  0.10690  0.75530  Biso   1.000  C
  C54      1.0000 0.02120  0.10690  0.74470  Biso   1.000  C
  C55      1.0000 0.47880  0.60690  0.75530  Biso   1.000  C
  C56      1.0000 0.52120  0.60690  0.74470  Biso   1.000  C
  C57      1.0000 0.31840  0.43930  0.51140  Biso   1.000  C
  C58      1.0000 0.68160  0.43930  0.98860  Biso   1.000  C
  C59      1.0000 0.81840  0.93930  0.51140  Biso   1.000  C
  C60      1.0000 0.18160  0.93930  0.98860  Biso   1.000  C
  C61      1.0000 0.68160  0.56070  0.48860  Biso   1.000  C
  C62      1.0000 0.31840  0.56070  0.01140  Biso   1.000  C
  C63      1.0000 0.18160  0.06070  0.48860  Biso   1.000  C
  C64      1.0000 0.81840  0.06070  0.01140  Biso   1.000  C
  C65      1.0000 0.36700  0.49850  0.50840  Biso   1.000  C
  C66      1.0000 0.63300  0.49850  0.99160  Biso   1.000  C
  C67      1.0000 0.86700  0.99850  0.50840  Biso   1.000  C
  C68      1.0000 0.13300  0.99850  0.99160  Biso   1.000  C
  C69      1.0000 0.63300  0.50150  0.49160  Biso   1.000  C
  C70      1.0000 0.36700  0.50150  0.00840  Biso   1.000  C
  C71      1.0000 0.13300  0.00150  0.49160  Biso   1.000  C
  C72      1.0000 0.86700  0.00150  0.00840  Biso   1.000  C
  C73      1.0000 0.42080  0.45550  0.50040  Biso   1.000  C
  C74      1.0000 0.57920  0.45550  0.99960  Biso   1.000  C
  C75      1.0000 0.92080  0.95550  0.50040  Biso   1.000  C
  C76      1.0000 0.07920  0.95550  0.99960  Biso   1.000  C
  C77      1.0000 0.57920  0.54450  0.49960  Biso   1.000  C
  C78      1.0000 0.42080  0.54450  0.00040  Biso   1.000  C
  C79      1.0000 0.07920  0.04450  0.49960  Biso   1.000  C
  C80      1.0000 0.92080  0.04450  0.00040  Biso   1.000  C
  C81      1.0000 0.42200  0.35230  0.49440  Biso   1.000  C
  C82      1.0000 0.57800  0.35230  0.00560  Biso   1.000  C
  C83      1.0000 0.92200  0.85230  0.49440  Biso   1.000  C
  C84      1.0000 0.07800  0.85230  0.00560  Biso   1.000  C
  C85      1.0000 0.57800  0.64770  0.50560  Biso   1.000  C
  C86      1.0000 0.42200  0.64770  0.99440  Biso   1.000  C
  C87      1.0000 0.07800  0.14770  0.50560  Biso   1.000  C
  C88      1.0000 0.92200  0.14770  0.99440  Biso   1.000  C
  C89      1.0000 0.37190  0.29820  0.49700  Biso   1.000  C
  C90      1.0000 0.62810  0.29820  0.00300  Biso   1.000  C
  C91      1.0000 0.87190  0.79820  0.49700  Biso   1.000  C
  C92      1.0000 0.12810  0.79820  0.00300  Biso   1.000  C
  C93      1.0000 0.62810  0.70180  0.50300  Biso   1.000  C
  C94      1.0000 0.37190  0.70180  0.99700  Biso   1.000  C
  C95      1.0000 0.12810  0.20180  0.50300  Biso   1.000  C
  C96      1.0000 0.87190  0.20180  0.99700  Biso   1.000  C
  C97      1.0000 0.47310  0.51770  0.50000  Biso   1.000  C
  C98      1.0000 0.52690  0.51770  0.00000  Biso   1.000  C
  C99      1.0000 0.97310  0.01770  0.50000  Biso   1.000  C
  C100     1.0000 0.02690  0.01770  0.00000  Biso   1.000  C
  C101     1.0000 0.52690  0.48230  0.50000  Biso   1.000  C
  C102     1.0000 0.47310  0.48230  0.00000  Biso   1.000  C
  C103     1.0000 0.02690  0.98230  0.50000  Biso   1.000  C
  C104     1.0000 0.97310  0.98230  0.00000  Biso   1.000  C
  C105     1.0000 0.25970  0.21320  0.03860  Biso   1.000  C
  C106     1.0000 0.74030  0.21320  0.46140  Biso   1.000  C
  C107     1.0000 0.75970  0.71320  0.03860  Biso   1.000  C
  C108     1.0000 0.24030  0.71320  0.46140  Biso   1.000  C
  C109     1.0000 0.74030  0.78680  0.96140  Biso   1.000  C
  C110     1.0000 0.25970  0.78680  0.53860  Biso   1.000  C
  C111     1.0000 0.24030  0.28680  0.96140  Biso   1.000  C
  C112     1.0000 0.75970  0.28680  0.53860  Biso   1.000  C
  C113     1.0000 0.21460  0.30540  0.27910  Biso   1.000  C
  C114     1.0000 0.78540  0.30540  0.22090  Biso   1.000  C
  C115     1.0000 0.71460  0.80540  0.27910  Biso   1.000  C
  C116     1.0000 0.28540  0.80540  0.22090  Biso   1.000  C
  C117     1.0000 0.78540  0.69460  0.72090  Biso   1.000  C
  C118     1.0000 0.21460  0.69460  0.77910  Biso   1.000  C
  C119     1.0000 0.28540  0.19460  0.72090  Biso   1.000  C
  C120     1.0000 0.71460  0.19460  0.77910  Biso   1.000  C
  C121     1.0000 0.21650  0.30690  0.17680  Biso   1.000  C
  C122     1.0000 0.78350  0.30690  0.32320  Biso   1.000  C
  C123     1.0000 0.71650  0.80690  0.17680  Biso   1.000  C
  C124     1.0000 0.28350  0.80690  0.32320  Biso   1.000  C
  C125     1.0000 0.78350  0.69310  0.82320  Biso   1.000  C
  C126     1.0000 0.21650  0.69310  0.67680  Biso   1.000  C
  C127     1.0000 0.28350  0.19310  0.82320  Biso   1.000  C
  C128     1.0000 0.71650  0.19310  0.67680  Biso   1.000  C
  C129     1.0000 0.24750  0.23320  0.14000  Biso   1.000  C
  C130     1.0000 0.75250  0.23320  0.36000  Biso   1.000  C
  C131     1.0000 0.74750  0.73320  0.14000  Biso   1.000  C
  C132     1.0000 0.25250  0.73320  0.36000  Biso   1.000  C
  C133     1.0000 0.75250  0.76680  0.86000  Biso   1.000  C
  C134     1.0000 0.24750  0.76680  0.64000  Biso   1.000  C
  C135     1.0000 0.25250  0.26680  0.86000  Biso   1.000  C
  C136     1.0000 0.74750  0.26680  0.64000  Biso   1.000  C
  C137     1.0000 0.27410  0.16020  0.20880  Biso   1.000  C
  C138     1.0000 0.72590  0.16020  0.29120  Biso   1.000  C
  C139     1.0000 0.77410  0.66020  0.20880  Biso   1.000  C
  C140     1.0000 0.22590  0.66020  0.29120  Biso   1.000  C
  C141     1.0000 0.72590  0.83980  0.79120  Biso   1.000  C
  C142     1.0000 0.27410  0.83980  0.70880  Biso   1.000  C
  C143     1.0000 0.22590  0.33980  0.79120  Biso   1.000  C
  C144     1.0000 0.77410  0.33980  0.70880  Biso   1.000  C
  C145     1.0000 0.27070  0.16250  0.30910  Biso   1.000  C
  C146     1.0000 0.72930  0.16250  0.19090  Biso   1.000  C
  C147     1.0000 0.77070  0.66250  0.30910  Biso   1.000  C
  C148     1.0000 0.22930  0.66250  0.19090  Biso   1.000  C
  C149     1.0000 0.72930  0.83750  0.69090  Biso   1.000  C
  C150     1.0000 0.27070  0.83750  0.80910  Biso   1.000  C
  C151     1.0000 0.22930  0.33750  0.69090  Biso   1.000  C
  C152     1.0000 0.77070  0.33750  0.80910  Biso   1.000  C
  H1       1.0000 0.92420  0.59300  0.28870  Biso   1.000  H
  H2       1.0000 0.07580  0.59300  0.21130  Biso   1.000  H
  H3       1.0000 0.42420  0.09300  0.28870  Biso   1.000  H
  H4       1.0000 0.57580  0.09300  0.21130  Biso   1.000  H
  H5       1.0000 0.07580  0.40700  0.71130  Biso   1.000  H
  H6       1.0000 0.92420  0.40700  0.78870  Biso   1.000  H
  H7       1.0000 0.57580  0.90700  0.71130  Biso   1.000  H
  H8       1.0000 0.42420  0.90700  0.78870  Biso   1.000  H
  H9       1.0000 0.92340  0.76330  0.28890  Biso   1.000  H
  H10      1.0000 0.07660  0.76330  0.21110  Biso   1.000  H
  H11      1.0000 0.42340  0.26330  0.28890  Biso   1.000  H
  H12      1.0000 0.57660  0.26330  0.21110  Biso   1.000  H
  H13      1.0000 0.07660  0.23670  0.71110  Biso   1.000  H
  H14      1.0000 0.92340  0.23670  0.78890  Biso   1.000  H
  H15      1.0000 0.57660  0.73670  0.71110  Biso   1.000  H
  H16      1.0000 0.42340  0.73670  0.78890  Biso   1.000  H
  H17      1.0000 0.08090  0.26000  0.23090  Biso   1.000  H
  H18      1.0000 0.91910  0.26000  0.26910  Biso   1.000  H
  H19      1.0000 0.58090  0.76000  0.23090  Biso   1.000  H
  H20      1.0000 0.41910  0.76000  0.26910  Biso   1.000  H
  H21      1.0000 0.91910  0.74000  0.76910  Biso   1.000  H
  H22      1.0000 0.08090  0.74000  0.73090  Biso   1.000  H
  H23      1.0000 0.41910  0.24000  0.76910  Biso   1.000  H
  H24      1.0000 0.58090  0.24000  0.73090  Biso   1.000  H
  H25      1.0000 0.28310  0.46940  0.51750  Biso   1.000  H
  H26      1.0000 0.71690  0.46940  0.98250  Biso   1.000  H
  H27      1.0000 0.78310  0.96940  0.51750  Biso   1.000  H
  H28      1.0000 0.21690  0.96940  0.98250  Biso   1.000  H
  H29      1.0000 0.71690  0.53060  0.48250  Biso   1.000  H
  H30      1.0000 0.28310  0.53060  0.01750  Biso   1.000  H
  H31      1.0000 0.21690  0.03060  0.48250  Biso   1.000  H
  H32      1.0000 0.78310  0.03060  0.01750  Biso   1.000  H
  H33      1.0000 0.36380  0.56720  0.51170  Biso   1.000  H
  H34      1.0000 0.63620  0.56720  0.98830  Biso   1.000  H
  H35      1.0000 0.86380  0.06720  0.51170  Biso   1.000  H
  H36      1.0000 0.13620  0.06720  0.98830  Biso   1.000  H
  H37      1.0000 0.63620  0.43280  0.48830  Biso   1.000  H
  H38      1.0000 0.36380  0.43280  0.01170  Biso   1.000  H
  H39      1.0000 0.13620  0.93280  0.48830  Biso   1.000  H
  H40      1.0000 0.86380  0.93280  0.01170  Biso   1.000  H
  H41      1.0000 0.45670  0.32010  0.48860  Biso   1.000  H
  H42      1.0000 0.54330  0.32010  0.01140  Biso   1.000  H
  H43      1.0000 0.95670  0.82010  0.48860  Biso   1.000  H
  H44      1.0000 0.04330  0.82010  0.01140  Biso   1.000  H
  H45      1.0000 0.54330  0.67990  0.51140  Biso   1.000  H
  H46      1.0000 0.45670  0.67990  0.98860  Biso   1.000  H
  H47      1.0000 0.04330  0.17990  0.51140  Biso   1.000  H
  H48      1.0000 0.95670  0.17990  0.98860  Biso   1.000  H
  H49      1.0000 0.37370  0.22940  0.49240  Biso   1.000  H
  H50      1.0000 0.62630  0.22940  0.00760  Biso   1.000  H
  H51      1.0000 0.87370  0.72940  0.49240  Biso   1.000  H
  H52      1.0000 0.12630  0.72940  0.00760  Biso   1.000  H
  H53      1.0000 0.62630  0.77060  0.50760  Biso   1.000  H
  H54      1.0000 0.37370  0.77060  0.99240  Biso   1.000  H
  H55      1.0000 0.12630  0.27060  0.50760  Biso   1.000  H
  H56      1.0000 0.87370  0.27060  0.99240  Biso   1.000  H
  H57      1.0000 0.46820  0.58620  0.49960  Biso   1.000  H
  H58      1.0000 0.53180  0.58620  0.00040  Biso   1.000  H
  H59      1.0000 0.96820  0.08620  0.49960  Biso   1.000  H
  H60      1.0000 0.03180  0.08620  0.00040  Biso   1.000  H
  H61      1.0000 0.53180  0.41380  0.50040  Biso   1.000  H
  H62      1.0000 0.46820  0.41380  0.99960  Biso   1.000  H
  H63      1.0000 0.03180  0.91380  0.50040  Biso   1.000  H
  H64      1.0000 0.96820  0.91380  0.99960  Biso   1.000  H
  H65      1.0000 0.19380  0.35550  0.30220  Biso   1.000  H
  H66      1.0000 0.80620  0.35550  0.19780  Biso   1.000  H
  H67      1.0000 0.69380  0.85550  0.30220  Biso   1.000  H
  H68      1.0000 0.30620  0.85550  0.19780  Biso   1.000  H
  H69      1.0000 0.80620  0.64450  0.69780  Biso   1.000  H
  H70      1.0000 0.19380  0.64450  0.80220  Biso   1.000  H
  H71      1.0000 0.30620  0.14450  0.69780  Biso   1.000  H
  H72      1.0000 0.69380  0.14450  0.80220  Biso   1.000  H
  H73      1.0000 0.19700  0.35730  0.13290  Biso   1.000  H
  H74      1.0000 0.80300  0.35730  0.36710  Biso   1.000  H
  H75      1.0000 0.69700  0.85730  0.13290  Biso   1.000  H
  H76      1.0000 0.30300  0.85730  0.36710  Biso   1.000  H
  H77      1.0000 0.80300  0.64270  0.86710  Biso   1.000  H
  H78      1.0000 0.19700  0.64270  0.63290  Biso   1.000  H
  H79      1.0000 0.30300  0.14270  0.86710  Biso   1.000  H
  H80      1.0000 0.69700  0.14270  0.63290  Biso   1.000  H
  H81      1.0000 0.29450  0.10850  0.18730  Biso   1.000  H
  H82      1.0000 0.70550  0.10850  0.31270  Biso   1.000  H
  H83      1.0000 0.79450  0.60850  0.18730  Biso   1.000  H
  H84      1.0000 0.20550  0.60850  0.31270  Biso   1.000  H
  H85      1.0000 0.70550  0.89150  0.81270  Biso   1.000  H
  H86      1.0000 0.29450  0.89150  0.68730  Biso   1.000  H
  H87      1.0000 0.20550  0.39150  0.81270  Biso   1.000  H
  H88      1.0000 0.79450  0.39150  0.68730  Biso   1.000  H
  H89      1.0000 0.28940  0.11200  0.35360  Biso   1.000  H
  H90      1.0000 0.71060  0.11200  0.14640  Biso   1.000  H
  H91      1.0000 0.78940  0.61200  0.35360  Biso   1.000  H
  H92      1.0000 0.21060  0.61200  0.14640  Biso   1.000  H
  H93      1.0000 0.71060  0.88800  0.64640  Biso   1.000  H
  H94      1.0000 0.28940  0.88800  0.85360  Biso   1.000  H
  H95      1.0000 0.21060  0.38800  0.64640  Biso   1.000  H
  H96      1.0000 0.78940  0.38800  0.85360  Biso   1.000  H
  H97      1.0000 0.99570  0.41550  0.05320  Biso   1.000  H
  H98      1.0000 0.00430  0.41550  0.44680  Biso   1.000  H
  H99      1.0000 0.49570  0.91550  0.05320  Biso   1.000  H
  H100     1.0000 0.50430  0.91550  0.44680  Biso   1.000  H
  H101     1.0000 0.00430  0.58450  0.94680  Biso   1.000  H
  H102     1.0000 0.99570  0.58450  0.55320  Biso   1.000  H
  H103     1.0000 0.50430  0.08450  0.94680  Biso   1.000  H
  H104     1.0000 0.49570  0.08450  0.55320  Biso   1.000  H
  H105     1.0000 0.05240  0.44550  0.07150  Biso   1.000  H
  H106     1.0000 0.94760  0.44550  0.42850  Biso   1.000  H
  H107     1.0000 0.55240  0.94550  0.07150  Biso   1.000  H
  H108     1.0000 0.44760  0.94550  0.42850  Biso   1.000  H
  H109     1.0000 0.94760  0.55450  0.92850  Biso   1.000  H
  H110     1.0000 0.05240  0.55450  0.57150  Biso   1.000  H
  H111     1.0000 0.44760  0.05450  0.92850  Biso   1.000  H
  H112     1.0000 0.55240  0.05450  0.57150  Biso   1.000  H
  H113     1.0000 0.05880  0.29900  0.04310  Biso   1.000  H
  H114     1.0000 0.94120  0.29900  0.45690  Biso   1.000  H
  H115     1.0000 0.55880  0.79900  0.04310  Biso   1.000  H
  H116     1.0000 0.44120  0.79900  0.45690  Biso   1.000  H
  H117     1.0000 0.94120  0.70100  0.95690  Biso   1.000  H
  H118     1.0000 0.05880  0.70100  0.54310  Biso   1.000  H
  H119     1.0000 0.44120  0.20100  0.95690  Biso   1.000  H
  H120     1.0000 0.55880  0.20100  0.54310  Biso   1.000  H
  H121     1.0000 0.09320  0.28330  0.96770  Biso   1.000  H
  H122     1.0000 0.90680  0.28330  0.53230  Biso   1.000  H
  H123     1.0000 0.59320  0.78330  0.96770  Biso   1.000  H
  H124     1.0000 0.40680  0.78330  0.53230  Biso   1.000  H
  H125     1.0000 0.90680  0.71670  0.03230  Biso   1.000  H
  H126     1.0000 0.09320  0.71670  0.46770  Biso   1.000  H
  H127     1.0000 0.40680  0.21670  0.03230  Biso   1.000  H
  H128     1.0000 0.59320  0.21670  0.46770  Biso   1.000  H
