data_image0
_cell_length_a       10.244
_cell_length_b       19.886
_cell_length_c       7.505
_cell_angle_alpha    90
_cell_angle_beta     100.39
_cell_angle_gamma    90

_symmetry_space_group_name_H-M    "P 1"
_symmetry_int_tables_number       1

loop_
  _symmetry_equiv_pos_as_xyz
  'x, y, z'

loop_
  _atom_site_label
  _atom_site_occupancy
  _atom_site_fract_x
  _atom_site_fract_y
  _atom_site_fract_z
  _atom_site_thermal_displace_type
  _atom_site_B_iso_or_equiv
  _atom_site_type_symbol
  Cu1      1.0000 0.59477  0.22898  0.52465  Biso   1.000  Cu
  Cu2      1.0000 0.59477  0.77102  0.02465  Biso   1.000  Cu
  Cu3      1.0000 0.09477  0.72898  0.52465  Biso   1.000  Cu
  Cu4      1.0000 0.09477  0.27102  0.02465  Biso   1.000  Cu
  S1       1.0000 0.26337  0.14669  0.56673  Biso   1.000  S
  S2       1.0000 0.26337  0.85331  0.06673  Biso   1.000  S
  S3       1.0000 0.76337  0.64669  0.56673  Biso   1.000  S
  S4       1.0000 0.76337  0.35331  0.06673  Biso   1.000  S
  O1       1.0000 0.59700  0.22332  0.26400  Biso   1.000  O
  O2       1.0000 0.59700  0.77668  0.76400  Biso   1.000  O
  O3       1.0000 0.09700  0.72332  0.26400  Biso   1.000  O
  O4       1.0000 0.09700  0.27668  0.76400  Biso   1.000  O
  O5       1.0000 0.56490  0.21738  0.77670  Biso   1.000  O
  O6       1.0000 0.56490  0.78262  0.27670  Biso   1.000  O
  O7       1.0000 0.06490  0.71738  0.77670  Biso   1.000  O
  O8       1.0000 0.06490  0.28262  0.27670  Biso   1.000  O
  O9       1.0000 0.79000  0.27810  0.60640  Biso   1.000  O
  O10      1.0000 0.79000  0.72190  0.10640  Biso   1.000  O
  O11      1.0000 0.29000  0.77810  0.60640  Biso   1.000  O
  O12      1.0000 0.29000  0.22190  0.10640  Biso   1.000  O
  O13      1.0000 0.35570  0.16928  0.44970  Biso   1.000  O
  O14      1.0000 0.35570  0.83072  0.94970  Biso   1.000  O
  O15      1.0000 0.85570  0.66928  0.44970  Biso   1.000  O
  O16      1.0000 0.85570  0.33072  0.94970  Biso   1.000  O
  O17      1.0000 0.23510  0.07467  0.54150  Biso   1.000  O
  O18      1.0000 0.23510  0.92533  0.04150  Biso   1.000  O
  O19      1.0000 0.73510  0.57467  0.54150  Biso   1.000  O
  O20      1.0000 0.73510  0.42533  0.04150  Biso   1.000  O
  O21      1.0000 0.13670  0.18453  0.52270  Biso   1.000  O
  O22      1.0000 0.13670  0.81547  0.02270  Biso   1.000  O
  O23      1.0000 0.63670  0.68453  0.52270  Biso   1.000  O
  O24      1.0000 0.63670  0.31547  0.02270  Biso   1.000  O
  O25      1.0000 0.32460  0.16011  0.75750  Biso   1.000  O
  O26      1.0000 0.32460  0.83989  0.25750  Biso   1.000  O
  O27      1.0000 0.82460  0.66011  0.75750  Biso   1.000  O
  O28      1.0000 0.82460  0.33989  0.25750  Biso   1.000  O
  N1       1.0000 0.50180  0.32135  0.50560  Biso   1.000  N
  N2       1.0000 0.50180  0.67865  0.00560  Biso   1.000  N
  N3       1.0000 0.00180  0.82135  0.50560  Biso   1.000  N
  N4       1.0000 0.00180  0.17865  0.00560  Biso   1.000  N
  N5       1.0000 0.18750  0.63807  0.54170  Biso   1.000  N
  N6       1.0000 0.18750  0.36193  0.04170  Biso   1.000  N
  N7       1.0000 0.68750  0.13807  0.54170  Biso   1.000  N
  N8       1.0000 0.68750  0.86193  0.04170  Biso   1.000  N
  C1       1.0000 0.56530  0.37809  0.48510  Biso   1.000  C
  C2       1.0000 0.56530  0.62191  0.98510  Biso   1.000  C
  C3       1.0000 0.06530  0.87809  0.48510  Biso   1.000  C
  C4       1.0000 0.06530  0.12191  0.98510  Biso   1.000  C
  H1       1.0000 0.65170  0.37550  0.46340  Biso   1.000  H
  H2       1.0000 0.65170  0.62450  0.96340  Biso   1.000  H
  H3       1.0000 0.15170  0.87550  0.46340  Biso   1.000  H
  H4       1.0000 0.15170  0.12450  0.96340  Biso   1.000  H
  C5       1.0000 0.50910  0.44096  0.49460  Biso   1.000  C
  C6       1.0000 0.50910  0.55904  0.99460  Biso   1.000  C
  C7       1.0000 0.00910  0.94096  0.49460  Biso   1.000  C
  C8       1.0000 0.00910  0.05904  0.99460  Biso   1.000  C
  H5       1.0000 0.55880  0.47930  0.48320  Biso   1.000  H
  H6       1.0000 0.55880  0.52070  0.98320  Biso   1.000  H
  H7       1.0000 0.05880  0.97930  0.48320  Biso   1.000  H
  H8       1.0000 0.05880  0.02070  0.98320  Biso   1.000  H
  C9       1.0000 0.37950  0.44706  0.52100  Biso   1.000  C
  C10      1.0000 0.37950  0.55294  0.02100  Biso   1.000  C
  C11      1.0000 0.87950  0.94706  0.52100  Biso   1.000  C
  C12      1.0000 0.87950  0.05294  0.02100  Biso   1.000  C
  C13      1.0000 0.31360  0.38759  0.53230  Biso   1.000  C
  C14      1.0000 0.31360  0.61241  0.03230  Biso   1.000  C
  C15      1.0000 0.81360  0.88759  0.53230  Biso   1.000  C
  C16      1.0000 0.81360  0.11241  0.03230  Biso   1.000  C
  H9       1.0000 0.22500  0.38830  0.54540  Biso   1.000  H
  H10      1.0000 0.22500  0.61170  0.04540  Biso   1.000  H
  H11      1.0000 0.72500  0.88830  0.54540  Biso   1.000  H
  H12      1.0000 0.72500  0.11170  0.04540  Biso   1.000  H
  C17      1.0000 0.37670  0.32704  0.52460  Biso   1.000  C
  C18      1.0000 0.37670  0.67296  0.02460  Biso   1.000  C
  C19      1.0000 0.87670  0.82704  0.52460  Biso   1.000  C
  C20      1.0000 0.87670  0.17296  0.02460  Biso   1.000  C
  H13      1.0000 0.32870  0.28790  0.53310  Biso   1.000  H
  H14      1.0000 0.32870  0.71210  0.03310  Biso   1.000  H
  H15      1.0000 0.82870  0.78790  0.53310  Biso   1.000  H
  H16      1.0000 0.82870  0.21210  0.03310  Biso   1.000  H
  C21      1.0000 0.12950  0.58109  0.56970  Biso   1.000  C
  C22      1.0000 0.12950  0.41891  0.06970  Biso   1.000  C
  C23      1.0000 0.62950  0.08109  0.56970  Biso   1.000  C
  C24      1.0000 0.62950  0.91891  0.06970  Biso   1.000  C
  H17      1.0000 0.04340  0.58300  0.59310  Biso   1.000  H
  H18      1.0000 0.04340  0.41700  0.09310  Biso   1.000  H
  H19      1.0000 0.54340  0.08300  0.59310  Biso   1.000  H
  H20      1.0000 0.54340  0.91700  0.09310  Biso   1.000  H
  C25      1.0000 0.18740  0.51892  0.56660  Biso   1.000  C
  C26      1.0000 0.18740  0.48108  0.06660  Biso   1.000  C
  C27      1.0000 0.68740  0.01892  0.56660  Biso   1.000  C
  C28      1.0000 0.68740  0.98108  0.06660  Biso   1.000  C
  H21      1.0000 0.14080  0.48050  0.58810  Biso   1.000  H
  H22      1.0000 0.14080  0.51950  0.08810  Biso   1.000  H
  H23      1.0000 0.64080  0.98050  0.58810  Biso   1.000  H
  H24      1.0000 0.64080  0.01950  0.08810  Biso   1.000  H
  C29      1.0000 0.31550  0.51335  0.53160  Biso   1.000  C
  C30      1.0000 0.31550  0.48665  0.03160  Biso   1.000  C
  C31      1.0000 0.81550  0.01335  0.53160  Biso   1.000  C
  C32      1.0000 0.81550  0.98665  0.03160  Biso   1.000  C
  C33      1.0000 0.37880  0.57329  0.50700  Biso   1.000  C
  C34      1.0000 0.37880  0.42671  0.00700  Biso   1.000  C
  C35      1.0000 0.87880  0.07329  0.50700  Biso   1.000  C
  C36      1.0000 0.87880  0.92671  0.00700  Biso   1.000  C
  H25      1.0000 0.46560  0.57280  0.48600  Biso   1.000  H
  H26      1.0000 0.46560  0.42720  0.98600  Biso   1.000  H
  H27      1.0000 0.96560  0.07280  0.48600  Biso   1.000  H
  H28      1.0000 0.96560  0.92720  0.98600  Biso   1.000  H
  C37      1.0000 0.31340  0.63403  0.51360  Biso   1.000  C
  C38      1.0000 0.31340  0.36597  0.01360  Biso   1.000  C
  C39      1.0000 0.81340  0.13403  0.51360  Biso   1.000  C
  C40      1.0000 0.81340  0.86597  0.01360  Biso   1.000  C
  H29      1.0000 0.35840  0.67360  0.49790  Biso   1.000  H
  H30      1.0000 0.35840  0.32640  0.99790  Biso   1.000  H
  H31      1.0000 0.85840  0.17360  0.49790  Biso   1.000  H
  H32      1.0000 0.85840  0.82640  0.99790  Biso   1.000  H
  H33      1.0000 0.55500  0.19120  0.21800  Biso   1.000  H
  H34      1.0000 0.55500  0.80880  0.71800  Biso   1.000  H
  H35      1.0000 0.05500  0.69120  0.21800  Biso   1.000  H
  H36      1.0000 0.05500  0.30880  0.71800  Biso   1.000  H
  H37      1.0000 0.63100  0.25000  0.20400  Biso   1.000  H
  H38      1.0000 0.63100  0.75000  0.70400  Biso   1.000  H
  H39      1.0000 0.13100  0.75000  0.20400  Biso   1.000  H
  H40      1.0000 0.13100  0.25000  0.70400  Biso   1.000  H
  H41      1.0000 0.58000  0.24990  0.84400  Biso   1.000  H
  H42      1.0000 0.58000  0.75010  0.34400  Biso   1.000  H
  H43      1.0000 0.08000  0.74990  0.84400  Biso   1.000  H
  H44      1.0000 0.08000  0.25010  0.34400  Biso   1.000  H
  H45      1.0000 0.49030  0.20230  0.77400  Biso   1.000  H
  H46      1.0000 0.49030  0.79770  0.27400  Biso   1.000  H
  H47      1.0000 0.99030  0.70230  0.77400  Biso   1.000  H
  H48      1.0000 0.99030  0.29770  0.27400  Biso   1.000  H
  H49      1.0000 0.80900  0.29430  0.70800  Biso   1.000  H
  H50      1.0000 0.80900  0.70570  0.20800  Biso   1.000  H
  H51      1.0000 0.30900  0.79430  0.70800  Biso   1.000  H
  H52      1.0000 0.30900  0.20570  0.20800  Biso   1.000  H
  H53      1.0000 0.80700  0.30300  0.52800  Biso   1.000  H
  H54      1.0000 0.80700  0.69700  0.02800  Biso   1.000  H
  H55      1.0000 0.30700  0.80300  0.52800  Biso   1.000  H
  H56      1.0000 0.30700  0.19700  0.02800  Biso   1.000  H
  O29      1.0000 0.47920  0.10842  0.09790  Biso   1.000  O
  O30      1.0000 0.47920  0.89158  0.59790  Biso   1.000  O
  O31      1.0000 0.97920  0.60842  0.09790  Biso   1.000  O
  O32      1.0000 0.97920  0.39158  0.59790  Biso   1.000  O
  H57      1.0000 0.44700  0.08090  0.16000  Biso   1.000  H
  H58      1.0000 0.44700  0.91910  0.66000  Biso   1.000  H
  H59      1.0000 0.94700  0.58090  0.16000  Biso   1.000  H
  H60      1.0000 0.94700  0.41910  0.66000  Biso   1.000  H
  H61      1.0000 0.45300  0.10000  0.99000  Biso   1.000  H
  H62      1.0000 0.45300  0.90000  0.49000  Biso   1.000  H
  H63      1.0000 0.95300  0.60000  0.99000  Biso   1.000  H
  H64      1.0000 0.95300  0.40000  0.49000  Biso   1.000  H
  O33      1.0000 0.37500  0.01041  0.29840  Biso   1.000  O
  O34      1.0000 0.37500  0.98959  0.79840  Biso   1.000  O
  O35      1.0000 0.87500  0.51041  0.29840  Biso   1.000  O
  O36      1.0000 0.87500  0.48959  0.79840  Biso   1.000  O
  H65      1.0000 0.33500  0.02800  0.37300  Biso   1.000  H
  H66      1.0000 0.33500  0.97200  0.87300  Biso   1.000  H
  H67      1.0000 0.83500  0.52800  0.37300  Biso   1.000  H
  H68      1.0000 0.83500  0.47200  0.87300  Biso   1.000  H
  H69      1.0000 0.32200  0.98700  0.22800  Biso   1.000  H
  H70      1.0000 0.32200  0.01300  0.72800  Biso   1.000  H
  H71      1.0000 0.82200  0.48700  0.22800  Biso   1.000  H
  H72      1.0000 0.82200  0.51300  0.72800  Biso   1.000  H
