data_image0
_cell_length_a       11.1927
_cell_length_b       11.1927
_cell_length_c       21.5814
_cell_angle_alpha    90
_cell_angle_beta     90
_cell_angle_gamma    120

_symmetry_space_group_name_H-M    "P 1"
_symmetry_int_tables_number       1

loop_
  _symmetry_equiv_pos_as_xyz
  'x, y, z'

loop_
  _atom_site_label
  _atom_site_occupancy
  _atom_site_fract_x
  _atom_site_fract_y
  _atom_site_fract_z
  _atom_site_thermal_displace_type
  _atom_site_B_iso_or_equiv
  _atom_site_type_symbol
  Cu1      1.0000 0.42737  0.42612  0.11326  Biso   1.000  Cu
  Cu2      1.0000 0.57388  0.00125  0.44659  Biso   1.000  Cu
  Cu3      1.0000 0.99875  0.57263  0.77993  Biso   1.000  Cu
  Cu4      1.0000 0.57263  0.57388  0.61326  Biso   1.000  Cu
  Cu5      1.0000 0.42612  0.99875  0.94659  Biso   1.000  Cu
  Cu6      1.0000 0.00125  0.42737  0.27993  Biso   1.000  Cu
  N1       1.0000 0.61240  0.60850  0.10820  Biso   1.000  N
  N2       1.0000 0.39150  0.00390  0.44153  Biso   1.000  N
  N3       1.0000 0.99610  0.38760  0.77487  Biso   1.000  N
  N4       1.0000 0.38760  0.39150  0.60820  Biso   1.000  N
  N5       1.0000 0.60850  0.99610  0.94153  Biso   1.000  N
  N6       1.0000 0.00390  0.61240  0.27487  Biso   1.000  N
  N7       1.0000 0.24650  0.24240  0.11850  Biso   1.000  N
  N8       1.0000 0.75760  0.00410  0.45183  Biso   1.000  N
  N9       1.0000 0.99590  0.75350  0.78517  Biso   1.000  N
  N10      1.0000 0.75350  0.75760  0.61850  Biso   1.000  N
  N11      1.0000 0.24240  0.99590  0.95183  Biso   1.000  N
  N12      1.0000 0.00410  0.24650  0.28517  Biso   1.000  N
  O1       1.0000 0.44140  0.43300  0.20384  Biso   1.000  O
  O2       1.0000 0.56700  0.00840  0.53717  Biso   1.000  O
  O3       1.0000 0.99160  0.55860  0.87051  Biso   1.000  O
  O4       1.0000 0.55860  0.56700  0.70384  Biso   1.000  O
  O5       1.0000 0.43300  0.99160  0.03717  Biso   1.000  O
  O6       1.0000 0.00840  0.44140  0.37051  Biso   1.000  O
  H1       1.0000 0.47870  0.51330  0.21960  Biso   1.000  H
  H2       1.0000 0.48670  0.96540  0.55293  Biso   1.000  H
  H3       1.0000 0.03460  0.52130  0.88627  Biso   1.000  H
  H4       1.0000 0.52130  0.48670  0.71960  Biso   1.000  H
  H5       1.0000 0.51330  0.03460  0.05293  Biso   1.000  H
  H6       1.0000 0.96540  0.47870  0.38627  Biso   1.000  H
  H7       1.0000 0.46520  0.38440  0.22510  Biso   1.000  H
  H8       1.0000 0.61560  0.08080  0.55843  Biso   1.000  H
  H9       1.0000 0.91920  0.53480  0.89177  Biso   1.000  H
  H10      1.0000 0.53480  0.61560  0.72510  Biso   1.000  H
  H11      1.0000 0.38440  0.91920  0.05843  Biso   1.000  H
  H12      1.0000 0.08080  0.46520  0.39177  Biso   1.000  H
  O7       1.0000 0.38210  0.44150  0.02612  Biso   1.000  O
  O8       1.0000 0.55850  0.94060  0.35945  Biso   1.000  O
  O9       1.0000 0.05940  0.61790  0.69279  Biso   1.000  O
  O10      1.0000 0.61790  0.55850  0.52612  Biso   1.000  O
  O11      1.0000 0.44150  0.05940  0.85945  Biso   1.000  O
  O12      1.0000 0.94060  0.38210  0.19279  Biso   1.000  O
  H13      1.0000 0.34900  0.49510  0.02360  Biso   1.000  H
  H14      1.0000 0.50490  0.85390  0.35693  Biso   1.000  H
  H15      1.0000 0.14610  0.65100  0.69027  Biso   1.000  H
  H16      1.0000 0.65100  0.50490  0.52360  Biso   1.000  H
  H17      1.0000 0.49510  0.14610  0.85693  Biso   1.000  H
  H18      1.0000 0.85390  0.34900  0.19027  Biso   1.000  H
  H19      1.0000 0.43630  0.45750  0.99570  Biso   1.000  H
  H20      1.0000 0.54250  0.97880  0.32903  Biso   1.000  H
  H21      1.0000 0.02120  0.56370  0.66237  Biso   1.000  H
  H22      1.0000 0.56370  0.54250  0.49570  Biso   1.000  H
  H23      1.0000 0.45750  0.02120  0.82903  Biso   1.000  H
  H24      1.0000 0.97880  0.43630  0.16237  Biso   1.000  H
  O13      1.0000 0.53720  0.31320  0.09114  Biso   1.000  O
  O14      1.0000 0.68680  0.22400  0.42447  Biso   1.000  O
  O15      1.0000 0.77600  0.46280  0.75781  Biso   1.000  O
  O16      1.0000 0.46280  0.68680  0.59114  Biso   1.000  O
  O17      1.0000 0.31320  0.77600  0.92447  Biso   1.000  O
  O18      1.0000 0.22400  0.53720  0.25781  Biso   1.000  O
  H25      1.0000 0.55420  0.29450  0.05520  Biso   1.000  H
  H26      1.0000 0.70550  0.25970  0.38853  Biso   1.000  H
  H27      1.0000 0.74030  0.44580  0.72187  Biso   1.000  H
  H28      1.0000 0.44580  0.70550  0.55520  Biso   1.000  H
  H29      1.0000 0.29450  0.74030  0.88853  Biso   1.000  H
  H30      1.0000 0.25970  0.55420  0.22187  Biso   1.000  H
  H31      1.0000 0.58010  0.29250  0.11760  Biso   1.000  H
  H32      1.0000 0.70750  0.28760  0.45093  Biso   1.000  H
  H33      1.0000 0.71240  0.41990  0.78427  Biso   1.000  H
  H34      1.0000 0.41990  0.70750  0.61760  Biso   1.000  H
  H35      1.0000 0.29250  0.71240  0.95093  Biso   1.000  H
  H36      1.0000 0.28760  0.58010  0.28427  Biso   1.000  H
  O19      1.0000 0.29220  0.56240  0.13357  Biso   1.000  O
  O20      1.0000 0.43760  0.72980  0.46690  Biso   1.000  O
  O21      1.0000 0.27020  0.70780  0.80024  Biso   1.000  O
  O22      1.0000 0.70780  0.43760  0.63357  Biso   1.000  O
  O23      1.0000 0.56240  0.27020  0.96690  Biso   1.000  O
  O24      1.0000 0.72980  0.29220  0.30024  Biso   1.000  O
  O25      1.0000 0.26220  0.60460  0.02766  Biso   1.000  O
  O26      1.0000 0.39540  0.65760  0.36099  Biso   1.000  O
  O27      1.0000 0.34240  0.73780  0.69433  Biso   1.000  O
  O28      1.0000 0.73780  0.39540  0.52766  Biso   1.000  O
  O29      1.0000 0.60460  0.34240  0.86099  Biso   1.000  O
  O30      1.0000 0.65760  0.26220  0.19433  Biso   1.000  O
  O31      1.0000 0.29350  0.77080  0.10590  Biso   1.000  O
  O32      1.0000 0.22920  0.52270  0.43923  Biso   1.000  O
  O33      1.0000 0.47730  0.70650  0.77257  Biso   1.000  O
  O34      1.0000 0.70650  0.22920  0.60590  Biso   1.000  O
  O35      1.0000 0.77080  0.47730  0.93923  Biso   1.000  O
  O36      1.0000 0.52270  0.29350  0.27257  Biso   1.000  O
  O37      1.0000 0.08330  0.55580  0.10160  Biso   1.000  O
  O38      1.0000 0.44420  0.52750  0.43493  Biso   1.000  O
  O39      1.0000 0.47250  0.91670  0.76827  Biso   1.000  O
  O40      1.0000 0.91670  0.44420  0.60160  Biso   1.000  O
  O41      1.0000 0.55580  0.47250  0.93493  Biso   1.000  O
  O42      1.0000 0.52750  0.08330  0.26827  Biso   1.000  O
  S1       1.0000 0.23270  0.62340  0.09229  Biso   1.000  S
  S2       1.0000 0.37660  0.60930  0.42562  Biso   1.000  S
  S3       1.0000 0.39070  0.76730  0.75896  Biso   1.000  S
  S4       1.0000 0.76730  0.37660  0.59229  Biso   1.000  S
  S5       1.0000 0.62340  0.39070  0.92562  Biso   1.000  S
  S6       1.0000 0.60930  0.23270  0.25896  Biso   1.000  S
  C1       1.0000 0.61840  0.72810  0.10600  Biso   1.000  C
  C2       1.0000 0.27190  0.89030  0.43933  Biso   1.000  C
  C3       1.0000 0.10970  0.38160  0.77267  Biso   1.000  C
  C4       1.0000 0.38160  0.27190  0.60600  Biso   1.000  C
  C5       1.0000 0.72810  0.10970  0.93933  Biso   1.000  C
  C6       1.0000 0.89030  0.61840  0.27267  Biso   1.000  C
  H37      1.0000 0.53620  0.72940  0.10270  Biso   1.000  H
  H38      1.0000 0.27060  0.80680  0.43603  Biso   1.000  H
  H39      1.0000 0.19320  0.46380  0.76937  Biso   1.000  H
  H40      1.0000 0.46380  0.27060  0.60270  Biso   1.000  H
  H41      1.0000 0.72940  0.19320  0.93603  Biso   1.000  H
  H42      1.0000 0.80680  0.53620  0.26937  Biso   1.000  H
  C7       1.0000 0.73990  0.85200  0.10830  Biso   1.000  C
  C8       1.0000 0.14800  0.88790  0.44163  Biso   1.000  C
  C9       1.0000 0.11210  0.26010  0.77497  Biso   1.000  C
  C10      1.0000 0.26010  0.14800  0.60830  Biso   1.000  C
  C11      1.0000 0.85200  0.11210  0.94163  Biso   1.000  C
  C12      1.0000 0.88790  0.73990  0.27497  Biso   1.000  C
  H43      1.0000 0.73760  0.93390  0.10750  Biso   1.000  H
  H44      1.0000 0.06610  0.80370  0.44083  Biso   1.000  H
  H45      1.0000 0.19630  0.26240  0.77417  Biso   1.000  H
  H46      1.0000 0.26240  0.06610  0.60750  Biso   1.000  H
  H47      1.0000 0.93390  0.19630  0.94083  Biso   1.000  H
  H48      1.0000 0.80370  0.73760  0.27417  Biso   1.000  H
  C13      1.0000 0.86290  0.85660  0.11160  Biso   1.000  C
  C14      1.0000 0.14340  0.00630  0.44493  Biso   1.000  C
  C15      1.0000 0.99370  0.13710  0.77827  Biso   1.000  C
  C16      1.0000 0.13710  0.14340  0.61160  Biso   1.000  C
  C17      1.0000 0.85660  0.99370  0.94493  Biso   1.000  C
  C18      1.0000 0.00630  0.86290  0.27827  Biso   1.000  C
  C19      1.0000 0.85640  0.73120  0.11100  Biso   1.000  C
  C20      1.0000 0.26880  0.12520  0.44433  Biso   1.000  C
  C21      1.0000 0.87480  0.14360  0.77767  Biso   1.000  C
  C22      1.0000 0.14360  0.26880  0.61100  Biso   1.000  C
  C23      1.0000 0.73120  0.87480  0.94433  Biso   1.000  C
  C24      1.0000 0.12520  0.85640  0.27767  Biso   1.000  C
  H49      1.0000 0.93750  0.72740  0.11100  Biso   1.000  H
  H50      1.0000 0.27260  0.21010  0.44433  Biso   1.000  H
  H51      1.0000 0.78990  0.06250  0.77767  Biso   1.000  H
  H52      1.0000 0.06250  0.27260  0.61100  Biso   1.000  H
  H53      1.0000 0.72740  0.78990  0.94433  Biso   1.000  H
  H54      1.0000 0.21010  0.93750  0.27767  Biso   1.000  H
  C25      1.0000 0.73170  0.61130  0.11040  Biso   1.000  C
  C26      1.0000 0.38870  0.12040  0.44373  Biso   1.000  C
  C27      1.0000 0.87960  0.26830  0.77707  Biso   1.000  C
  C28      1.0000 0.26830  0.38870  0.61040  Biso   1.000  C
  C29      1.0000 0.61130  0.87960  0.94373  Biso   1.000  C
  C30      1.0000 0.12040  0.73170  0.27707  Biso   1.000  C
  H55      1.0000 0.73100  0.52790  0.11150  Biso   1.000  H
  H56      1.0000 0.47210  0.20310  0.44483  Biso   1.000  H
  H57      1.0000 0.79690  0.26900  0.77817  Biso   1.000  H
  H58      1.0000 0.26900  0.47210  0.61150  Biso   1.000  H
  H59      1.0000 0.52790  0.79690  0.94483  Biso   1.000  H
  H60      1.0000 0.20310  0.73100  0.27817  Biso   1.000  H
  C31      1.0000 0.24290  0.12080  0.11930  Biso   1.000  C
  C32      1.0000 0.87920  0.12210  0.45263  Biso   1.000  C
  C33      1.0000 0.87790  0.75710  0.78597  Biso   1.000  C
  C34      1.0000 0.75710  0.87920  0.61930  Biso   1.000  C
  C35      1.0000 0.12080  0.87790  0.95263  Biso   1.000  C
  C36      1.0000 0.12210  0.24290  0.28597  Biso   1.000  C
  H61      1.0000 0.32600  0.12100  0.12130  Biso   1.000  H
  H62      1.0000 0.87900  0.20500  0.45463  Biso   1.000  H
  H63      1.0000 0.79500  0.67400  0.78797  Biso   1.000  H
  H64      1.0000 0.67400  0.87900  0.62130  Biso   1.000  H
  H65      1.0000 0.12100  0.79500  0.95463  Biso   1.000  H
  H66      1.0000 0.20500  0.32600  0.28797  Biso   1.000  H
  C37      1.0000 0.12230  0.99580  0.11760  Biso   1.000  C
  C38      1.0000 0.00420  0.12650  0.45093  Biso   1.000  C
  C39      1.0000 0.87350  0.87770  0.78427  Biso   1.000  C
  C40      1.0000 0.87770  0.00420  0.61760  Biso   1.000  C
  C41      1.0000 0.99580  0.87350  0.95093  Biso   1.000  C
  C42      1.0000 0.12650  0.12230  0.28427  Biso   1.000  C
  H67      1.0000 0.12580  0.91460  0.11860  Biso   1.000  H
  H68      1.0000 0.08540  0.21120  0.45193  Biso   1.000  H
  H69      1.0000 0.78880  0.87420  0.78527  Biso   1.000  H
  H70      1.0000 0.87420  0.08540  0.61860  Biso   1.000  H
  H71      1.0000 0.91460  0.78880  0.95193  Biso   1.000  H
  H72      1.0000 0.21120  0.12580  0.28527  Biso   1.000  H
  C43      1.0000 0.99550  0.98950  0.11410  Biso   1.000  C
  C44      1.0000 0.01050  0.00600  0.44743  Biso   1.000  C
  C45      1.0000 0.99400  0.00450  0.78077  Biso   1.000  C
  C46      1.0000 0.00450  0.01050  0.61410  Biso   1.000  C
  C47      1.0000 0.98950  0.99400  0.94743  Biso   1.000  C
  C48      1.0000 0.00600  0.99550  0.28077  Biso   1.000  C
  C49      1.0000 0.00070  0.11560  0.11530  Biso   1.000  C
  C50      1.0000 0.88440  0.88510  0.44863  Biso   1.000  C
  C51      1.0000 0.11490  0.99930  0.78197  Biso   1.000  C
  C52      1.0000 0.99930  0.88440  0.61530  Biso   1.000  C
  C53      1.0000 0.11560  0.11490  0.94863  Biso   1.000  C
  C54      1.0000 0.88510  0.00070  0.28197  Biso   1.000  C
  H73      1.0000 0.91910  0.11840  0.11520  Biso   1.000  H
  H74      1.0000 0.88160  0.80070  0.44853  Biso   1.000  H
  H75      1.0000 0.19930  0.08090  0.78187  Biso   1.000  H
  H76      1.0000 0.08090  0.88160  0.61520  Biso   1.000  H
  H77      1.0000 0.11840  0.19930  0.94853  Biso   1.000  H
  H78      1.0000 0.80070  0.91910  0.28187  Biso   1.000  H
  C55      1.0000 0.12530  0.23710  0.11660  Biso   1.000  C
  C56      1.0000 0.76290  0.88820  0.44993  Biso   1.000  C
  C57      1.0000 0.11180  0.87470  0.78327  Biso   1.000  C
  C58      1.0000 0.87470  0.76290  0.61660  Biso   1.000  C
  C59      1.0000 0.23710  0.11180  0.94993  Biso   1.000  C
  C60      1.0000 0.88820  0.12530  0.28327  Biso   1.000  C
  H79      1.0000 0.12450  0.31970  0.11620  Biso   1.000  H
  H80      1.0000 0.68030  0.80480  0.44953  Biso   1.000  H
  H81      1.0000 0.19520  0.87550  0.78287  Biso   1.000  H
  H82      1.0000 0.87550  0.68030  0.61620  Biso   1.000  H
  H83      1.0000 0.31970  0.19520  0.94953  Biso   1.000  H
  H84      1.0000 0.80480  0.12450  0.28287  Biso   1.000  H
  O43      1.0000 0.56780  0.68610  0.25770  Biso   1.000  O
  O44      1.0000 0.31390  0.88170  0.59103  Biso   1.000  O
  O45      1.0000 0.11830  0.43220  0.92437  Biso   1.000  O
  O46      1.0000 0.43220  0.31390  0.75770  Biso   1.000  O
  O47      1.0000 0.68610  0.11830  0.09103  Biso   1.000  O
  O48      1.0000 0.88170  0.56780  0.42437  Biso   1.000  O
  H85      1.0000 0.55100  0.73940  0.23600  Biso   1.000  H
  H86      1.0000 0.26060  0.81160  0.56933  Biso   1.000  H
  H87      1.0000 0.18840  0.44900  0.90267  Biso   1.000  H
  H88      1.0000 0.44900  0.26060  0.73600  Biso   1.000  H
  H89      1.0000 0.73940  0.18840  0.06933  Biso   1.000  H
  H90      1.0000 0.81160  0.55100  0.40267  Biso   1.000  H
  H91      1.0000 0.52160  0.66840  0.29110  Biso   1.000  H
  H92      1.0000 0.33160  0.85320  0.62443  Biso   1.000  H
  H93      1.0000 0.14680  0.47840  0.95777  Biso   1.000  H
  H94      1.0000 0.47840  0.33160  0.79110  Biso   1.000  H
  H95      1.0000 0.66840  0.14680  0.12443  Biso   1.000  H
  H96      1.0000 0.85320  0.52160  0.45777  Biso   1.000  H
  O49      1.0000 0.85500  0.37120  0.03880  Biso   1.000  O
  O50      1.0000 0.62880  0.48380  0.37213  Biso   1.000  O
  O51      1.0000 0.51620  0.14500  0.70547  Biso   1.000  O
  O52      1.0000 0.14500  0.62880  0.53880  Biso   1.000  O
  O53      1.0000 0.37120  0.51620  0.87213  Biso   1.000  O
  O54      1.0000 0.48380  0.85500  0.20547  Biso   1.000  O
  H97      1.0000 0.83450  0.40840  0.00940  Biso   1.000  H
  H98      1.0000 0.59160  0.42610  0.34273  Biso   1.000  H
  H99      1.0000 0.57390  0.16550  0.67607  Biso   1.000  H
  H100     1.0000 0.16550  0.59160  0.50940  Biso   1.000  H
  H101     1.0000 0.40840  0.57390  0.84273  Biso   1.000  H
  H102     1.0000 0.42610  0.83450  0.17607  Biso   1.000  H
  H103     1.0000 0.92690  0.43330  0.05680  Biso   1.000  H
  H104     1.0000 0.56670  0.49360  0.39013  Biso   1.000  H
  H105     1.0000 0.50640  0.07310  0.72347  Biso   1.000  H
  H106     1.0000 0.07310  0.56670  0.55680  Biso   1.000  H
  H107     1.0000 0.43330  0.50640  0.89013  Biso   1.000  H
  H108     1.0000 0.49360  0.92690  0.22347  Biso   1.000  H
