data_image0
_cell_length_a       11.2058
_cell_length_b       11.2058
_cell_length_c       21.5947
_cell_angle_alpha    90
_cell_angle_beta     90
_cell_angle_gamma    120

_symmetry_space_group_name_H-M    "P 1"
_symmetry_int_tables_number       1

loop_
  _symmetry_equiv_pos_as_xyz
  'x, y, z'

loop_
  _atom_site_label
  _atom_site_occupancy
  _atom_site_fract_x
  _atom_site_fract_y
  _atom_site_fract_z
  _atom_site_thermal_displace_type
  _atom_site_B_iso_or_equiv
  _atom_site_type_symbol
  Cu1      1.0000 0.42740  0.00140  0.14730  Biso   1.000  Cu
  Cu2      1.0000 0.42600  0.42740  0.98063  Biso   1.000  Cu
  Cu3      1.0000 0.99860  0.42600  0.81397  Biso   1.000  Cu
  Cu4      1.0000 0.57260  0.99860  0.64730  Biso   1.000  Cu
  Cu5      1.0000 0.57400  0.57260  0.48063  Biso   1.000  Cu
  Cu6      1.0000 0.00140  0.57400  0.31397  Biso   1.000  Cu
  S1       1.0000 0.23210  0.60890  0.12640  Biso   1.000  S
  S2       1.0000 0.62320  0.23210  0.95973  Biso   1.000  S
  S3       1.0000 0.39110  0.62320  0.79307  Biso   1.000  S
  S4       1.0000 0.76790  0.39110  0.62640  Biso   1.000  S
  S5       1.0000 0.37680  0.76790  0.45973  Biso   1.000  S
  S6       1.0000 0.60890  0.37680  0.29307  Biso   1.000  S
  O1       1.0000 0.44030  0.00820  0.23750  Biso   1.000  O
  O2       1.0000 0.43210  0.44030  0.07083  Biso   1.000  O
  O3       1.0000 0.99180  0.43210  0.90417  Biso   1.000  O
  O4       1.0000 0.55970  0.99180  0.73750  Biso   1.000  O
  O5       1.0000 0.56790  0.55970  0.57083  Biso   1.000  O
  O6       1.0000 0.00820  0.56790  0.40417  Biso   1.000  O
  O7       1.0000 0.53660  0.22360  0.12570  Biso   1.000  O
  O8       1.0000 0.31300  0.53660  0.95903  Biso   1.000  O
  O9       1.0000 0.77640  0.31300  0.79237  Biso   1.000  O
  O10      1.0000 0.46340  0.77640  0.62570  Biso   1.000  O
  O11      1.0000 0.68700  0.46340  0.45903  Biso   1.000  O
  O12      1.0000 0.22360  0.68700  0.29237  Biso   1.000  O
  O13      1.0000 0.38070  0.93840  0.06070  Biso   1.000  O
  O14      1.0000 0.44230  0.38070  0.89403  Biso   1.000  O
  O15      1.0000 0.06160  0.44230  0.72737  Biso   1.000  O
  O16      1.0000 0.61930  0.06160  0.56070  Biso   1.000  O
  O17      1.0000 0.55770  0.61930  0.39403  Biso   1.000  O
  O18      1.0000 0.93840  0.55770  0.22737  Biso   1.000  O
  O19      1.0000 0.26250  0.65740  0.06190  Biso   1.000  O
  O20      1.0000 0.60510  0.26250  0.89523  Biso   1.000  O
  O21      1.0000 0.34260  0.60510  0.72857  Biso   1.000  O
  O22      1.0000 0.73750  0.34260  0.56190  Biso   1.000  O
  O23      1.0000 0.39490  0.73750  0.39523  Biso   1.000  O
  O24      1.0000 0.65740  0.39490  0.22857  Biso   1.000  O
  O25      1.0000 0.08370  0.52810  0.13550  Biso   1.000  O
  O26      1.0000 0.55560  0.08370  0.96883  Biso   1.000  O
  O27      1.0000 0.47190  0.55560  0.80217  Biso   1.000  O
  O28      1.0000 0.91630  0.47190  0.63550  Biso   1.000  O
  O29      1.0000 0.44440  0.91630  0.46883  Biso   1.000  O
  O30      1.0000 0.52810  0.44440  0.30217  Biso   1.000  O
  O31      1.0000 0.29220  0.72970  0.16780  Biso   1.000  O
  O32      1.0000 0.56250  0.29220  0.00113  Biso   1.000  O
  O33      1.0000 0.27030  0.56250  0.83447  Biso   1.000  O
  O34      1.0000 0.70780  0.27030  0.66780  Biso   1.000  O
  O35      1.0000 0.43750  0.70780  0.50113  Biso   1.000  O
  O36      1.0000 0.72970  0.43750  0.33447  Biso   1.000  O
  O37      1.0000 0.29330  0.52280  0.13980  Biso   1.000  O
  O38      1.0000 0.77050  0.29330  0.97313  Biso   1.000  O
  O39      1.0000 0.47720  0.77050  0.80647  Biso   1.000  O
  O40      1.0000 0.70670  0.47720  0.63980  Biso   1.000  O
  O41      1.0000 0.22950  0.70670  0.47313  Biso   1.000  O
  O42      1.0000 0.52280  0.22950  0.30647  Biso   1.000  O
  N1       1.0000 0.24610  0.00390  0.15270  Biso   1.000  N
  N2       1.0000 0.24220  0.24610  0.98603  Biso   1.000  N
  N3       1.0000 0.99610  0.24220  0.81937  Biso   1.000  N
  N4       1.0000 0.75390  0.99610  0.65270  Biso   1.000  N
  N5       1.0000 0.75780  0.75390  0.48603  Biso   1.000  N
  N6       1.0000 0.00390  0.75780  0.31937  Biso   1.000  N
  N7       1.0000 0.61080  0.00390  0.14220  Biso   1.000  N
  N8       1.0000 0.60690  0.61080  0.97553  Biso   1.000  N
  N9       1.0000 0.99610  0.60690  0.80887  Biso   1.000  N
  N10      1.0000 0.38920  0.99610  0.64220  Biso   1.000  N
  N11      1.0000 0.39310  0.38920  0.47553  Biso   1.000  N
  N12      1.0000 0.00390  0.39310  0.30887  Biso   1.000  N
  C1       1.0000 0.12440  0.88750  0.15100  Biso   1.000  C
  C2       1.0000 0.23690  0.12440  0.98433  Biso   1.000  C
  C3       1.0000 0.11250  0.23690  0.81767  Biso   1.000  C
  C4       1.0000 0.87560  0.11250  0.65100  Biso   1.000  C
  C5       1.0000 0.76310  0.87560  0.48433  Biso   1.000  C
  C6       1.0000 0.88750  0.76310  0.31767  Biso   1.000  C
  C7       1.0000 0.00050  0.88410  0.14870  Biso   1.000  C
  C8       1.0000 0.11640  0.00050  0.98203  Biso   1.000  C
  C9       1.0000 0.11590  0.11640  0.81537  Biso   1.000  C
  C10      1.0000 0.99950  0.11590  0.64870  Biso   1.000  C
  C11      1.0000 0.88360  0.99950  0.48203  Biso   1.000  C
  C12      1.0000 0.88410  0.88360  0.31537  Biso   1.000  C
  C13      1.0000 0.99650  0.00560  0.14770  Biso   1.000  C
  C14      1.0000 0.99090  0.99650  0.98103  Biso   1.000  C
  C15      1.0000 0.99440  0.99090  0.81437  Biso   1.000  C
  C16      1.0000 0.00350  0.99440  0.64770  Biso   1.000  C
  C17      1.0000 0.00910  0.00350  0.48103  Biso   1.000  C
  C18      1.0000 0.00560  0.00910  0.31437  Biso   1.000  C
  C19      1.0000 0.12110  0.12550  0.15140  Biso   1.000  C
  C20      1.0000 0.99560  0.12110  0.98473  Biso   1.000  C
  C21      1.0000 0.87450  0.99560  0.81807  Biso   1.000  C
  C22      1.0000 0.87890  0.87450  0.65140  Biso   1.000  C
  C23      1.0000 0.00440  0.87890  0.48473  Biso   1.000  C
  C24      1.0000 0.12550  0.00440  0.31807  Biso   1.000  C
  C25      1.0000 0.24260  0.12190  0.15370  Biso   1.000  C
  C26      1.0000 0.12070  0.24260  0.98703  Biso   1.000  C
  C27      1.0000 0.87810  0.12070  0.82037  Biso   1.000  C
  C28      1.0000 0.75740  0.87810  0.65370  Biso   1.000  C
  C29      1.0000 0.87930  0.75740  0.48703  Biso   1.000  C
  C30      1.0000 0.12190  0.87930  0.32037  Biso   1.000  C
  C31      1.0000 0.73160  0.11970  0.14330  Biso   1.000  C
  C32      1.0000 0.61190  0.73160  0.97663  Biso   1.000  C
  C33      1.0000 0.88030  0.61190  0.80997  Biso   1.000  C
  C34      1.0000 0.26840  0.88030  0.64330  Biso   1.000  C
  C35      1.0000 0.38810  0.26840  0.47663  Biso   1.000  C
  C36      1.0000 0.11970  0.38810  0.30997  Biso   1.000  C
  C37      1.0000 0.85670  0.12450  0.14500  Biso   1.000  C
  C38      1.0000 0.73220  0.85670  0.97833  Biso   1.000  C
  C39      1.0000 0.87550  0.73220  0.81167  Biso   1.000  C
  C40      1.0000 0.14330  0.87550  0.64500  Biso   1.000  C
  C41      1.0000 0.26780  0.14330  0.47833  Biso   1.000  C
  C42      1.0000 0.12450  0.26780  0.31167  Biso   1.000  C
  C43      1.0000 0.86380  0.00630  0.14540  Biso   1.000  C
  C44      1.0000 0.85750  0.86380  0.97873  Biso   1.000  C
  C45      1.0000 0.99370  0.85750  0.81207  Biso   1.000  C
  C46      1.0000 0.13620  0.99370  0.64540  Biso   1.000  C
  C47      1.0000 0.14250  0.13620  0.47873  Biso   1.000  C
  C48      1.0000 0.00630  0.14250  0.31207  Biso   1.000  C
  C49      1.0000 0.73870  0.88680  0.14190  Biso   1.000  C
  C50      1.0000 0.85190  0.73870  0.97523  Biso   1.000  C
  C51      1.0000 0.11320  0.85190  0.80857  Biso   1.000  C
  C52      1.0000 0.26130  0.11320  0.64190  Biso   1.000  C
  C53      1.0000 0.14810  0.26130  0.47523  Biso   1.000  C
  C54      1.0000 0.88680  0.14810  0.30857  Biso   1.000  C
  C55      1.0000 0.61850  0.88980  0.13940  Biso   1.000  C
  C56      1.0000 0.72870  0.61850  0.97273  Biso   1.000  C
  C57      1.0000 0.11020  0.72870  0.80607  Biso   1.000  C
  C58      1.0000 0.38150  0.11020  0.63940  Biso   1.000  C
  C59      1.0000 0.27130  0.38150  0.47273  Biso   1.000  C
  C60      1.0000 0.88980  0.27130  0.30607  Biso   1.000  C
  H1       1.0000 0.12370  0.80410  0.15140  Biso   1.000  H
  H2       1.0000 0.31960  0.12370  0.98473  Biso   1.000  H
  H3       1.0000 0.19590  0.31960  0.81807  Biso   1.000  H
  H4       1.0000 0.87630  0.19590  0.65140  Biso   1.000  H
  H5       1.0000 0.68040  0.87630  0.48473  Biso   1.000  H
  H6       1.0000 0.80410  0.68040  0.31807  Biso   1.000  H
  H7       1.0000 0.91880  0.79990  0.14780  Biso   1.000  H
  H8       1.0000 0.11890  0.91880  0.98113  Biso   1.000  H
  H9       1.0000 0.20010  0.11890  0.81447  Biso   1.000  H
  H10      1.0000 0.08120  0.20010  0.64780  Biso   1.000  H
  H11      1.0000 0.88110  0.08120  0.48113  Biso   1.000  H
  H12      1.0000 0.79990  0.88110  0.31447  Biso   1.000  H
  H13      1.0000 0.12380  0.20980  0.15240  Biso   1.000  H
  H14      1.0000 0.91400  0.12380  0.98573  Biso   1.000  H
  H15      1.0000 0.79020  0.91400  0.81907  Biso   1.000  H
  H16      1.0000 0.87620  0.79020  0.65240  Biso   1.000  H
  H17      1.0000 0.08600  0.87620  0.48573  Biso   1.000  H
  H18      1.0000 0.20980  0.08600  0.31907  Biso   1.000  H
  H19      1.0000 0.32550  0.20480  0.15600  Biso   1.000  H
  H20      1.0000 0.12070  0.32550  0.98933  Biso   1.000  H
  H21      1.0000 0.79520  0.12070  0.82267  Biso   1.000  H
  H22      1.0000 0.67450  0.79520  0.65600  Biso   1.000  H
  H23      1.0000 0.87930  0.67450  0.48933  Biso   1.000  H
  H24      1.0000 0.20480  0.87930  0.32267  Biso   1.000  H
  H25      1.0000 0.73170  0.20270  0.14290  Biso   1.000  H
  H26      1.0000 0.52900  0.73170  0.97623  Biso   1.000  H
  H27      1.0000 0.79730  0.52900  0.80957  Biso   1.000  H
  H28      1.0000 0.26830  0.79730  0.64290  Biso   1.000  H
  H29      1.0000 0.47100  0.26830  0.47623  Biso   1.000  H
  H30      1.0000 0.20270  0.47100  0.30957  Biso   1.000  H
  H31      1.0000 0.93750  0.20940  0.14590  Biso   1.000  H
  H32      1.0000 0.72810  0.93750  0.97923  Biso   1.000  H
  H33      1.0000 0.79060  0.72810  0.81257  Biso   1.000  H
  H34      1.0000 0.06250  0.79060  0.64590  Biso   1.000  H
  H35      1.0000 0.27190  0.06250  0.47923  Biso   1.000  H
  H36      1.0000 0.20940  0.27190  0.31257  Biso   1.000  H
  H37      1.0000 0.73590  0.80240  0.14120  Biso   1.000  H
  H38      1.0000 0.93350  0.73590  0.97453  Biso   1.000  H
  H39      1.0000 0.19760  0.93350  0.80787  Biso   1.000  H
  H40      1.0000 0.26410  0.19760  0.64120  Biso   1.000  H
  H41      1.0000 0.06650  0.26410  0.47453  Biso   1.000  H
  H42      1.0000 0.80240  0.06650  0.30787  Biso   1.000  H
  H43      1.0000 0.53670  0.80640  0.13550  Biso   1.000  H
  H44      1.0000 0.73030  0.53670  0.96883  Biso   1.000  H
  H45      1.0000 0.19360  0.73030  0.80217  Biso   1.000  H
  H46      1.0000 0.46330  0.19360  0.63550  Biso   1.000  H
  H47      1.0000 0.26970  0.46330  0.46883  Biso   1.000  H
  H48      1.0000 0.80640  0.26970  0.30217  Biso   1.000  H
  H49      1.0000 0.45630  0.06740  0.24970  Biso   1.000  H
  H50      1.0000 0.38890  0.45630  0.08303  Biso   1.000  H
  H51      1.0000 0.93260  0.38890  0.91637  Biso   1.000  H
  H52      1.0000 0.54370  0.93260  0.74970  Biso   1.000  H
  H53      1.0000 0.61110  0.54370  0.58303  Biso   1.000  H
  H54      1.0000 0.06740  0.61110  0.41637  Biso   1.000  H
  H55      1.0000 0.47180  0.97080  0.24590  Biso   1.000  H
  H56      1.0000 0.50100  0.47180  0.07923  Biso   1.000  H
  H57      1.0000 0.02920  0.50100  0.91257  Biso   1.000  H
  H58      1.0000 0.52820  0.02920  0.74590  Biso   1.000  H
  H59      1.0000 0.49900  0.52820  0.57923  Biso   1.000  H
  H60      1.0000 0.97080  0.49900  0.41257  Biso   1.000  H
  H61      1.0000 0.55320  0.25780  0.09540  Biso   1.000  H
  H62      1.0000 0.29540  0.55320  0.92873  Biso   1.000  H
  H63      1.0000 0.74220  0.29540  0.76207  Biso   1.000  H
  H64      1.0000 0.44680  0.74220  0.59540  Biso   1.000  H
  H65      1.0000 0.70460  0.44680  0.42873  Biso   1.000  H
  H66      1.0000 0.25780  0.70460  0.26207  Biso   1.000  H
  H67      1.0000 0.57500  0.28300  0.15570  Biso   1.000  H
  H68      1.0000 0.29200  0.57500  0.98903  Biso   1.000  H
  H69      1.0000 0.71700  0.29200  0.82237  Biso   1.000  H
  H70      1.0000 0.42500  0.71700  0.65570  Biso   1.000  H
  H71      1.0000 0.70800  0.42500  0.48903  Biso   1.000  H
  H72      1.0000 0.28300  0.70800  0.32237  Biso   1.000  H
  H73      1.0000 0.42210  0.97930  0.03780  Biso   1.000  H
  H74      1.0000 0.44280  0.42210  0.87113  Biso   1.000  H
  H75      1.0000 0.02070  0.44280  0.70447  Biso   1.000  H
  H76      1.0000 0.57790  0.02070  0.53780  Biso   1.000  H
  H77      1.0000 0.55720  0.57790  0.37113  Biso   1.000  H
  H78      1.0000 0.97930  0.55720  0.20447  Biso   1.000  H
  H79      1.0000 0.35800  0.82200  0.05340  Biso   1.000  H
  H80      1.0000 0.53600  0.35800  0.88673  Biso   1.000  H
  H81      1.0000 0.17800  0.53600  0.72007  Biso   1.000  H
  H82      1.0000 0.64200  0.17800  0.55340  Biso   1.000  H
  H83      1.0000 0.46400  0.64200  0.38673  Biso   1.000  H
  H84      1.0000 0.82200  0.46400  0.22007  Biso   1.000  H
  O43      1.0000 0.56620  0.88050  0.29190  Biso   1.000  O
  O44      1.0000 0.68570  0.56620  0.12523  Biso   1.000  O
  O45      1.0000 0.11950  0.68570  0.95857  Biso   1.000  O
  O46      1.0000 0.43380  0.11950  0.79190  Biso   1.000  O
  O47      1.0000 0.31430  0.43380  0.62523  Biso   1.000  O
  O48      1.0000 0.88050  0.31430  0.45857  Biso   1.000  O
  H85      1.0000 0.55510  0.82090  0.27740  Biso   1.000  H
  H86      1.0000 0.73420  0.55510  0.11073  Biso   1.000  H
  H87      1.0000 0.17910  0.73420  0.94407  Biso   1.000  H
  H88      1.0000 0.44490  0.17910  0.77740  Biso   1.000  H
  H89      1.0000 0.26580  0.44490  0.61073  Biso   1.000  H
  H90      1.0000 0.82090  0.26580  0.44407  Biso   1.000  H
  H91      1.0000 0.53800  0.87900  0.31840  Biso   1.000  H
  H92      1.0000 0.65900  0.53800  0.15173  Biso   1.000  H
  H93      1.0000 0.12100  0.65900  0.98507  Biso   1.000  H
  H94      1.0000 0.46200  0.12100  0.81840  Biso   1.000  H
  H95      1.0000 0.34100  0.46200  0.65173  Biso   1.000  H
  H96      1.0000 0.87900  0.34100  0.48507  Biso   1.000  H
  O49      1.0000 0.47620  0.62980  0.24120  Biso   1.000  O
  O50      1.0000 0.84640  0.47620  0.07453  Biso   1.000  O
  O51      1.0000 0.37020  0.84640  0.90787  Biso   1.000  O
  O52      1.0000 0.52380  0.37020  0.74120  Biso   1.000  O
  O53      1.0000 0.15360  0.52380  0.57453  Biso   1.000  O
  O54      1.0000 0.62980  0.15360  0.40787  Biso   1.000  O
  H97      1.0000 0.51630  0.62100  0.22720  Biso   1.000  H
  H98      1.0000 0.89530  0.51630  0.06053  Biso   1.000  H
  H99      1.0000 0.37900  0.89530  0.89387  Biso   1.000  H
  H100     1.0000 0.48370  0.37900  0.72720  Biso   1.000  H
  H101     1.0000 0.10470  0.48370  0.56053  Biso   1.000  H
  H102     1.0000 0.62100  0.10470  0.39387  Biso   1.000  H
  H103     1.0000 0.49100  0.57900  0.25250  Biso   1.000  H
  H104     1.0000 0.91200  0.49100  0.08583  Biso   1.000  H
  H105     1.0000 0.42100  0.91200  0.91917  Biso   1.000  H
  H106     1.0000 0.50900  0.42100  0.75250  Biso   1.000  H
  H107     1.0000 0.08800  0.50900  0.58583  Biso   1.000  H
  H108     1.0000 0.57900  0.08800  0.41917  Biso   1.000  H
