data_image0
_cell_length_a       7.3438
_cell_length_b       14.1201
_cell_length_c       8.2696
_cell_angle_alpha    90
_cell_angle_beta     94.082
_cell_angle_gamma    90

_symmetry_space_group_name_H-M    "P 1"
_symmetry_int_tables_number       1

loop_
  _symmetry_equiv_pos_as_xyz
  'x, y, z'

loop_
  _atom_site_label
  _atom_site_occupancy
  _atom_site_fract_x
  _atom_site_fract_y
  _atom_site_fract_z
  _atom_site_thermal_displace_type
  _atom_site_B_iso_or_equiv
  _atom_site_type_symbol
  Au1      1.0000 0.95611  0.24833  0.73311  Biso   1.000  Au
  Au2      1.0000 0.04389  0.74833  0.76689  Biso   1.000  Au
  Au3      1.0000 0.04389  0.75167  0.26689  Biso   1.000  Au
  Au4      1.0000 0.95611  0.25167  0.23311  Biso   1.000  Au
  Cu1      1.0000 0.50000  0.00000  0.50000  Biso   1.000  Cu
  Cu2      1.0000 0.50000  0.50000  0.00000  Biso   1.000  Cu
  N1       1.0000 0.66120  0.10780  0.58220  Biso   1.000  N
  N2       1.0000 0.33880  0.60780  0.91780  Biso   1.000  N
  N3       1.0000 0.33880  0.89220  0.41780  Biso   1.000  N
  N4       1.0000 0.66120  0.39220  0.08220  Biso   1.000  N
  N5       1.0000 0.26400  0.11880  0.39070  Biso   1.000  N
  N6       1.0000 0.73600  0.61880  0.10930  Biso   1.000  N
  N7       1.0000 0.73600  0.88120  0.60930  Biso   1.000  N
  N8       1.0000 0.26400  0.38120  0.89070  Biso   1.000  N
  N9       1.0000 0.38410  0.99640  0.71250  Biso   1.000  N
  N10      1.0000 0.61590  0.49640  0.78750  Biso   1.000  N
  N11      1.0000 0.61590  0.00360  0.28750  Biso   1.000  N
  N12      1.0000 0.38410  0.50360  0.21250  Biso   1.000  N
  C1       1.0000 0.77300  0.15920  0.63610  Biso   1.000  C
  C2       1.0000 0.22700  0.65920  0.86390  Biso   1.000  C
  C3       1.0000 0.22700  0.84080  0.36390  Biso   1.000  C
  C4       1.0000 0.77300  0.34080  0.13610  Biso   1.000  C
  C5       1.0000 0.14730  0.16590  0.33310  Biso   1.000  C
  C6       1.0000 0.85270  0.66590  0.16690  Biso   1.000  C
  C7       1.0000 0.85270  0.83410  0.66690  Biso   1.000  C
  C8       1.0000 0.14730  0.33410  0.83310  Biso   1.000  C
  C9       1.0000 0.31180  0.07430  0.77560  Biso   1.000  C
  C10      1.0000 0.68820  0.57430  0.72440  Biso   1.000  C
  C11      1.0000 0.68820  0.92570  0.22440  Biso   1.000  C
  C12      1.0000 0.31180  0.42570  0.27560  Biso   1.000  C
  C13      1.0000 0.23840  0.07310  0.92450  Biso   1.000  C
  C14      1.0000 0.76160  0.57310  0.57550  Biso   1.000  C
  C15      1.0000 0.76160  0.92690  0.07550  Biso   1.000  C
  C16      1.0000 0.23840  0.42690  0.42450  Biso   1.000  C
  C17      1.0000 0.23640  0.99210  0.01230  Biso   1.000  C
  C18      1.0000 0.76360  0.49210  0.48770  Biso   1.000  C
  C19      1.0000 0.76360  0.00790  0.98770  Biso   1.000  C
  C20      1.0000 0.23640  0.50790  0.51230  Biso   1.000  C
  C21      1.0000 0.31430  0.91320  0.94920  Biso   1.000  C
  C22      1.0000 0.68570  0.41320  0.55080  Biso   1.000  C
  C23      1.0000 0.68570  0.08680  0.05080  Biso   1.000  C
  C24      1.0000 0.31430  0.58680  0.44920  Biso   1.000  C
  C25      1.0000 0.38350  0.91660  0.79670  Biso   1.000  C
  C26      1.0000 0.61650  0.41660  0.70330  Biso   1.000  C
  C27      1.0000 0.61650  0.08340  0.20330  Biso   1.000  C
  C28      1.0000 0.38350  0.58340  0.29670  Biso   1.000  C
  H1       1.0000 0.31310  0.13200  0.71660  Biso   1.000  H
  H2       1.0000 0.68690  0.63200  0.78340  Biso   1.000  H
  H3       1.0000 0.68690  0.86800  0.28340  Biso   1.000  H
  H4       1.0000 0.31310  0.36800  0.21660  Biso   1.000  H
  H5       1.0000 0.18620  0.12910  0.96490  Biso   1.000  H
  H6       1.0000 0.81380  0.62910  0.53510  Biso   1.000  H
  H7       1.0000 0.81380  0.87090  0.03510  Biso   1.000  H
  H8       1.0000 0.18620  0.37090  0.46490  Biso   1.000  H
  H9       1.0000 0.18460  0.99010  0.11430  Biso   1.000  H
  H10      1.0000 0.81540  0.49010  0.38570  Biso   1.000  H
  H11      1.0000 0.81540  0.00990  0.88570  Biso   1.000  H
  H12      1.0000 0.18460  0.50990  0.61430  Biso   1.000  H
  H13      1.0000 0.32010  0.85590  0.00960  Biso   1.000  H
  H14      1.0000 0.67990  0.35590  0.49040  Biso   1.000  H
  H15      1.0000 0.67990  0.14410  0.99040  Biso   1.000  H
  H16      1.0000 0.32010  0.64410  0.50960  Biso   1.000  H
  H17      1.0000 0.43210  0.86060  0.75280  Biso   1.000  H
  H18      1.0000 0.56790  0.36060  0.74720  Biso   1.000  H
  H19      1.0000 0.56790  0.13940  0.24720  Biso   1.000  H
  H20      1.0000 0.43210  0.63940  0.25280  Biso   1.000  H
