data_image0
_cell_length_a       22.211
_cell_length_b       5.9543
_cell_length_c       18.038
_cell_angle_alpha    90
_cell_angle_beta     90
_cell_angle_gamma    90

_symmetry_space_group_name_H-M    "P 1"
_symmetry_int_tables_number       1

loop_
  _symmetry_equiv_pos_as_xyz
  'x, y, z'

loop_
  _atom_site_label
  _atom_site_occupancy
  _atom_site_fract_x
  _atom_site_fract_y
  _atom_site_fract_z
  _atom_site_thermal_displace_type
  _atom_site_B_iso_or_equiv
  _atom_site_type_symbol
  Cu1      1.0000 0.37145  0.30016  0.20812  Biso   1.000  Cu
  Cu2      1.0000 0.62855  0.69984  0.70812  Biso   1.000  Cu
  Cu3      1.0000 0.87145  0.19984  0.20812  Biso   1.000  Cu
  Cu4      1.0000 0.12855  0.80016  0.70812  Biso   1.000  Cu
  C1       1.0000 0.49630  0.41250  0.24630  Biso   1.000  C
  C2       1.0000 0.50370  0.58750  0.74630  Biso   1.000  C
  C3       1.0000 0.99630  0.08750  0.24630  Biso   1.000  C
  C4       1.0000 0.00370  0.91250  0.74630  Biso   1.000  C
  H1       1.0000 0.48910  0.53800  0.21500  Biso   1.000  H
  H2       1.0000 0.51090  0.46200  0.71500  Biso   1.000  H
  H3       1.0000 0.98910  0.96200  0.21500  Biso   1.000  H
  H4       1.0000 0.01090  0.03800  0.71500  Biso   1.000  H
  C5       1.0000 0.55330  0.38700  0.27810  Biso   1.000  C
  C6       1.0000 0.44670  0.61300  0.77810  Biso   1.000  C
  C7       1.0000 0.05330  0.11300  0.27810  Biso   1.000  C
  C8       1.0000 0.94670  0.88700  0.77810  Biso   1.000  C
  C9       1.0000 0.56340  0.20080  0.32130  Biso   1.000  C
  C10      1.0000 0.43660  0.79920  0.82130  Biso   1.000  C
  C11      1.0000 0.06340  0.29920  0.32130  Biso   1.000  C
  C12      1.0000 0.93660  0.70080  0.82130  Biso   1.000  C
  H5       1.0000 0.60200  0.17520  0.34240  Biso   1.000  H
  H6       1.0000 0.39800  0.82480  0.84240  Biso   1.000  H
  H7       1.0000 0.10200  0.32480  0.34240  Biso   1.000  H
  H8       1.0000 0.89800  0.67520  0.84240  Biso   1.000  H
  C13      1.0000 0.51710  0.05160  0.33370  Biso   1.000  C
  C14      1.0000 0.48290  0.94840  0.83370  Biso   1.000  C
  C15      1.0000 0.01710  0.44840  0.33370  Biso   1.000  C
  C16      1.0000 0.98290  0.55160  0.83370  Biso   1.000  C
  H9       1.0000 0.52290  0.92460  0.36480  Biso   1.000  H
  H10      1.0000 0.47710  0.07540  0.86480  Biso   1.000  H
  H11      1.0000 0.02290  0.57540  0.36480  Biso   1.000  H
  H12      1.0000 0.97710  0.42460  0.86480  Biso   1.000  H
  C17      1.0000 0.46220  0.08960  0.30030  Biso   1.000  C
  C18      1.0000 0.53780  0.91040  0.80030  Biso   1.000  C
  C19      1.0000 0.96220  0.41040  0.30030  Biso   1.000  C
  C20      1.0000 0.03780  0.58960  0.80030  Biso   1.000  C
  H13      1.0000 0.43070  0.98410  0.30770  Biso   1.000  H
  H14      1.0000 0.56930  0.01590  0.80770  Biso   1.000  H
  H15      1.0000 0.93070  0.51590  0.30770  Biso   1.000  H
  H16      1.0000 0.06930  0.48410  0.80770  Biso   1.000  H
  C21      1.0000 0.60270  0.54770  0.26160  Biso   1.000  C
  C22      1.0000 0.39730  0.45230  0.76160  Biso   1.000  C
  C23      1.0000 0.10270  0.95230  0.26160  Biso   1.000  C
  C24      1.0000 0.89730  0.04770  0.76160  Biso   1.000  C
  H17      1.0000 0.64110  0.52710  0.28350  Biso   1.000  H
  H18      1.0000 0.35890  0.47290  0.78350  Biso   1.000  H
  H19      1.0000 0.14110  0.97290  0.28350  Biso   1.000  H
  H20      1.0000 0.85890  0.02710  0.78350  Biso   1.000  H
  C25      1.0000 0.63810  0.00840  0.16860  Biso   1.000  C
  C26      1.0000 0.36190  0.99160  0.66860  Biso   1.000  C
  C27      1.0000 0.13810  0.49160  0.16860  Biso   1.000  C
  C28      1.0000 0.86190  0.50840  0.66860  Biso   1.000  C
  H21      1.0000 0.59880  0.03710  0.14990  Biso   1.000  H
  H22      1.0000 0.40120  0.96290  0.64990  Biso   1.000  H
  H23      1.0000 0.09880  0.46290  0.14990  Biso   1.000  H
  H24      1.0000 0.90120  0.53710  0.64990  Biso   1.000  H
  C29      1.0000 0.74510  0.12220  0.17570  Biso   1.000  C
  C30      1.0000 0.25490  0.87780  0.67570  Biso   1.000  C
  C31      1.0000 0.24510  0.37780  0.17570  Biso   1.000  C
  C32      1.0000 0.75490  0.62220  0.67570  Biso   1.000  C
  H25      1.0000 0.75190  0.99150  0.20480  Biso   1.000  H
  H26      1.0000 0.24810  0.00850  0.70480  Biso   1.000  H
  H27      1.0000 0.25190  0.50850  0.20480  Biso   1.000  H
  H28      1.0000 0.74810  0.49150  0.70480  Biso   1.000  H
  C33      1.0000 0.68720  0.16340  0.14970  Biso   1.000  C
  C34      1.0000 0.31280  0.83660  0.64970  Biso   1.000  C
  C35      1.0000 0.18720  0.33660  0.14970  Biso   1.000  C
  C36      1.0000 0.81280  0.66340  0.64970  Biso   1.000  C
  C37      1.0000 0.67740  0.34920  0.10820  Biso   1.000  C
  C38      1.0000 0.32260  0.65080  0.60820  Biso   1.000  C
  C39      1.0000 0.17740  0.15080  0.10820  Biso   1.000  C
  C40      1.0000 0.82260  0.84920  0.60820  Biso   1.000  C
  H29      1.0000 0.63800  0.38200  0.09100  Biso   1.000  H
  H30      1.0000 0.36200  0.61800  0.59100  Biso   1.000  H
  H31      1.0000 0.13800  0.11800  0.09100  Biso   1.000  H
  H32      1.0000 0.86200  0.88200  0.59100  Biso   1.000  H
  C41      1.0000 0.72420  0.49060  0.09050  Biso   1.000  C
  C42      1.0000 0.27580  0.50940  0.59050  Biso   1.000  C
  C43      1.0000 0.22420  0.00940  0.09050  Biso   1.000  C
  C44      1.0000 0.77580  0.99060  0.59050  Biso   1.000  C
  H33      1.0000 0.71840  0.61960  0.06040  Biso   1.000  H
  H34      1.0000 0.28160  0.38040  0.56040  Biso   1.000  H
  H35      1.0000 0.21840  0.88040  0.06040  Biso   1.000  H
  H36      1.0000 0.78160  0.11960  0.56040  Biso   1.000  H
  C45      1.0000 0.78050  0.43580  0.11890  Biso   1.000  C
  C46      1.0000 0.21950  0.56420  0.61890  Biso   1.000  C
  C47      1.0000 0.28050  0.06420  0.11890  Biso   1.000  C
  C48      1.0000 0.71950  0.93580  0.61890  Biso   1.000  C
  H37      1.0000 0.81340  0.53130  0.10720  Biso   1.000  H
  H38      1.0000 0.18660  0.46870  0.60720  Biso   1.000  H
  H39      1.0000 0.31340  0.96870  0.10720  Biso   1.000  H
  H40      1.0000 0.68660  0.03130  0.60720  Biso   1.000  H
  C49      1.0000 0.44400  0.13920  0.09360  Biso   1.000  C
  C50      1.0000 0.55600  0.86080  0.59360  Biso   1.000  C
  C51      1.0000 0.94400  0.36080  0.09360  Biso   1.000  C
  C52      1.0000 0.05600  0.63920  0.59360  Biso   1.000  C
  C53      1.0000 0.49360  0.18890  0.03620  Biso   1.000  C
  C54      1.0000 0.50640  0.81110  0.53620  Biso   1.000  C
  C55      1.0000 0.99360  0.31110  0.03620  Biso   1.000  C
  C56      1.0000 0.00640  0.68890  0.53620  Biso   1.000  C
  C57      1.0000 0.49810  0.39680  0.00460  Biso   1.000  C
  C58      1.0000 0.50190  0.60320  0.50460  Biso   1.000  C
  C59      1.0000 0.99810  0.10320  0.00460  Biso   1.000  C
  C60      1.0000 0.00190  0.89680  0.50460  Biso   1.000  C
  H41      1.0000 0.46950  0.50990  0.01640  Biso   1.000  H
  H42      1.0000 0.53050  0.49010  0.51640  Biso   1.000  H
  H43      1.0000 0.96950  0.99010  0.01640  Biso   1.000  H
  H44      1.0000 0.03050  0.00990  0.51640  Biso   1.000  H
  C61      1.0000 0.54510  0.44350  0.95460  Biso   1.000  C
  C62      1.0000 0.45490  0.55650  0.45460  Biso   1.000  C
  C63      1.0000 0.04510  0.05650  0.95460  Biso   1.000  C
  C64      1.0000 0.95490  0.94350  0.45460  Biso   1.000  C
  H45      1.0000 0.54770  0.58740  0.93210  Biso   1.000  H
  H46      1.0000 0.45230  0.41260  0.43210  Biso   1.000  H
  H47      1.0000 0.04770  0.91260  0.93210  Biso   1.000  H
  H48      1.0000 0.95230  0.08740  0.43210  Biso   1.000  H
  C65      1.0000 0.58710  0.28300  0.93820  Biso   1.000  C
  C66      1.0000 0.41290  0.71700  0.43820  Biso   1.000  C
  C67      1.0000 0.08710  0.21700  0.93820  Biso   1.000  C
  C68      1.0000 0.91290  0.78300  0.43820  Biso   1.000  C
  H49      1.0000 0.61880  0.31480  0.90430  Biso   1.000  H
  H50      1.0000 0.38120  0.68520  0.40430  Biso   1.000  H
  H51      1.0000 0.11880  0.18520  0.90430  Biso   1.000  H
  H52      1.0000 0.88120  0.81480  0.40430  Biso   1.000  H
  C69      1.0000 0.58330  0.08010  0.97040  Biso   1.000  C
  C70      1.0000 0.41670  0.91990  0.47040  Biso   1.000  C
  C71      1.0000 0.08330  0.41990  0.97040  Biso   1.000  C
  C72      1.0000 0.91670  0.58010  0.47040  Biso   1.000  C
  H53      1.0000 0.61310  0.97010  0.96010  Biso   1.000  H
  H54      1.0000 0.38690  0.02990  0.46010  Biso   1.000  H
  H55      1.0000 0.11310  0.52990  0.96010  Biso   1.000  H
  H56      1.0000 0.88690  0.47010  0.46010  Biso   1.000  H
  C73      1.0000 0.53600  0.02770  0.01910  Biso   1.000  C
  C74      1.0000 0.46400  0.97230  0.51910  Biso   1.000  C
  C75      1.0000 0.03600  0.47230  0.01910  Biso   1.000  C
  C76      1.0000 0.96400  0.52770  0.51910  Biso   1.000  C
  H57      1.0000 0.53330  0.88190  0.04020  Biso   1.000  H
  H58      1.0000 0.46670  0.11810  0.54020  Biso   1.000  H
  H59      1.0000 0.03330  0.61810  0.04020  Biso   1.000  H
  H60      1.0000 0.96670  0.38190  0.54020  Biso   1.000  H
  C77      1.0000 0.30580  0.13520  0.33000  Biso   1.000  C
  C78      1.0000 0.69420  0.86480  0.83000  Biso   1.000  C
  C79      1.0000 0.80580  0.36480  0.33000  Biso   1.000  C
  C80      1.0000 0.19420  0.63520  0.83000  Biso   1.000  C
  C81      1.0000 0.25640  0.17860  0.38610  Biso   1.000  C
  C82      1.0000 0.74360  0.82140  0.88610  Biso   1.000  C
  C83      1.0000 0.75640  0.32140  0.38610  Biso   1.000  C
  C84      1.0000 0.24360  0.67860  0.88610  Biso   1.000  C
  C85      1.0000 0.23050  0.38560  0.39180  Biso   1.000  C
  C86      1.0000 0.76950  0.61440  0.89180  Biso   1.000  C
  C87      1.0000 0.73050  0.11440  0.39180  Biso   1.000  C
  C88      1.0000 0.26950  0.88560  0.89180  Biso   1.000  C
  H61      1.0000 0.24580  0.50670  0.36320  Biso   1.000  H
  H62      1.0000 0.75420  0.49330  0.86320  Biso   1.000  H
  H63      1.0000 0.74580  0.99330  0.36320  Biso   1.000  H
  H64      1.0000 0.25420  0.00670  0.86320  Biso   1.000  H
  C89      1.0000 0.18110  0.42210  0.43960  Biso   1.000  C
  C90      1.0000 0.81890  0.57790  0.93960  Biso   1.000  C
  C91      1.0000 0.68110  0.07790  0.43960  Biso   1.000  C
  C92      1.0000 0.31890  0.92210  0.93960  Biso   1.000  C
  H65      1.0000 0.16180  0.56420  0.44190  Biso   1.000  H
  H66      1.0000 0.83820  0.43580  0.94190  Biso   1.000  H
  H67      1.0000 0.66180  0.93580  0.44190  Biso   1.000  H
  H68      1.0000 0.33820  0.06420  0.94190  Biso   1.000  H
  C93      1.0000 0.16150  0.24210  0.48350  Biso   1.000  C
  C94      1.0000 0.83850  0.75790  0.98350  Biso   1.000  C
  C95      1.0000 0.66150  0.25790  0.48350  Biso   1.000  C
  C96      1.0000 0.33850  0.74210  0.98350  Biso   1.000  C
  H69      1.0000 0.12860  0.26350  0.51640  Biso   1.000  H
  H70      1.0000 0.87140  0.73650  0.01640  Biso   1.000  H
  H71      1.0000 0.62860  0.23650  0.51640  Biso   1.000  H
  H72      1.0000 0.37140  0.76350  0.01640  Biso   1.000  H
  C97      1.0000 0.18850  0.03750  0.47980  Biso   1.000  C
  C98      1.0000 0.81150  0.96250  0.97980  Biso   1.000  C
  C99      1.0000 0.68850  0.46250  0.47980  Biso   1.000  C
  C100     1.0000 0.31150  0.53750  0.97980  Biso   1.000  C
  H73      1.0000 0.17490  0.91660  0.50980  Biso   1.000  H
  H74      1.0000 0.82510  0.08340  0.00980  Biso   1.000  H
  H75      1.0000 0.67490  0.58340  0.50980  Biso   1.000  H
  H76      1.0000 0.32510  0.41660  0.00980  Biso   1.000  H
  C101     1.0000 0.23590  0.00940  0.43180  Biso   1.000  C
  C102     1.0000 0.76410  0.99060  0.93180  Biso   1.000  C
  C103     1.0000 0.73590  0.49060  0.43180  Biso   1.000  C
  C104     1.0000 0.26410  0.50940  0.93180  Biso   1.000  C
  H77      1.0000 0.25540  0.86750  0.43010  Biso   1.000  H
  H78      1.0000 0.74460  0.13250  0.93010  Biso   1.000  H
  H79      1.0000 0.75540  0.63250  0.43010  Biso   1.000  H
  H80      1.0000 0.24460  0.36750  0.93010  Biso   1.000  H
  N1       1.0000 0.45190  0.26740  0.25830  Biso   1.000  N
  N2       1.0000 0.54810  0.73260  0.75830  Biso   1.000  N
  N3       1.0000 0.95190  0.23260  0.25830  Biso   1.000  N
  N4       1.0000 0.04810  0.76740  0.75830  Biso   1.000  N
  N5       1.0000 0.59370  0.71390  0.21780  Biso   1.000  N
  N6       1.0000 0.40630  0.28610  0.71780  Biso   1.000  N
  N7       1.0000 0.09370  0.78610  0.21780  Biso   1.000  N
  N8       1.0000 0.90630  0.21390  0.71780  Biso   1.000  N
  N9       1.0000 0.64650  0.83640  0.20960  Biso   1.000  N
  N10      1.0000 0.35350  0.16360  0.70960  Biso   1.000  N
  N11      1.0000 0.14650  0.66360  0.20960  Biso   1.000  N
  N12      1.0000 0.85350  0.33640  0.70960  Biso   1.000  N
  N13      1.0000 0.79120  0.25680  0.16190  Biso   1.000  N
  N14      1.0000 0.20880  0.74320  0.66190  Biso   1.000  N
  N15      1.0000 0.29120  0.24320  0.16190  Biso   1.000  N
  N16      1.0000 0.70880  0.75680  0.66190  Biso   1.000  N
  O1       1.0000 0.41220  0.30000  0.11200  Biso   1.000  O
  O2       1.0000 0.58780  0.70000  0.61200  Biso   1.000  O
  O3       1.0000 0.91220  0.20000  0.11200  Biso   1.000  O
  O4       1.0000 0.08780  0.80000  0.61200  Biso   1.000  O
  O5       1.0000 0.44070  0.94110  0.11660  Biso   1.000  O
  O6       1.0000 0.55930  0.05890  0.61660  Biso   1.000  O
  O7       1.0000 0.94070  0.55890  0.11660  Biso   1.000  O
  O8       1.0000 0.05930  0.44110  0.61660  Biso   1.000  O
  O9       1.0000 0.33010  0.31030  0.30400  Biso   1.000  O
  O10      1.0000 0.66990  0.68970  0.80400  Biso   1.000  O
  O11      1.0000 0.83010  0.18970  0.30400  Biso   1.000  O
  O12      1.0000 0.16990  0.81030  0.80400  Biso   1.000  O
  O13      1.0000 0.31680  0.93950  0.31180  Biso   1.000  O
  O14      1.0000 0.68320  0.06050  0.81180  Biso   1.000  O
  O15      1.0000 0.81680  0.56050  0.31180  Biso   1.000  O
  O16      1.0000 0.18320  0.43950  0.81180  Biso   1.000  O
  O17      1.0000 0.36890  0.67430  0.20380  Biso   1.000  O
  O18      1.0000 0.63110  0.32570  0.70380  Biso   1.000  O
  O19      1.0000 0.86890  0.82570  0.20380  Biso   1.000  O
  O20      1.0000 0.13110  0.17430  0.70380  Biso   1.000  O
  H81      1.0000 0.34400  0.75900  0.22900  Biso   1.000  H
  H82      1.0000 0.65600  0.24100  0.72900  Biso   1.000  H
  H83      1.0000 0.84400  0.74100  0.22900  Biso   1.000  H
  H84      1.0000 0.15600  0.25900  0.72900  Biso   1.000  H
  H85      1.0000 0.38900  0.77600  0.17900  Biso   1.000  H
  H86      1.0000 0.61100  0.22400  0.67900  Biso   1.000  H
  H87      1.0000 0.88900  0.72400  0.17900  Biso   1.000  H
  H88      1.0000 0.11100  0.27600  0.67900  Biso   1.000  H
