data_image0
_cell_length_a       8.8148
_cell_length_b       8.7643
_cell_length_c       11.7758
_cell_angle_alpha    90
_cell_angle_beta     102.699
_cell_angle_gamma    90

_symmetry_space_group_name_H-M    "P 1"
_symmetry_int_tables_number       1

loop_
  _symmetry_equiv_pos_as_xyz
  'x, y, z'

loop_
  _atom_site_label
  _atom_site_occupancy
  _atom_site_fract_x
  _atom_site_fract_y
  _atom_site_fract_z
  _atom_site_thermal_displace_type
  _atom_site_B_iso_or_equiv
  _atom_site_type_symbol
  Cu1      1.0000 0.50000  0.00000  0.50000  Biso   1.000  Cu
  Cu2      1.0000 0.00000  0.50000  0.00000  Biso   1.000  Cu
  C1       1.0000 0.21810  0.15560  0.53920  Biso   1.000  C
  C2       1.0000 0.28190  0.65560  0.96080  Biso   1.000  C
  C3       1.0000 0.78190  0.84440  0.46080  Biso   1.000  C
  C4       1.0000 0.71810  0.34440  0.03920  Biso   1.000  C
  H1       1.0000 0.24580  0.22830  0.48750  Biso   1.000  H
  H2       1.0000 0.25420  0.72830  0.01250  Biso   1.000  H
  H3       1.0000 0.75420  0.77170  0.51250  Biso   1.000  H
  H4       1.0000 0.74580  0.27170  0.98750  Biso   1.000  H
  C5       1.0000 0.08940  0.18550  0.58640  Biso   1.000  C
  C6       1.0000 0.41060  0.68550  0.91360  Biso   1.000  C
  C7       1.0000 0.91060  0.81450  0.41360  Biso   1.000  C
  C8       1.0000 0.58940  0.31450  0.08640  Biso   1.000  C
  C9       1.0000 0.04570  0.07460  0.65700  Biso   1.000  C
  C10      1.0000 0.45430  0.57460  0.84300  Biso   1.000  C
  C11      1.0000 0.95430  0.92540  0.34300  Biso   1.000  C
  C12      1.0000 0.54570  0.42540  0.15700  Biso   1.000  C
  H5       1.0000 0.95600  0.08880  0.68810  Biso   1.000  H
  H6       1.0000 0.54400  0.58880  0.81190  Biso   1.000  H
  H7       1.0000 0.04400  0.91120  0.31190  Biso   1.000  H
  H8       1.0000 0.45600  0.41120  0.18810  Biso   1.000  H
  C13      1.0000 0.13300  0.94420  0.68140  Biso   1.000  C
  C14      1.0000 0.36700  0.44420  0.81860  Biso   1.000  C
  C15      1.0000 0.86700  0.05580  0.31860  Biso   1.000  C
  C16      1.0000 0.63300  0.55580  0.18140  Biso   1.000  C
  H9       1.0000 0.10520  0.86740  0.73010  Biso   1.000  H
  H10      1.0000 0.39480  0.36740  0.76990  Biso   1.000  H
  H11      1.0000 0.89480  0.13260  0.26990  Biso   1.000  H
  H12      1.0000 0.60520  0.63260  0.23010  Biso   1.000  H
  C17      1.0000 0.26180  0.92690  0.63410  Biso   1.000  C
  C18      1.0000 0.23820  0.42690  0.86590  Biso   1.000  C
  C19      1.0000 0.73820  0.07310  0.36590  Biso   1.000  C
  C20      1.0000 0.76180  0.57310  0.13410  Biso   1.000  C
  H13      1.0000 0.32340  0.83760  0.65270  Biso   1.000  H
  H14      1.0000 0.17660  0.33760  0.84730  Biso   1.000  H
  H15      1.0000 0.67660  0.16240  0.34730  Biso   1.000  H
  H16      1.0000 0.82340  0.66240  0.15270  Biso   1.000  H
  C21      1.0000 0.00350  0.32960  0.56270  Biso   1.000  C
  C22      1.0000 0.49650  0.82960  0.93730  Biso   1.000  C
  C23      1.0000 0.99650  0.67040  0.43730  Biso   1.000  C
  C24      1.0000 0.50350  0.17040  0.06270  Biso   1.000  C
  H17      1.0000 0.91130  0.34350  0.59080  Biso   1.000  H
  H18      1.0000 0.58870  0.84350  0.90920  Biso   1.000  H
  H19      1.0000 0.08870  0.65650  0.40920  Biso   1.000  H
  H20      1.0000 0.41130  0.15650  0.09080  Biso   1.000  H
  C25      1.0000 0.57940  0.31350  0.58250  Biso   1.000  C
  C26      1.0000 0.92060  0.81350  0.91750  Biso   1.000  C
  C27      1.0000 0.42060  0.68650  0.41750  Biso   1.000  C
  C28      1.0000 0.07940  0.18650  0.08250  Biso   1.000  C
  C29      1.0000 0.56110  0.48020  0.55090  Biso   1.000  C
  C30      1.0000 0.93890  0.98020  0.94910  Biso   1.000  C
  C31      1.0000 0.43890  0.51980  0.44910  Biso   1.000  C
  C32      1.0000 0.06110  0.01980  0.05090  Biso   1.000  C
  H21      1.0000 0.54060  0.53630  0.61890  Biso   1.000  H
  H22      1.0000 0.95940  0.03630  0.88110  Biso   1.000  H
  H23      1.0000 0.45940  0.46370  0.38110  Biso   1.000  H
  H24      1.0000 0.04060  0.96370  0.11890  Biso   1.000  H
  H25      1.0000 0.66150  0.51760  0.53710  Biso   1.000  H
  H26      1.0000 0.83850  0.01760  0.96290  Biso   1.000  H
  H27      1.0000 0.33850  0.48240  0.46290  Biso   1.000  H
  H28      1.0000 0.16150  0.98240  0.03710  Biso   1.000  H
  N1       1.0000 0.30380  0.03020  0.56320  Biso   1.000  N
  N2       1.0000 0.19620  0.53020  0.93680  Biso   1.000  N
  N3       1.0000 0.69620  0.96980  0.43680  Biso   1.000  N
  N4       1.0000 0.80380  0.46980  0.06320  Biso   1.000  N
  N5       1.0000 0.04950  0.43580  0.50560  Biso   1.000  N
  N6       1.0000 0.45050  0.93580  0.99440  Biso   1.000  N
  N7       1.0000 0.95050  0.56420  0.49440  Biso   1.000  N
  N8       1.0000 0.54950  0.06420  0.00560  Biso   1.000  N
  O1       1.0000 0.53030  0.22170  0.50060  Biso   1.000  O
  O2       1.0000 0.96970  0.72170  0.99940  Biso   1.000  O
  O3       1.0000 0.46970  0.77830  0.49940  Biso   1.000  O
  O4       1.0000 0.03030  0.27830  0.00060  Biso   1.000  O
  O5       1.0000 0.64240  0.27780  0.68400  Biso   1.000  O
  O6       1.0000 0.85760  0.77780  0.81600  Biso   1.000  O
  O7       1.0000 0.35760  0.72220  0.31600  Biso   1.000  O
  O8       1.0000 0.14240  0.22220  0.18400  Biso   1.000  O
  O9       1.0000 0.37220  0.03320  0.30530  Biso   1.000  O
  O10      1.0000 0.12780  0.53320  0.19470  Biso   1.000  O
  O11      1.0000 0.62780  0.96680  0.69470  Biso   1.000  O
  O12      1.0000 0.87220  0.46680  0.80530  Biso   1.000  O
  H29      1.0000 0.35400  0.95500  0.29600  Biso   1.000  H
  H30      1.0000 0.14600  0.45500  0.20400  Biso   1.000  H
  H31      1.0000 0.64600  0.04500  0.70400  Biso   1.000  H
  H32      1.0000 0.85400  0.54500  0.79600  Biso   1.000  H
  H33      1.0000 0.30800  0.08000  0.27400  Biso   1.000  H
  H34      1.0000 0.19200  0.58000  0.22600  Biso   1.000  H
  H35      1.0000 0.69200  0.92000  0.72600  Biso   1.000  H
  H36      1.0000 0.80800  0.42000  0.77400  Biso   1.000  H
