data_image0
_cell_length_a       18.91
_cell_length_b       10.508
_cell_length_c       15.336
_cell_angle_alpha    90
_cell_angle_beta     90
_cell_angle_gamma    90

_symmetry_space_group_name_H-M    "P 1"
_symmetry_int_tables_number       1

loop_
  _symmetry_equiv_pos_as_xyz
  'x, y, z'

loop_
  _atom_site_label
  _atom_site_occupancy
  _atom_site_fract_x
  _atom_site_fract_y
  _atom_site_fract_z
  _atom_site_thermal_displace_type
  _atom_site_B_iso_or_equiv
  _atom_site_type_symbol
  Cu1      1.0000 0.26518  0.22465  0.71572  Biso   1.000  Cu
  Cu2      1.0000 0.23482  0.27535  0.21572  Biso   1.000  Cu
  Cu3      1.0000 0.76518  0.27535  0.28428  Biso   1.000  Cu
  Cu4      1.0000 0.73482  0.22465  0.78428  Biso   1.000  Cu
  Cu5      1.0000 0.73482  0.77535  0.28428  Biso   1.000  Cu
  Cu6      1.0000 0.76518  0.72465  0.78428  Biso   1.000  Cu
  Cu7      1.0000 0.23482  0.72465  0.71572  Biso   1.000  Cu
  Cu8      1.0000 0.26518  0.77535  0.21572  Biso   1.000  Cu
  O1       1.0000 0.04921  0.92460  0.62317  Biso   1.000  O
  O2       1.0000 0.45079  0.57540  0.12317  Biso   1.000  O
  O3       1.0000 0.54921  0.57540  0.37683  Biso   1.000  O
  O4       1.0000 0.95079  0.92460  0.87683  Biso   1.000  O
  O5       1.0000 0.95079  0.07540  0.37683  Biso   1.000  O
  O6       1.0000 0.54921  0.42460  0.87683  Biso   1.000  O
  O7       1.0000 0.45079  0.42460  0.62317  Biso   1.000  O
  O8       1.0000 0.04921  0.07540  0.12317  Biso   1.000  O
  O9       1.0000 0.13976  0.22070  0.82939  Biso   1.000  O
  O10      1.0000 0.36024  0.27930  0.32939  Biso   1.000  O
  O11      1.0000 0.63976  0.27930  0.17061  Biso   1.000  O
  O12      1.0000 0.86024  0.22070  0.67061  Biso   1.000  O
  O13      1.0000 0.86024  0.77930  0.17061  Biso   1.000  O
  O14      1.0000 0.63976  0.72070  0.67061  Biso   1.000  O
  O15      1.0000 0.36024  0.72070  0.82939  Biso   1.000  O
  O16      1.0000 0.13976  0.77930  0.32939  Biso   1.000  O
  O17      1.0000 0.17297  0.29923  0.70129  Biso   1.000  O
  O18      1.0000 0.32703  0.20077  0.20129  Biso   1.000  O
  O19      1.0000 0.67297  0.20077  0.29871  Biso   1.000  O
  O20      1.0000 0.82703  0.29923  0.79871  Biso   1.000  O
  O21      1.0000 0.82703  0.70077  0.29871  Biso   1.000  O
  O22      1.0000 0.67297  0.79923  0.79871  Biso   1.000  O
  O23      1.0000 0.32703  0.79923  0.70129  Biso   1.000  O
  O24      1.0000 0.17297  0.70077  0.20129  Biso   1.000  O
  O25      1.0000 0.18209  0.53265  0.80470  Biso   1.000  O
  O26      1.0000 0.31791  0.96735  0.30470  Biso   1.000  O
  O27      1.0000 0.68209  0.96735  0.19530  Biso   1.000  O
  O28      1.0000 0.81791  0.53265  0.69530  Biso   1.000  O
  O29      1.0000 0.81791  0.46735  0.19530  Biso   1.000  O
  O30      1.0000 0.68209  0.03265  0.69530  Biso   1.000  O
  O31      1.0000 0.31791  0.03265  0.80470  Biso   1.000  O
  O32      1.0000 0.18209  0.46735  0.30470  Biso   1.000  O
  O33      1.0000 0.13566  0.67296  0.71320  Biso   1.000  O
  O34      1.0000 0.36434  0.82704  0.21320  Biso   1.000  O
  O35      1.0000 0.63566  0.82704  0.28680  Biso   1.000  O
  O36      1.0000 0.86434  0.67296  0.78680  Biso   1.000  O
  O37      1.0000 0.86434  0.32704  0.28680  Biso   1.000  O
  O38      1.0000 0.63566  0.17296  0.78680  Biso   1.000  O
  O39      1.0000 0.36434  0.17296  0.71320  Biso   1.000  O
  O40      1.0000 0.13566  0.32704  0.21320  Biso   1.000  O
  O41      1.0000 0.28606  0.35070  0.80523  Biso   1.000  O
  O42      1.0000 0.21394  0.14930  0.30523  Biso   1.000  O
  O43      1.0000 0.78606  0.14930  0.19477  Biso   1.000  O
  O44      1.0000 0.71394  0.35070  0.69477  Biso   1.000  O
  O45      1.0000 0.71394  0.64930  0.19477  Biso   1.000  O
  O46      1.0000 0.78606  0.85070  0.69477  Biso   1.000  O
  O47      1.0000 0.21394  0.85070  0.80523  Biso   1.000  O
  O48      1.0000 0.28606  0.64930  0.30523  Biso   1.000  O
  H1       1.0000 0.33160  0.37100  0.80440  Biso   1.000  H
  H2       1.0000 0.16840  0.12900  0.30440  Biso   1.000  H
  H3       1.0000 0.83160  0.12900  0.19560  Biso   1.000  H
  H4       1.0000 0.66840  0.37100  0.69560  Biso   1.000  H
  H5       1.0000 0.66840  0.62900  0.19560  Biso   1.000  H
  H6       1.0000 0.83160  0.87100  0.69560  Biso   1.000  H
  H7       1.0000 0.16840  0.87100  0.80440  Biso   1.000  H
  H8       1.0000 0.33160  0.62900  0.30440  Biso   1.000  H
  H9       1.0000 0.27570  0.32080  0.85790  Biso   1.000  H
  H10      1.0000 0.22430  0.17920  0.35790  Biso   1.000  H
  H11      1.0000 0.77570  0.17920  0.14210  Biso   1.000  H
  H12      1.0000 0.72430  0.32080  0.64210  Biso   1.000  H
  H13      1.0000 0.72430  0.67920  0.14210  Biso   1.000  H
  H14      1.0000 0.77570  0.82080  0.64210  Biso   1.000  H
  H15      1.0000 0.22430  0.82080  0.85790  Biso   1.000  H
  H16      1.0000 0.27570  0.67920  0.35790  Biso   1.000  H
  N1       1.0000 0.24355  0.09560  0.62278  Biso   1.000  N
  N2       1.0000 0.25645  0.40440  0.12278  Biso   1.000  N
  N3       1.0000 0.74355  0.40440  0.37722  Biso   1.000  N
  N4       1.0000 0.75645  0.09560  0.87722  Biso   1.000  N
  N5       1.0000 0.75645  0.90440  0.37722  Biso   1.000  N
  N6       1.0000 0.74355  0.59560  0.87722  Biso   1.000  N
  N7       1.0000 0.25645  0.59560  0.62278  Biso   1.000  N
  N8       1.0000 0.24355  0.90440  0.12278  Biso   1.000  N
  N9       1.0000 0.06106  0.84510  0.48745  Biso   1.000  N
  N10      1.0000 0.43894  0.65490  0.98745  Biso   1.000  N
  N11      1.0000 0.56106  0.65490  0.51255  Biso   1.000  N
  N12      1.0000 0.93894  0.84510  0.01255  Biso   1.000  N
  N13      1.0000 0.93894  0.15490  0.51255  Biso   1.000  N
  N14      1.0000 0.56106  0.34510  0.01255  Biso   1.000  N
  N15      1.0000 0.43894  0.34510  0.48745  Biso   1.000  N
  N16      1.0000 0.06106  0.15490  0.98745  Biso   1.000  N
  H17      1.0000 0.08900  0.83100  0.44260  Biso   1.000  H
  H18      1.0000 0.41100  0.66900  0.94260  Biso   1.000  H
  H19      1.0000 0.58900  0.66900  0.55740  Biso   1.000  H
  H20      1.0000 0.91100  0.83100  0.05740  Biso   1.000  H
  H21      1.0000 0.91100  0.16900  0.55740  Biso   1.000  H
  H22      1.0000 0.58900  0.33100  0.05740  Biso   1.000  H
  H23      1.0000 0.41100  0.33100  0.44260  Biso   1.000  H
  H24      1.0000 0.08900  0.16900  0.94260  Biso   1.000  H
  C1       1.0000 0.17920  0.04170  0.61836  Biso   1.000  C
  C2       1.0000 0.32080  0.45830  0.11836  Biso   1.000  C
  C3       1.0000 0.67920  0.45830  0.38164  Biso   1.000  C
  C4       1.0000 0.82080  0.04170  0.88164  Biso   1.000  C
  C5       1.0000 0.82080  0.95830  0.38164  Biso   1.000  C
  C6       1.0000 0.67920  0.54170  0.88164  Biso   1.000  C
  C7       1.0000 0.32080  0.54170  0.61836  Biso   1.000  C
  C8       1.0000 0.17920  0.95830  0.11836  Biso   1.000  C
  H25      1.0000 0.14460  0.06590  0.66010  Biso   1.000  H
  H26      1.0000 0.35540  0.43410  0.16010  Biso   1.000  H
  H27      1.0000 0.64460  0.43410  0.33990  Biso   1.000  H
  H28      1.0000 0.85540  0.06590  0.83990  Biso   1.000  H
  H29      1.0000 0.85540  0.93410  0.33990  Biso   1.000  H
  H30      1.0000 0.64460  0.56590  0.83990  Biso   1.000  H
  H31      1.0000 0.35540  0.56590  0.66010  Biso   1.000  H
  H32      1.0000 0.14460  0.93410  0.16010  Biso   1.000  H
  C9       1.0000 0.27750  0.97190  0.49960  Biso   1.000  C
  C10      1.0000 0.22250  0.52810  0.99960  Biso   1.000  C
  C11      1.0000 0.77750  0.52810  0.50040  Biso   1.000  C
  C12      1.0000 0.72250  0.97190  0.00040  Biso   1.000  C
  C13      1.0000 0.72250  0.02810  0.50040  Biso   1.000  C
  C14      1.0000 0.77750  0.47190  0.00040  Biso   1.000  C
  C15      1.0000 0.22250  0.47190  0.49960  Biso   1.000  C
  C16      1.0000 0.27750  0.02810  0.99960  Biso   1.000  C
  H33      1.0000 0.31300  0.94890  0.45870  Biso   1.000  H
  H34      1.0000 0.18700  0.55110  0.95870  Biso   1.000  H
  H35      1.0000 0.81300  0.55110  0.54130  Biso   1.000  H
  H36      1.0000 0.68700  0.94890  0.04130  Biso   1.000  H
  H37      1.0000 0.68700  0.05110  0.54130  Biso   1.000  H
  H38      1.0000 0.81300  0.44890  0.04130  Biso   1.000  H
  H39      1.0000 0.18700  0.44890  0.45870  Biso   1.000  H
  H40      1.0000 0.31300  0.05110  0.95870  Biso   1.000  H
  C17      1.0000 0.29227  0.06000  0.56360  Biso   1.000  C
  C18      1.0000 0.20773  0.44000  0.06360  Biso   1.000  C
  C19      1.0000 0.79227  0.44000  0.43640  Biso   1.000  C
  C20      1.0000 0.70773  0.06000  0.93640  Biso   1.000  C
  C21      1.0000 0.70773  0.94000  0.43640  Biso   1.000  C
  C22      1.0000 0.79227  0.56000  0.93640  Biso   1.000  C
  C23      1.0000 0.20773  0.56000  0.56360  Biso   1.000  C
  C24      1.0000 0.29227  0.94000  0.06360  Biso   1.000  C
  H41      1.0000 0.33810  0.09660  0.56600  Biso   1.000  H
  H42      1.0000 0.16190  0.40340  0.06600  Biso   1.000  H
  H43      1.0000 0.83810  0.40340  0.43400  Biso   1.000  H
  H44      1.0000 0.66190  0.09660  0.93400  Biso   1.000  H
  H45      1.0000 0.66190  0.90340  0.43400  Biso   1.000  H
  H46      1.0000 0.83810  0.59660  0.93400  Biso   1.000  H
  H47      1.0000 0.16190  0.59660  0.56600  Biso   1.000  H
  H48      1.0000 0.33810  0.90340  0.06600  Biso   1.000  H
  C25      1.0000 0.21141  0.91680  0.49480  Biso   1.000  C
  C26      1.0000 0.28859  0.58320  0.99480  Biso   1.000  C
  C27      1.0000 0.71141  0.58320  0.50520  Biso   1.000  C
  C28      1.0000 0.78859  0.91680  0.00520  Biso   1.000  C
  C29      1.0000 0.78859  0.08320  0.50520  Biso   1.000  C
  C30      1.0000 0.71141  0.41680  0.00520  Biso   1.000  C
  C31      1.0000 0.28859  0.41680  0.49480  Biso   1.000  C
  C32      1.0000 0.21141  0.08320  0.99480  Biso   1.000  C
  H49      1.0000 0.20080  0.85600  0.45090  Biso   1.000  H
  H50      1.0000 0.29920  0.64400  0.95090  Biso   1.000  H
  H51      1.0000 0.70080  0.64400  0.54910  Biso   1.000  H
  H52      1.0000 0.79920  0.85600  0.04910  Biso   1.000  H
  H53      1.0000 0.79920  0.14400  0.54910  Biso   1.000  H
  H54      1.0000 0.70080  0.35600  0.04910  Biso   1.000  H
  H55      1.0000 0.29920  0.35600  0.45090  Biso   1.000  H
  H56      1.0000 0.20080  0.14400  0.95090  Biso   1.000  H
  C33      1.0000 0.16076  0.95220  0.55573  Biso   1.000  C
  C34      1.0000 0.33924  0.54780  0.05573  Biso   1.000  C
  C35      1.0000 0.66076  0.54780  0.44427  Biso   1.000  C
  C36      1.0000 0.83924  0.95220  0.94427  Biso   1.000  C
  C37      1.0000 0.83924  0.04780  0.44427  Biso   1.000  C
  C38      1.0000 0.66076  0.45220  0.94427  Biso   1.000  C
  C39      1.0000 0.33924  0.45220  0.55573  Biso   1.000  C
  C40      1.0000 0.16076  0.04780  0.05573  Biso   1.000  C
  C41      1.0000 0.08601  0.90410  0.55755  Biso   1.000  C
  C42      1.0000 0.41399  0.59590  0.05755  Biso   1.000  C
  C43      1.0000 0.58601  0.59590  0.44245  Biso   1.000  C
  C44      1.0000 0.91399  0.90410  0.94245  Biso   1.000  C
  C45      1.0000 0.91399  0.09590  0.44245  Biso   1.000  C
  C46      1.0000 0.58601  0.40410  0.94245  Biso   1.000  C
  C47      1.0000 0.41399  0.40410  0.55755  Biso   1.000  C
  C48      1.0000 0.08601  0.09590  0.05755  Biso   1.000  C
  C49      1.0000 0.98729  0.80340  0.48460  Biso   1.000  C
  C50      1.0000 0.51271  0.69660  0.98460  Biso   1.000  C
  C51      1.0000 0.48729  0.69660  0.51540  Biso   1.000  C
  C52      1.0000 0.01271  0.80340  0.01540  Biso   1.000  C
  C53      1.0000 0.01271  0.19660  0.51540  Biso   1.000  C
  C54      1.0000 0.48729  0.30340  0.01540  Biso   1.000  C
  C55      1.0000 0.51271  0.30340  0.48460  Biso   1.000  C
  C56      1.0000 0.98729  0.19660  0.98460  Biso   1.000  C
  H57      1.0000 0.97190  0.79740  0.42300  Biso   1.000  H
  H58      1.0000 0.52810  0.70260  0.92300  Biso   1.000  H
  H59      1.0000 0.47190  0.70260  0.57700  Biso   1.000  H
  H60      1.0000 0.02810  0.79740  0.07700  Biso   1.000  H
  H61      1.0000 0.02810  0.20260  0.57700  Biso   1.000  H
  H62      1.0000 0.47190  0.29740  0.07700  Biso   1.000  H
  H63      1.0000 0.52810  0.29740  0.42300  Biso   1.000  H
  H64      1.0000 0.97190  0.20260  0.92300  Biso   1.000  H
  H65      1.0000 0.95730  0.86800  0.51370  Biso   1.000  H
  H66      1.0000 0.54270  0.63200  0.01370  Biso   1.000  H
  H67      1.0000 0.45730  0.63200  0.48630  Biso   1.000  H
  H68      1.0000 0.04270  0.86800  0.98630  Biso   1.000  H
  H69      1.0000 0.04270  0.13200  0.48630  Biso   1.000  H
  H70      1.0000 0.45730  0.36800  0.98630  Biso   1.000  H
  H71      1.0000 0.54270  0.36800  0.51370  Biso   1.000  H
  H72      1.0000 0.95730  0.13200  0.01370  Biso   1.000  H
  C57      1.0000 0.97629  0.67530  0.52880  Biso   1.000  C
  C58      1.0000 0.52371  0.82470  0.02880  Biso   1.000  C
  C59      1.0000 0.47629  0.82470  0.47120  Biso   1.000  C
  C60      1.0000 0.02371  0.67530  0.97120  Biso   1.000  C
  C61      1.0000 0.02371  0.32470  0.47120  Biso   1.000  C
  C62      1.0000 0.47629  0.17530  0.97120  Biso   1.000  C
  C63      1.0000 0.52371  0.17530  0.52880  Biso   1.000  C
  C64      1.0000 0.97629  0.32470  0.02880  Biso   1.000  C
  H73      1.0000 0.00020  0.67650  0.58620  Biso   1.000  H
  H74      1.0000 0.49980  0.82350  0.08620  Biso   1.000  H
  H75      1.0000 0.50020  0.82350  0.41380  Biso   1.000  H
  H76      1.0000 0.99980  0.67650  0.91380  Biso   1.000  H
  H77      1.0000 0.99980  0.32350  0.41380  Biso   1.000  H
  H78      1.0000 0.50020  0.17650  0.91380  Biso   1.000  H
  H79      1.0000 0.49980  0.17650  0.58620  Biso   1.000  H
  H80      1.0000 0.00020  0.32350  0.08620  Biso   1.000  H
  H81      1.0000 0.92510  0.66290  0.53920  Biso   1.000  H
  H82      1.0000 0.57490  0.83710  0.03920  Biso   1.000  H
  H83      1.0000 0.42510  0.83710  0.46080  Biso   1.000  H
  H84      1.0000 0.07490  0.66290  0.96080  Biso   1.000  H
  H85      1.0000 0.07490  0.33710  0.46080  Biso   1.000  H
  H86      1.0000 0.42510  0.16290  0.96080  Biso   1.000  H
  H87      1.0000 0.57490  0.16290  0.53920  Biso   1.000  H
  H88      1.0000 0.92510  0.33710  0.03920  Biso   1.000  H
  C65      1.0000 0.00399  0.56350  0.47660  Biso   1.000  C
  C66      1.0000 0.49601  0.93650  0.97660  Biso   1.000  C
  C67      1.0000 0.50399  0.93650  0.52340  Biso   1.000  C
  C68      1.0000 0.99601  0.56350  0.02340  Biso   1.000  C
  C69      1.0000 0.99601  0.43650  0.52340  Biso   1.000  C
  C70      1.0000 0.50399  0.06350  0.02340  Biso   1.000  C
  C71      1.0000 0.49601  0.06350  0.47660  Biso   1.000  C
  C72      1.0000 0.00399  0.43650  0.97660  Biso   1.000  C
  H89      1.0000 0.05460  0.57780  0.46360  Biso   1.000  H
  H90      1.0000 0.44540  0.92220  0.96360  Biso   1.000  H
  H91      1.0000 0.55460  0.92220  0.53640  Biso   1.000  H
  H92      1.0000 0.94540  0.57780  0.03640  Biso   1.000  H
  H93      1.0000 0.94540  0.42220  0.53640  Biso   1.000  H
  H94      1.0000 0.55460  0.07780  0.03640  Biso   1.000  H
  H95      1.0000 0.44540  0.07780  0.46360  Biso   1.000  H
  H96      1.0000 0.05460  0.42220  0.96360  Biso   1.000  H
  H97      1.0000 0.97830  0.55950  0.42040  Biso   1.000  H
  H98      1.0000 0.52170  0.94050  0.92040  Biso   1.000  H
  H99      1.0000 0.47830  0.94050  0.57960  Biso   1.000  H
  H100     1.0000 0.02170  0.55950  0.07960  Biso   1.000  H
  H101     1.0000 0.02170  0.44050  0.57960  Biso   1.000  H
  H102     1.0000 0.47830  0.05950  0.07960  Biso   1.000  H
  H103     1.0000 0.52170  0.05950  0.42040  Biso   1.000  H
  H104     1.0000 0.97830  0.44050  0.92040  Biso   1.000  H
  C73      1.0000 0.13075  0.28980  0.76588  Biso   1.000  C
  C74      1.0000 0.36925  0.21020  0.26588  Biso   1.000  C
  C75      1.0000 0.63075  0.21020  0.23412  Biso   1.000  C
  C76      1.0000 0.86925  0.28980  0.73412  Biso   1.000  C
  C77      1.0000 0.86925  0.71020  0.23412  Biso   1.000  C
  C78      1.0000 0.63075  0.78980  0.73412  Biso   1.000  C
  C79      1.0000 0.36925  0.78980  0.76588  Biso   1.000  C
  C80      1.0000 0.13075  0.71020  0.26588  Biso   1.000  C
  C81      1.0000 0.13231  0.57190  0.75952  Biso   1.000  C
  C82      1.0000 0.36769  0.92810  0.25952  Biso   1.000  C
  C83      1.0000 0.63231  0.92810  0.24048  Biso   1.000  C
  C84      1.0000 0.86769  0.57190  0.74048  Biso   1.000  C
  C85      1.0000 0.86769  0.42810  0.24048  Biso   1.000  C
  C86      1.0000 0.63231  0.07190  0.74048  Biso   1.000  C
  C87      1.0000 0.36769  0.07190  0.75952  Biso   1.000  C
  C88      1.0000 0.13231  0.42810  0.25952  Biso   1.000  C
  C89      1.0000 0.06387  0.49970  0.75553  Biso   1.000  C
  C90      1.0000 0.43613  0.00030  0.25553  Biso   1.000  C
  C91      1.0000 0.56387  0.00030  0.24447  Biso   1.000  C
  C92      1.0000 0.93613  0.49970  0.74447  Biso   1.000  C
  C93      1.0000 0.93613  0.50030  0.24447  Biso   1.000  C
  C94      1.0000 0.56387  0.99970  0.74447  Biso   1.000  C
  C95      1.0000 0.43613  0.99970  0.75553  Biso   1.000  C
  C96      1.0000 0.06387  0.50030  0.25553  Biso   1.000  C
  C97      1.0000 0.06362  0.36700  0.75787  Biso   1.000  C
  C98      1.0000 0.43638  0.13300  0.25787  Biso   1.000  C
  C99      1.0000 0.56362  0.13300  0.24213  Biso   1.000  C
  C100     1.0000 0.93638  0.36700  0.74213  Biso   1.000  C
  C101     1.0000 0.93638  0.63300  0.24213  Biso   1.000  C
  C102     1.0000 0.56362  0.86700  0.74213  Biso   1.000  C
  C103     1.0000 0.43638  0.86700  0.75787  Biso   1.000  C
  C104     1.0000 0.06362  0.63300  0.25787  Biso   1.000  C
  C105     1.0000 0.00000  0.30120  0.75000  Biso   1.000  C
  C106     1.0000 0.50000  0.19880  0.25000  Biso   1.000  C
  C107     1.0000 0.00000  0.69880  0.25000  Biso   1.000  C
  C108     1.0000 0.50000  0.80120  0.75000  Biso   1.000  C
  H105     1.0000 0.00000  0.21080  0.75000  Biso   1.000  H
  H106     1.0000 0.50000  0.28920  0.25000  Biso   1.000  H
  H107     1.0000 0.00000  0.78920  0.25000  Biso   1.000  H
  H108     1.0000 0.50000  0.71080  0.75000  Biso   1.000  H
  C109     1.0000 0.00000  0.56420  0.75000  Biso   1.000  C
  C110     1.0000 0.50000  0.93580  0.25000  Biso   1.000  C
  C111     1.0000 0.00000  0.43580  0.25000  Biso   1.000  C
  C112     1.0000 0.50000  0.06420  0.75000  Biso   1.000  C
  H109     1.0000 0.00000  0.65460  0.75000  Biso   1.000  H
  H110     1.0000 0.50000  0.84540  0.25000  Biso   1.000  H
  H111     1.0000 0.00000  0.34540  0.25000  Biso   1.000  H
  H112     1.0000 0.50000  0.15460  0.75000  Biso   1.000  H
  O49      1.0000 0.91654  0.93490  0.69764  Biso   1.000  O
  O50      1.0000 0.58346  0.56510  0.19764  Biso   1.000  O
  O51      1.0000 0.41654  0.56510  0.30236  Biso   1.000  O
  O52      1.0000 0.08346  0.93490  0.80236  Biso   1.000  O
  O53      1.0000 0.08346  0.06510  0.30236  Biso   1.000  O
  O54      1.0000 0.41654  0.43490  0.80236  Biso   1.000  O
  O55      1.0000 0.58346  0.43490  0.69764  Biso   1.000  O
  O56      1.0000 0.91654  0.06510  0.19764  Biso   1.000  O
  H113     1.0000 0.92860  0.92420  0.75190  Biso   1.000  H
  H114     1.0000 0.57140  0.57580  0.25190  Biso   1.000  H
  H115     1.0000 0.42860  0.57580  0.24810  Biso   1.000  H
  H116     1.0000 0.07140  0.92420  0.74810  Biso   1.000  H
  H117     1.0000 0.07140  0.07580  0.24810  Biso   1.000  H
  H118     1.0000 0.42860  0.42420  0.74810  Biso   1.000  H
  H119     1.0000 0.57140  0.42420  0.75190  Biso   1.000  H
  H120     1.0000 0.92860  0.07580  0.25190  Biso   1.000  H
  H121     1.0000 0.95240  0.91740  0.66420  Biso   1.000  H
  H122     1.0000 0.54760  0.58260  0.16420  Biso   1.000  H
  H123     1.0000 0.45240  0.58260  0.33580  Biso   1.000  H
  H124     1.0000 0.04760  0.91740  0.83580  Biso   1.000  H
  H125     1.0000 0.04760  0.08260  0.33580  Biso   1.000  H
  H126     1.0000 0.45240  0.41740  0.83580  Biso   1.000  H
  H127     1.0000 0.54760  0.41740  0.66420  Biso   1.000  H
  H128     1.0000 0.95240  0.08260  0.16420  Biso   1.000  H
