data_image0
_cell_length_a       10.6345
_cell_length_b       21.161
_cell_length_c       13.5798
_cell_angle_alpha    90
_cell_angle_beta     111.4
_cell_angle_gamma    90

_symmetry_space_group_name_H-M    "P 1"
_symmetry_int_tables_number       1

loop_
  _symmetry_equiv_pos_as_xyz
  'x, y, z'

loop_
  _atom_site_label
  _atom_site_occupancy
  _atom_site_fract_x
  _atom_site_fract_y
  _atom_site_fract_z
  _atom_site_thermal_displace_type
  _atom_site_B_iso_or_equiv
  _atom_site_type_symbol
  Cu1      1.0000 0.34441  0.13992  0.36228  Biso   1.000  Cu
  Cu2      1.0000 0.65559  0.63992  0.13772  Biso   1.000  Cu
  Cu3      1.0000 0.65559  0.86008  0.63772  Biso   1.000  Cu
  Cu4      1.0000 0.34441  0.36008  0.86228  Biso   1.000  Cu
  Cl1      1.0000 0.69040  0.35519  0.70677  Biso   1.000  Cl
  Cl2      1.0000 0.30960  0.85519  0.79323  Biso   1.000  Cl
  Cl3      1.0000 0.30960  0.64481  0.29323  Biso   1.000  Cl
  Cl4      1.0000 0.69040  0.14481  0.20677  Biso   1.000  Cl
  N1       1.0000 0.21910  0.08350  0.40390  Biso   1.000  N
  N2       1.0000 0.78090  0.58350  0.09610  Biso   1.000  N
  N3       1.0000 0.78090  0.91650  0.59610  Biso   1.000  N
  N4       1.0000 0.21910  0.41650  0.90390  Biso   1.000  N
  N5       1.0000 0.40840  0.21800  0.30520  Biso   1.000  N
  N6       1.0000 0.59160  0.71800  0.19480  Biso   1.000  N
  N7       1.0000 0.59160  0.78200  0.69480  Biso   1.000  N
  N8       1.0000 0.40840  0.28200  0.80520  Biso   1.000  N
  N9       1.0000 0.27170  0.12080  0.21170  Biso   1.000  N
  N10      1.0000 0.72830  0.62080  0.28830  Biso   1.000  N
  N11      1.0000 0.72830  0.87920  0.78830  Biso   1.000  N
  N12      1.0000 0.27170  0.37920  0.71170  Biso   1.000  N
  N13      1.0000 0.21870  0.15880  0.04610  Biso   1.000  N
  N14      1.0000 0.78130  0.65880  0.45390  Biso   1.000  N
  N15      1.0000 0.78130  0.84120  0.95390  Biso   1.000  N
  N16      1.0000 0.21870  0.34120  0.54610  Biso   1.000  N
  H1       1.0000 0.21850  0.18490  0.99750  Biso   1.000  H
  H2       1.0000 0.78150  0.68490  0.50250  Biso   1.000  H
  H3       1.0000 0.78150  0.81510  0.00250  Biso   1.000  H
  H4       1.0000 0.21850  0.31510  0.49750  Biso   1.000  H
  O1       1.0000 0.41670  0.32931  0.00760  Biso   1.000  O
  O2       1.0000 0.58330  0.82931  0.49240  Biso   1.000  O
  O3       1.0000 0.58330  0.67069  0.99240  Biso   1.000  O
  O4       1.0000 0.41670  0.17069  0.50760  Biso   1.000  O
  O5       1.0000 0.24120  0.26550  0.96740  Biso   1.000  O
  O6       1.0000 0.75880  0.76550  0.53260  Biso   1.000  O
  O7       1.0000 0.75880  0.73450  0.03260  Biso   1.000  O
  O8       1.0000 0.24120  0.23450  0.46740  Biso   1.000  O
  O9       1.0000 0.17440  0.02170  0.17350  Biso   1.000  O
  O10      1.0000 0.82560  0.52170  0.32650  Biso   1.000  O
  O11      1.0000 0.82560  0.97830  0.82650  Biso   1.000  O
  O12      1.0000 0.17440  0.47830  0.67350  Biso   1.000  O
  O13      1.0000 0.52620  0.07780  0.40620  Biso   1.000  O
  O14      1.0000 0.47380  0.57780  0.09380  Biso   1.000  O
  O15      1.0000 0.47380  0.92220  0.59380  Biso   1.000  O
  O16      1.0000 0.52620  0.42220  0.90620  Biso   1.000  O
  H5       1.0000 0.58670  0.09340  0.46060  Biso   1.000  H
  H6       1.0000 0.41330  0.59340  0.03940  Biso   1.000  H
  H7       1.0000 0.41330  0.90660  0.53940  Biso   1.000  H
  H8       1.0000 0.58670  0.40660  0.96060  Biso   1.000  H
  H9       1.0000 0.55620  0.07860  0.35620  Biso   1.000  H
  H10      1.0000 0.44380  0.57860  0.14380  Biso   1.000  H
  H11      1.0000 0.44380  0.92140  0.64380  Biso   1.000  H
  H12      1.0000 0.55620  0.42140  0.85620  Biso   1.000  H
  O17      1.0000 0.58010  0.33000  0.62500  Biso   1.000  O
  O18      1.0000 0.41990  0.83000  0.87500  Biso   1.000  O
  O19      1.0000 0.41990  0.67000  0.37500  Biso   1.000  O
  O20      1.0000 0.58010  0.17000  0.12500  Biso   1.000  O
  O21      1.0000 0.73100  0.31100  0.78730  Biso   1.000  O
  O22      1.0000 0.26900  0.81100  0.71270  Biso   1.000  O
  O23      1.0000 0.26900  0.68900  0.21270  Biso   1.000  O
  O24      1.0000 0.73100  0.18900  0.28730  Biso   1.000  O
  O25      1.0000 0.65000  0.40920  0.75000  Biso   1.000  O
  O26      1.0000 0.35000  0.90920  0.75000  Biso   1.000  O
  O27      1.0000 0.35000  0.59080  0.25000  Biso   1.000  O
  O28      1.0000 0.65000  0.09080  0.25000  Biso   1.000  O
  O29      1.0000 0.79600  0.37040  0.67600  Biso   1.000  O
  O30      1.0000 0.20400  0.87040  0.82400  Biso   1.000  O
  O31      1.0000 0.20400  0.62960  0.32400  Biso   1.000  O
  O32      1.0000 0.79600  0.12960  0.17600  Biso   1.000  O
  O33      1.0000 0.82600  0.32470  0.17570  Biso   1.000  O
  O34      1.0000 0.17400  0.82470  0.32430  Biso   1.000  O
  O35      1.0000 0.17400  0.67530  0.82430  Biso   1.000  O
  O36      1.0000 0.82600  0.17530  0.67570  Biso   1.000  O
  H13      1.0000 0.81920  0.29730  0.21610  Biso   1.000  H
  H14      1.0000 0.18080  0.79730  0.28390  Biso   1.000  H
  H15      1.0000 0.18080  0.70270  0.78390  Biso   1.000  H
  H16      1.0000 0.81920  0.20270  0.71610  Biso   1.000  H
  O37      1.0000 0.66350  0.43260  0.13930  Biso   1.000  O
  O38      1.0000 0.33650  0.93260  0.36070  Biso   1.000  O
  O39      1.0000 0.33650  0.56740  0.86070  Biso   1.000  O
  O40      1.0000 0.66350  0.06740  0.63930  Biso   1.000  O
  H17      1.0000 0.70990  0.39890  0.14950  Biso   1.000  H
  H18      1.0000 0.29010  0.89890  0.35050  Biso   1.000  H
  H19      1.0000 0.29010  0.60110  0.85050  Biso   1.000  H
  H20      1.0000 0.70990  0.10110  0.64950  Biso   1.000  H
  H21      1.0000 0.70410  0.45840  0.18870  Biso   1.000  H
  H22      1.0000 0.29590  0.95840  0.31130  Biso   1.000  H
  H23      1.0000 0.29590  0.54160  0.81130  Biso   1.000  H
  H24      1.0000 0.70410  0.04160  0.68870  Biso   1.000  H
  C1       1.0000 0.34400  0.29020  0.03210  Biso   1.000  C
  C2       1.0000 0.65600  0.79020  0.46790  Biso   1.000  C
  C3       1.0000 0.65600  0.70980  0.96790  Biso   1.000  C
  C4       1.0000 0.34400  0.20980  0.53210  Biso   1.000  C
  C5       1.0000 0.38990  0.27720  0.14970  Biso   1.000  C
  C6       1.0000 0.61010  0.77720  0.35030  Biso   1.000  C
  C7       1.0000 0.61010  0.72280  0.85030  Biso   1.000  C
  C8       1.0000 0.38990  0.22280  0.64970  Biso   1.000  C
  C9       1.0000 0.47430  0.32230  0.21560  Biso   1.000  C
  C10      1.0000 0.52570  0.82230  0.28440  Biso   1.000  C
  C11      1.0000 0.52570  0.67770  0.78440  Biso   1.000  C
  C12      1.0000 0.47430  0.17770  0.71560  Biso   1.000  C
  H25      1.0000 0.49620  0.35810  0.18550  Biso   1.000  H
  H26      1.0000 0.50380  0.85810  0.31450  Biso   1.000  H
  H27      1.0000 0.50380  0.64190  0.81450  Biso   1.000  H
  H28      1.0000 0.49620  0.14190  0.68550  Biso   1.000  H
  C13      1.0000 0.52710  0.31580  0.32500  Biso   1.000  C
  C14      1.0000 0.47290  0.81580  0.17500  Biso   1.000  C
  C15      1.0000 0.47290  0.68420  0.67500  Biso   1.000  C
  C16      1.0000 0.52710  0.18420  0.82500  Biso   1.000  C
  C17      1.0000 0.48940  0.26240  0.36650  Biso   1.000  C
  C18      1.0000 0.51060  0.76240  0.13350  Biso   1.000  C
  C19      1.0000 0.51060  0.73760  0.63350  Biso   1.000  C
  C20      1.0000 0.48940  0.23760  0.86650  Biso   1.000  C
  H29      1.0000 0.52150  0.25720  0.43950  Biso   1.000  H
  H30      1.0000 0.47850  0.75720  0.06050  Biso   1.000  H
  H31      1.0000 0.47850  0.74280  0.56050  Biso   1.000  H
  H32      1.0000 0.52150  0.24280  0.93950  Biso   1.000  H
  C21      1.0000 0.35890  0.22450  0.19880  Biso   1.000  C
  C22      1.0000 0.64110  0.72450  0.30120  Biso   1.000  C
  C23      1.0000 0.64110  0.77550  0.80120  Biso   1.000  C
  C24      1.0000 0.35890  0.27550  0.69880  Biso   1.000  C
  C25      1.0000 0.61600  0.36460  0.39520  Biso   1.000  C
  C26      1.0000 0.38400  0.86460  0.10480  Biso   1.000  C
  C27      1.0000 0.38400  0.63540  0.60480  Biso   1.000  C
  C28      1.0000 0.61600  0.13540  0.89520  Biso   1.000  C
  H33      1.0000 0.64350  0.35110  0.46750  Biso   1.000  H
  H34      1.0000 0.35650  0.85110  0.03250  Biso   1.000  H
  H35      1.0000 0.35650  0.64890  0.53250  Biso   1.000  H
  H36      1.0000 0.64350  0.14890  0.96750  Biso   1.000  H
  H37      1.0000 0.56760  0.40380  0.38650  Biso   1.000  H
  H38      1.0000 0.43240  0.90380  0.11350  Biso   1.000  H
  H39      1.0000 0.43240  0.59620  0.61350  Biso   1.000  H
  H40      1.0000 0.56760  0.09620  0.88650  Biso   1.000  H
  H41      1.0000 0.69440  0.37050  0.37700  Biso   1.000  H
  H42      1.0000 0.30560  0.87050  0.12300  Biso   1.000  H
  H43      1.0000 0.30560  0.62950  0.62300  Biso   1.000  H
  H44      1.0000 0.69440  0.12950  0.87700  Biso   1.000  H
  C29      1.0000 0.28210  0.16800  0.14830  Biso   1.000  C
  C30      1.0000 0.71790  0.66800  0.35170  Biso   1.000  C
  C31      1.0000 0.71790  0.83200  0.85170  Biso   1.000  C
  C32      1.0000 0.28210  0.33200  0.64830  Biso   1.000  C
  C33      1.0000 0.19830  0.07330  0.14450  Biso   1.000  C
  C34      1.0000 0.80170  0.57330  0.35550  Biso   1.000  C
  C35      1.0000 0.80170  0.92670  0.85550  Biso   1.000  C
  C36      1.0000 0.19830  0.42670  0.64450  Biso   1.000  C
  C37      1.0000 0.14800  0.09730  0.02680  Biso   1.000  C
  C38      1.0000 0.85200  0.59730  0.47320  Biso   1.000  C
  C39      1.0000 0.85200  0.90270  0.97320  Biso   1.000  C
  C40      1.0000 0.14800  0.40270  0.52680  Biso   1.000  C
  C41      1.0000 0.99180  0.10800  0.98630  Biso   1.000  C
  C42      1.0000 0.00820  0.60800  0.51370  Biso   1.000  C
  C43      1.0000 0.00820  0.89200  0.01370  Biso   1.000  C
  C44      1.0000 0.99180  0.39200  0.48630  Biso   1.000  C
  H45      1.0000 0.97050  0.13570  0.03410  Biso   1.000  H
  H46      1.0000 0.02950  0.63570  0.46590  Biso   1.000  H
  H47      1.0000 0.02950  0.86430  0.96590  Biso   1.000  H
  H48      1.0000 0.97050  0.36430  0.53410  Biso   1.000  H
  H49      1.0000 0.94710  0.06820  0.98280  Biso   1.000  H
  H50      1.0000 0.05290  0.56820  0.51720  Biso   1.000  H
  H51      1.0000 0.05290  0.93180  0.01720  Biso   1.000  H
  H52      1.0000 0.94710  0.43180  0.48280  Biso   1.000  H
  H53      1.0000 0.96200  0.12680  0.91720  Biso   1.000  H
  H54      1.0000 0.03800  0.62680  0.58280  Biso   1.000  H
  H55      1.0000 0.03800  0.87320  0.08280  Biso   1.000  H
  H56      1.0000 0.96200  0.37320  0.41720  Biso   1.000  H
  C45      1.0000 0.19080  0.05480  0.95920  Biso   1.000  C
  C46      1.0000 0.80920  0.55480  0.54080  Biso   1.000  C
  C47      1.0000 0.80920  0.94520  0.04080  Biso   1.000  C
  C48      1.0000 0.19080  0.44520  0.45920  Biso   1.000  C
  H57      1.0000 0.14330  0.01470  0.95500  Biso   1.000  H
  H58      1.0000 0.85670  0.51470  0.54500  Biso   1.000  H
  H59      1.0000 0.85670  0.98530  0.04500  Biso   1.000  H
  H60      1.0000 0.14330  0.48530  0.45500  Biso   1.000  H
  C49      1.0000 0.14740  0.08110  0.84730  Biso   1.000  C
  C50      1.0000 0.85260  0.58110  0.65270  Biso   1.000  C
  C51      1.0000 0.85260  0.91890  0.15270  Biso   1.000  C
  C52      1.0000 0.14740  0.41890  0.34730  Biso   1.000  C
  H61      1.0000 0.18540  0.12240  0.84930  Biso   1.000  H
  H62      1.0000 0.81460  0.62240  0.65070  Biso   1.000  H
  H63      1.0000 0.81460  0.87760  0.15070  Biso   1.000  H
  H64      1.0000 0.18540  0.37760  0.34930  Biso   1.000  H
  H65      1.0000 0.05060  0.08370  0.81730  Biso   1.000  H
  H66      1.0000 0.94940  0.58370  0.68270  Biso   1.000  H
  H67      1.0000 0.94940  0.91630  0.18270  Biso   1.000  H
  H68      1.0000 0.05060  0.41630  0.31730  Biso   1.000  H
  H69      1.0000 0.17870  0.05360  0.80480  Biso   1.000  H
  H70      1.0000 0.82130  0.55360  0.69520  Biso   1.000  H
  H71      1.0000 0.82130  0.94640  0.19520  Biso   1.000  H
  H72      1.0000 0.17870  0.44640  0.30480  Biso   1.000  H
  C53      1.0000 0.33930  0.04140  0.00950  Biso   1.000  C
  C54      1.0000 0.66070  0.54140  0.49050  Biso   1.000  C
  C55      1.0000 0.66070  0.95860  0.99050  Biso   1.000  C
  C56      1.0000 0.33930  0.45860  0.50950  Biso   1.000  C
  H73      1.0000 0.36880  0.01900  0.96040  Biso   1.000  H
  H74      1.0000 0.63120  0.51900  0.53960  Biso   1.000  H
  H75      1.0000 0.63120  0.98100  0.03960  Biso   1.000  H
  H76      1.0000 0.36880  0.48100  0.46040  Biso   1.000  H
  H77      1.0000 0.35600  0.01610  0.07170  Biso   1.000  H
  H78      1.0000 0.64400  0.51610  0.42830  Biso   1.000  H
  H79      1.0000 0.64400  0.98390  0.92830  Biso   1.000  H
  H80      1.0000 0.35600  0.48390  0.57170  Biso   1.000  H
  H81      1.0000 0.38800  0.08050  0.02870  Biso   1.000  H
  H82      1.0000 0.61200  0.58050  0.47130  Biso   1.000  H
  H83      1.0000 0.61200  0.91950  0.97130  Biso   1.000  H
  H84      1.0000 0.38800  0.41950  0.52870  Biso   1.000  H
  C57      1.0000 0.09010  0.08500  0.35620  Biso   1.000  C
  C58      1.0000 0.90990  0.58500  0.14380  Biso   1.000  C
  C59      1.0000 0.90990  0.91500  0.64380  Biso   1.000  C
  C60      1.0000 0.09010  0.41500  0.85620  Biso   1.000  C
  H85      1.0000 0.05490  0.10890  0.29470  Biso   1.000  H
  H86      1.0000 0.94510  0.60890  0.20530  Biso   1.000  H
  H87      1.0000 0.94510  0.89110  0.70530  Biso   1.000  H
  H88      1.0000 0.05490  0.39110  0.79470  Biso   1.000  H
  C61      1.0000 0.00120  0.05310  0.39100  Biso   1.000  C
  C62      1.0000 0.99880  0.55310  0.10900  Biso   1.000  C
  C63      1.0000 0.99880  0.94690  0.60900  Biso   1.000  C
  C64      1.0000 0.00120  0.44690  0.89100  Biso   1.000  C
  H89      1.0000 0.90880  0.05640  0.35330  Biso   1.000  H
  H90      1.0000 0.09120  0.55640  0.14670  Biso   1.000  H
  H91      1.0000 0.09120  0.94360  0.64670  Biso   1.000  H
  H92      1.0000 0.90880  0.44360  0.85330  Biso   1.000  H
  C65      1.0000 0.04640  0.01710  0.47910  Biso   1.000  C
  C66      1.0000 0.95360  0.51710  0.02090  Biso   1.000  C
  C67      1.0000 0.95360  0.98290  0.52090  Biso   1.000  C
  C68      1.0000 0.04640  0.48290  0.97910  Biso   1.000  C
  C69      1.0000 0.18480  0.01540  0.53310  Biso   1.000  C
  C70      1.0000 0.81520  0.51540  0.96690  Biso   1.000  C
  C71      1.0000 0.81520  0.98460  0.46690  Biso   1.000  C
  C72      1.0000 0.18480  0.48460  0.03310  Biso   1.000  C
  H93      1.0000 0.22180  0.99260  0.59560  Biso   1.000  H
  H94      1.0000 0.77820  0.49260  0.90440  Biso   1.000  H
  H95      1.0000 0.77820  0.00740  0.40440  Biso   1.000  H
  H96      1.0000 0.22180  0.50740  0.09560  Biso   1.000  H
  C73      1.0000 0.26690  0.04840  0.49230  Biso   1.000  C
  C74      1.0000 0.73310  0.54840  0.00770  Biso   1.000  C
  C75      1.0000 0.73310  0.95160  0.50770  Biso   1.000  C
  C76      1.0000 0.26690  0.45160  0.99230  Biso   1.000  C
  H97      1.0000 0.35990  0.04620  0.52780  Biso   1.000  H
  H98      1.0000 0.64010  0.54620  0.97220  Biso   1.000  H
  H99      1.0000 0.64010  0.95380  0.47220  Biso   1.000  H
  H100     1.0000 0.35990  0.45380  0.02780  Biso   1.000  H
  C77      1.0000 0.98500  0.31160  0.09300  Biso   1.000  C
  C78      1.0000 0.01500  0.81160  0.40700  Biso   1.000  C
  C79      1.0000 0.01500  0.68840  0.90700  Biso   1.000  C
  C80      1.0000 0.98500  0.18840  0.59300  Biso   1.000  C
  H101     1.0000 0.02920  0.33460  0.15780  Biso   1.000  H
  H102     1.0000 0.97080  0.83460  0.34220  Biso   1.000  H
  H103     1.0000 0.97080  0.66540  0.84220  Biso   1.000  H
  H104     1.0000 0.02920  0.16540  0.65780  Biso   1.000  H
  H105     1.0000 0.98020  0.33730  0.03410  Biso   1.000  H
  H106     1.0000 0.01980  0.83730  0.46590  Biso   1.000  H
  H107     1.0000 0.01980  0.66270  0.96590  Biso   1.000  H
  H108     1.0000 0.98020  0.16270  0.53410  Biso   1.000  H
  H109     1.0000 0.03430  0.27370  0.09360  Biso   1.000  H
  H110     1.0000 0.96570  0.77370  0.40640  Biso   1.000  H
  H111     1.0000 0.96570  0.72630  0.90640  Biso   1.000  H
  H112     1.0000 0.03430  0.22630  0.59360  Biso   1.000  H
  C81      1.0000 0.84700  0.29500  0.08600  Biso   1.000  C
  C82      1.0000 0.15300  0.79500  0.41400  Biso   1.000  C
  C83      1.0000 0.15300  0.70500  0.91400  Biso   1.000  C
  C84      1.0000 0.84700  0.20500  0.58600  Biso   1.000  C
  H113     1.0000 0.78120  0.31050  0.01990  Biso   1.000  H
  H114     1.0000 0.21880  0.81050  0.48010  Biso   1.000  H
  H115     1.0000 0.21880  0.68950  0.98010  Biso   1.000  H
  H116     1.0000 0.78120  0.18950  0.51990  Biso   1.000  H
  H117     1.0000 0.83750  0.24950  0.08840  Biso   1.000  H
  H118     1.0000 0.16250  0.74950  0.41160  Biso   1.000  H
  H119     1.0000 0.16250  0.75050  0.91160  Biso   1.000  H
  H120     1.0000 0.83750  0.25050  0.58840  Biso   1.000  H
  O41      1.0000 0.75100  0.40300  0.67000  Biso   1.000  O
  O42      1.0000 0.24900  0.90300  0.83000  Biso   1.000  O
  O43      1.0000 0.24900  0.59700  0.33000  Biso   1.000  O
  O44      1.0000 0.75100  0.09700  0.17000  Biso   1.000  O
  O45      1.0000 0.80900  0.30600  0.73600  Biso   1.000  O
  O46      1.0000 0.19100  0.80600  0.76400  Biso   1.000  O
  O47      1.0000 0.19100  0.69400  0.26400  Biso   1.000  O
  O48      1.0000 0.80900  0.19400  0.23600  Biso   1.000  O
  O49      1.0000 0.69500  0.36900  0.80800  Biso   1.000  O
  O50      1.0000 0.30500  0.86900  0.69200  Biso   1.000  O
  O51      1.0000 0.30500  0.63100  0.19200  Biso   1.000  O
  O52      1.0000 0.69500  0.13100  0.30800  Biso   1.000  O
