data_image0
_cell_length_a       13.6319
_cell_length_b       13.6319
_cell_length_c       7.3817
_cell_angle_alpha    90
_cell_angle_beta     90
_cell_angle_gamma    120

_symmetry_space_group_name_H-M    "P 1"
_symmetry_int_tables_number       1

loop_
  _symmetry_equiv_pos_as_xyz
  'x, y, z'

loop_
  _atom_site_label
  _atom_site_occupancy
  _atom_site_fract_x
  _atom_site_fract_y
  _atom_site_fract_z
  _atom_site_thermal_displace_type
  _atom_site_B_iso_or_equiv
  _atom_site_type_symbol
  Nd1      1.0000 0.66670  0.33330  0.66008  Biso   1.000  Nd
  Nd2      1.0000 0.33330  0.66670  0.33992  Biso   1.000  Nd
  Cu1      1.0000 0.50000  0.00000  0.00000  Biso   1.000  Cu
  Cu2      1.0000 0.00000  0.50000  0.00000  Biso   1.000  Cu
  Cu3      1.0000 0.50000  0.50000  0.00000  Biso   1.000  Cu
  O1       1.0000 0.80034  0.24473  0.75720  Biso   1.000  O
  O2       1.0000 0.75527  0.55561  0.75720  Biso   1.000  O
  O3       1.0000 0.44439  0.19966  0.75720  Biso   1.000  O
  O4       1.0000 0.19966  0.75527  0.24280  Biso   1.000  O
  O5       1.0000 0.24473  0.44439  0.24280  Biso   1.000  O
  O6       1.0000 0.55561  0.80034  0.24280  Biso   1.000  O
  O7       1.0000 0.63414  0.18181  0.87890  Biso   1.000  O
  O8       1.0000 0.81819  0.45233  0.87890  Biso   1.000  O
  O9       1.0000 0.54767  0.36586  0.87890  Biso   1.000  O
  O10      1.0000 0.36586  0.81819  0.12110  Biso   1.000  O
  O11      1.0000 0.18181  0.54767  0.12110  Biso   1.000  O
  O12      1.0000 0.45233  0.63414  0.12110  Biso   1.000  O
  O13      1.0000 0.48572  0.07865  0.21270  Biso   1.000  O
  O14      1.0000 0.92135  0.40707  0.21270  Biso   1.000  O
  O15      1.0000 0.59293  0.51428  0.21270  Biso   1.000  O
  O16      1.0000 0.51428  0.92135  0.78730  Biso   1.000  O
  O17      1.0000 0.07865  0.59293  0.78730  Biso   1.000  O
  O18      1.0000 0.40707  0.48572  0.78730  Biso   1.000  O
  O19      1.0000 0.58040  0.18110  0.45040  Biso   1.000  O
  O20      1.0000 0.81890  0.39930  0.45040  Biso   1.000  O
  O21      1.0000 0.60070  0.41960  0.45040  Biso   1.000  O
  O22      1.0000 0.41960  0.81890  0.54960  Biso   1.000  O
  O23      1.0000 0.18110  0.60070  0.54960  Biso   1.000  O
  O24      1.0000 0.39930  0.58040  0.54960  Biso   1.000  O
  N1       1.0000 0.64974  0.03706  0.10600  Biso   1.000  N
  N2       1.0000 0.96294  0.61268  0.10600  Biso   1.000  N
  N3       1.0000 0.38732  0.35026  0.10600  Biso   1.000  N
  N4       1.0000 0.35026  0.96294  0.89400  Biso   1.000  N
  N5       1.0000 0.03706  0.38732  0.89400  Biso   1.000  N
  N6       1.0000 0.61268  0.64974  0.89400  Biso   1.000  N
  H1       1.0000 0.64570  0.97090  0.13980  Biso   1.000  H
  H2       1.0000 0.02910  0.67480  0.13980  Biso   1.000  H
  H3       1.0000 0.32520  0.35430  0.13980  Biso   1.000  H
  H4       1.0000 0.35430  0.02910  0.86020  Biso   1.000  H
  H5       1.0000 0.97090  0.32520  0.86020  Biso   1.000  H
  H6       1.0000 0.67480  0.64570  0.86020  Biso   1.000  H
  C1       1.0000 0.72430  0.17950  0.86170  Biso   1.000  C
  C2       1.0000 0.82050  0.54480  0.86170  Biso   1.000  C
  C3       1.0000 0.45520  0.27570  0.86170  Biso   1.000  C
  C4       1.0000 0.27570  0.82050  0.13830  Biso   1.000  C
  C5       1.0000 0.17950  0.45520  0.13830  Biso   1.000  C
  C6       1.0000 0.54480  0.72430  0.13830  Biso   1.000  C
  C7       1.0000 0.73830  0.09020  0.96470  Biso   1.000  C
  C8       1.0000 0.90980  0.64810  0.96470  Biso   1.000  C
  C9       1.0000 0.35190  0.26170  0.96470  Biso   1.000  C
  C10      1.0000 0.26170  0.90980  0.03530  Biso   1.000  C
  C11      1.0000 0.09020  0.35190  0.03530  Biso   1.000  C
  C12      1.0000 0.64810  0.73830  0.03530  Biso   1.000  C
  H7       1.0000 0.79560  0.14480  0.04790  Biso   1.000  H
  H8       1.0000 0.85520  0.65080  0.04790  Biso   1.000  H
  H9       1.0000 0.34920  0.20440  0.04790  Biso   1.000  H
  H10      1.0000 0.20440  0.85520  0.95210  Biso   1.000  H
  H11      1.0000 0.14480  0.34920  0.95210  Biso   1.000  H
  H12      1.0000 0.65080  0.79560  0.95210  Biso   1.000  H
  C13      1.0000 0.67060  0.10660  0.27000  Biso   1.000  C
  C14      1.0000 0.89340  0.56400  0.27000  Biso   1.000  C
  C15      1.0000 0.43600  0.32940  0.27000  Biso   1.000  C
  C16      1.0000 0.32940  0.89340  0.73000  Biso   1.000  C
  C17      1.0000 0.10660  0.43600  0.73000  Biso   1.000  C
  C18      1.0000 0.56400  0.67060  0.73000  Biso   1.000  C
  H13      1.0000 0.73050  0.18220  0.23340  Biso   1.000  H
  H14      1.0000 0.81780  0.54830  0.23340  Biso   1.000  H
  H15      1.0000 0.45170  0.26950  0.23340  Biso   1.000  H
  H16      1.0000 0.26950  0.81780  0.76660  Biso   1.000  H
  H17      1.0000 0.18220  0.45170  0.76660  Biso   1.000  H
  H18      1.0000 0.54830  0.73050  0.76660  Biso   1.000  H
  C19      1.0000 0.57150  0.12300  0.31570  Biso   1.000  C
  C20      1.0000 0.87700  0.44850  0.31570  Biso   1.000  C
  C21      1.0000 0.55150  0.42850  0.31570  Biso   1.000  C
  C22      1.0000 0.42850  0.87700  0.68430  Biso   1.000  C
  C23      1.0000 0.12300  0.55150  0.68430  Biso   1.000  C
  C24      1.0000 0.44850  0.57150  0.68430  Biso   1.000  C
  C25      1.0000 0.72470  0.07240  0.41050  Biso   1.000  C
  C26      1.0000 0.92760  0.65230  0.41050  Biso   1.000  C
  C27      1.0000 0.34770  0.27530  0.41050  Biso   1.000  C
  C28      1.0000 0.27530  0.92760  0.58950  Biso   1.000  C
  C29      1.0000 0.07240  0.34770  0.58950  Biso   1.000  C
  C30      1.0000 0.65230  0.72470  0.58950  Biso   1.000  C
  H19      1.0000 0.78560  0.06610  0.35760  Biso   1.000  H
  H20      1.0000 0.93390  0.71950  0.35760  Biso   1.000  H
  H21      1.0000 0.28050  0.21440  0.35760  Biso   1.000  H
  H22      1.0000 0.21440  0.93390  0.64240  Biso   1.000  H
  H23      1.0000 0.06610  0.28050  0.64240  Biso   1.000  H
  H24      1.0000 0.71950  0.78560  0.64240  Biso   1.000  H
  H25      1.0000 0.66970  0.00060  0.46030  Biso   1.000  H
  H26      1.0000 0.99940  0.66910  0.46030  Biso   1.000  H
  H27      1.0000 0.33090  0.33030  0.46030  Biso   1.000  H
  H28      1.0000 0.33030  0.99940  0.53970  Biso   1.000  H
  H29      1.0000 0.00060  0.33090  0.53970  Biso   1.000  H
  H30      1.0000 0.66910  0.66970  0.53970  Biso   1.000  H
  H31      1.0000 0.75380  0.12830  0.50490  Biso   1.000  H
  H32      1.0000 0.87170  0.62550  0.50490  Biso   1.000  H
  H33      1.0000 0.37450  0.24620  0.50490  Biso   1.000  H
  H34      1.0000 0.24620  0.87170  0.49510  Biso   1.000  H
  H35      1.0000 0.12830  0.37450  0.49510  Biso   1.000  H
  H36      1.0000 0.62550  0.75380  0.49510  Biso   1.000  H
  C31      1.0000 0.79460  0.05310  0.91600  Biso   1.000  C
  C32      1.0000 0.94690  0.74150  0.91600  Biso   1.000  C
  C33      1.0000 0.25850  0.20540  0.91600  Biso   1.000  C
  C34      1.0000 0.20540  0.94690  0.08400  Biso   1.000  C
  C35      1.0000 0.05310  0.25850  0.08400  Biso   1.000  C
  C36      1.0000 0.74150  0.79460  0.08400  Biso   1.000  C
  H37      1.0000 0.79030  0.99850  0.00260  Biso   1.000  H
  H38      1.0000 0.00150  0.79180  0.00260  Biso   1.000  H
  H39      1.0000 0.20820  0.20970  0.00260  Biso   1.000  H
  H40      1.0000 0.20970  0.00150  0.99740  Biso   1.000  H
  H41      1.0000 0.99850  0.20820  0.99740  Biso   1.000  H
  H42      1.0000 0.79180  0.79030  0.99740  Biso   1.000  H
  H43      1.0000 0.87170  0.11320  0.90540  Biso   1.000  H
  H44      1.0000 0.88680  0.75850  0.90540  Biso   1.000  H
  H45      1.0000 0.24150  0.12830  0.90540  Biso   1.000  H
  H46      1.0000 0.12830  0.88680  0.09460  Biso   1.000  H
  H47      1.0000 0.11320  0.24150  0.09460  Biso   1.000  H
  H48      1.0000 0.75850  0.87170  0.09460  Biso   1.000  H
  H49      1.0000 0.76820  0.01720  0.80050  Biso   1.000  H
  H50      1.0000 0.98280  0.75100  0.80050  Biso   1.000  H
  H51      1.0000 0.24900  0.23180  0.80050  Biso   1.000  H
  H52      1.0000 0.23180  0.98280  0.19950  Biso   1.000  H
  H53      1.0000 0.01720  0.24900  0.19950  Biso   1.000  H
  H54      1.0000 0.75100  0.76820  0.19950  Biso   1.000  H
  O25      1.0000 0.71000  0.90600  0.53900  Biso   1.000  O
  O26      1.0000 0.09400  0.80400  0.53900  Biso   1.000  O
  O27      1.0000 0.19600  0.29000  0.53900  Biso   1.000  O
  O28      1.0000 0.29000  0.09400  0.46100  Biso   1.000  O
  O29      1.0000 0.90600  0.19600  0.46100  Biso   1.000  O
  O30      1.0000 0.80400  0.71000  0.46100  Biso   1.000  O
