data_image0
_cell_length_a       6.9904
_cell_length_b       9.6565
_cell_length_c       14.2151
_cell_angle_alpha    82.948
_cell_angle_beta     85.238
_cell_angle_gamma    76.655

_symmetry_space_group_name_H-M    "P 1"
_symmetry_int_tables_number       1

loop_
  _symmetry_equiv_pos_as_xyz
  'x, y, z'

loop_
  _atom_site_label
  _atom_site_occupancy
  _atom_site_fract_x
  _atom_site_fract_y
  _atom_site_fract_z
  _atom_site_thermal_displace_type
  _atom_site_B_iso_or_equiv
  _atom_site_type_symbol
  La1      1.0000 0.72315  0.59550  0.90431  Biso   1.000  La
  La2      1.0000 0.27685  0.40450  0.09569  Biso   1.000  La
  Cu1      1.0000 0.50000  0.50000  0.50000  Biso   1.000  Cu
  O1       1.0000 0.59800  0.08370  0.89190  Biso   1.000  O
  O2       1.0000 0.40200  0.91630  0.10810  Biso   1.000  O
  N1       1.0000 0.40340  0.80760  0.82270  Biso   1.000  N
  N2       1.0000 0.59660  0.19240  0.17730  Biso   1.000  N
  O3       1.0000 0.95690  0.36880  0.85179  Biso   1.000  O
  O4       1.0000 0.04310  0.63120  0.14821  Biso   1.000  O
  C1       1.0000 0.58650  0.95660  0.88860  Biso   1.000  C
  C2       1.0000 0.41350  0.04340  0.11140  Biso   1.000  C
  O5       1.0000 0.86490  0.65020  0.73385  Biso   1.000  O
  O6       1.0000 0.13510  0.34980  0.26615  Biso   1.000  O
  O7       1.0000 0.73270  0.85200  0.89123  Biso   1.000  O
  O8       1.0000 0.26730  0.14800  0.10877  Biso   1.000  O
  N3       1.0000 0.38380  0.36170  0.59420  Biso   1.000  N
  N4       1.0000 0.61620  0.63830  0.40580  Biso   1.000  N
  C3       1.0000 0.38610  0.92490  0.88050  Biso   1.000  C
  C4       1.0000 0.61390  0.07510  0.11950  Biso   1.000  C
  H1       1.0000 0.32930  0.89910  0.94460  Biso   1.000  H
  H2       1.0000 0.67070  0.10090  0.05540  Biso   1.000  H
  H3       1.0000 0.29620  0.01150  0.85140  Biso   1.000  H
  H4       1.0000 0.70380  0.98850  0.14860  Biso   1.000  H
  O9       1.0000 0.36350  0.61360  0.97135  Biso   1.000  O
  O10      1.0000 0.63650  0.38640  0.02865  Biso   1.000  O
  O11      1.0000 0.66720  0.68250  0.07383  Biso   1.000  O
  O12      1.0000 0.33280  0.31750  0.92617  Biso   1.000  O
  C5       1.0000 0.43710  0.86170  0.72280  Biso   1.000  C
  C6       1.0000 0.56290  0.13830  0.27720  Biso   1.000  C
  H5       1.0000 0.32020  0.93290  0.70190  Biso   1.000  H
  H6       1.0000 0.67980  0.06710  0.29810  Biso   1.000  H
  H7       1.0000 0.46250  0.78210  0.68350  Biso   1.000  H
  H8       1.0000 0.53750  0.21790  0.31650  Biso   1.000  H
  H9       1.0000 0.55090  0.90600  0.71650  Biso   1.000  H
  H10      1.0000 0.44910  0.09400  0.28350  Biso   1.000  H
  O13      1.0000 0.06550  0.60160  0.94095  Biso   1.000  O
  O14      1.0000 0.93450  0.39840  0.05905  Biso   1.000  O
  O15      1.0000 0.90590  0.13330  0.76810  Biso   1.000  O
  O16      1.0000 0.09410  0.86670  0.23190  Biso   1.000  O
  C7       1.0000 0.22060  0.75560  0.83370  Biso   1.000  C
  C8       1.0000 0.77940  0.24440  0.16630  Biso   1.000  C
  H11      1.0000 0.20870  0.70830  0.77710  Biso   1.000  H
  H12      1.0000 0.79130  0.29170  0.22290  Biso   1.000  H
  H13      1.0000 0.10680  0.83800  0.83760  Biso   1.000  H
  H14      1.0000 0.89320  0.16200  0.16240  Biso   1.000  H
  O17      1.0000 0.92280  0.90960  0.63792  Biso   1.000  O
  O18      1.0000 0.07720  0.09040  0.36208  Biso   1.000  O
  O19      1.0000 0.54280  0.48000  0.80067  Biso   1.000  O
  O20      1.0000 0.45720  0.52000  0.19933  Biso   1.000  O
  C9       1.0000 0.21500  0.65200  0.92070  Biso   1.000  C
  C10      1.0000 0.78500  0.34800  0.07930  Biso   1.000  C
  O21      1.0000 0.66130  0.48840  0.65005  Biso   1.000  O
  O22      1.0000 0.33870  0.51160  0.34995  Biso   1.000  O
  C11      1.0000 0.53980  0.46200  0.71460  Biso   1.000  C
  C12      1.0000 0.46020  0.53800  0.28540  Biso   1.000  C
  O23      1.0000 0.67510  0.33060  0.45581  Biso   1.000  O
  O24      1.0000 0.32490  0.66940  0.54419  Biso   1.000  O
  C13      1.0000 0.36140  0.41040  0.68980  Biso   1.000  C
  C14      1.0000 0.63860  0.58960  0.31020  Biso   1.000  C
  H15      1.0000 0.34060  0.33050  0.73730  Biso   1.000  H
  H16      1.0000 0.65940  0.66950  0.26270  Biso   1.000  H
  H17      1.0000 0.24300  0.48930  0.69340  Biso   1.000  H
  H18      1.0000 0.75700  0.51070  0.30660  Biso   1.000  H
  O25      1.0000 0.75440  0.09310  0.48595  Biso   1.000  O
  O26      1.0000 0.24560  0.90690  0.51405  Biso   1.000  O
  C15      1.0000 0.18990  0.35030  0.56500  Biso   1.000  C
  C16      1.0000 0.81010  0.64970  0.43500  Biso   1.000  C
  H19      1.0000 0.13600  0.28330  0.61120  Biso   1.000  H
  H20      1.0000 0.86400  0.71670  0.38880  Biso   1.000  H
  H21      1.0000 0.20590  0.31540  0.50230  Biso   1.000  H
  H22      1.0000 0.79410  0.68460  0.49770  Biso   1.000  H
  H23      1.0000 0.09960  0.44470  0.56210  Biso   1.000  H
  H24      1.0000 0.90040  0.55530  0.43790  Biso   1.000  H
  C17      1.0000 0.52740  0.22160  0.59390  Biso   1.000  C
  C18      1.0000 0.47260  0.77840  0.40610  Biso   1.000  C
  H25      1.0000 0.45490  0.14390  0.59970  Biso   1.000  H
  H26      1.0000 0.54510  0.85610  0.40030  Biso   1.000  H
  H27      1.0000 0.60860  0.20680  0.64970  Biso   1.000  H
  H28      1.0000 0.39140  0.79320  0.35030  Biso   1.000  H
  C19      1.0000 0.66010  0.21340  0.50490  Biso   1.000  C
  C20      1.0000 0.33990  0.78660  0.49510  Biso   1.000  C
