data_image0
_cell_length_a       13.6224
_cell_length_b       13.6224
_cell_length_c       7.4935
_cell_angle_alpha    90
_cell_angle_beta     90
_cell_angle_gamma    120

_symmetry_space_group_name_H-M    "P 1"
_symmetry_int_tables_number       1

loop_
  _symmetry_equiv_pos_as_xyz
  'x, y, z'

loop_
  _atom_site_label
  _atom_site_occupancy
  _atom_site_fract_x
  _atom_site_fract_y
  _atom_site_fract_z
  _atom_site_thermal_displace_type
  _atom_site_B_iso_or_equiv
  _atom_site_type_symbol
  La1      1.0000 0.66670  0.33330  0.65898  Biso   1.000  La
  La2      1.0000 0.33330  0.66670  0.34102  Biso   1.000  La
  Cu1      1.0000 0.00000  0.50000  0.00000  Biso   1.000  Cu
  Cu2      1.0000 0.50000  0.50000  0.00000  Biso   1.000  Cu
  Cu3      1.0000 0.50000  0.00000  0.00000  Biso   1.000  Cu
  O1       1.0000 0.75848  0.55783  0.75810  Biso   1.000  O
  O2       1.0000 0.44217  0.20065  0.75810  Biso   1.000  O
  O3       1.0000 0.79935  0.24152  0.75810  Biso   1.000  O
  O4       1.0000 0.24152  0.44217  0.24190  Biso   1.000  O
  O5       1.0000 0.55783  0.79935  0.24190  Biso   1.000  O
  O6       1.0000 0.20065  0.75848  0.24190  Biso   1.000  O
  O7       1.0000 0.82035  0.45368  0.88270  Biso   1.000  O
  O8       1.0000 0.54632  0.36667  0.88270  Biso   1.000  O
  O9       1.0000 0.63333  0.17965  0.88270  Biso   1.000  O
  O10      1.0000 0.17965  0.54632  0.11730  Biso   1.000  O
  O11      1.0000 0.45368  0.63333  0.11730  Biso   1.000  O
  O12      1.0000 0.36667  0.82035  0.11730  Biso   1.000  O
  O13      1.0000 0.92318  0.40795  0.21140  Biso   1.000  O
  O14      1.0000 0.59205  0.51523  0.21140  Biso   1.000  O
  O15      1.0000 0.48477  0.07682  0.21140  Biso   1.000  O
  O16      1.0000 0.07682  0.59205  0.78860  Biso   1.000  O
  O17      1.0000 0.40795  0.48477  0.78860  Biso   1.000  O
  O18      1.0000 0.51523  0.92318  0.78860  Biso   1.000  O
  O19      1.0000 0.82233  0.40055  0.44810  Biso   1.000  O
  O20      1.0000 0.59945  0.42178  0.44810  Biso   1.000  O
  O21      1.0000 0.57822  0.17767  0.44810  Biso   1.000  O
  O22      1.0000 0.17767  0.59945  0.55190  Biso   1.000  O
  O23      1.0000 0.40055  0.57822  0.55190  Biso   1.000  O
  O24      1.0000 0.42178  0.82233  0.55190  Biso   1.000  O
  N1       1.0000 0.96406  0.61369  0.10590  Biso   1.000  N
  N2       1.0000 0.38631  0.35037  0.10590  Biso   1.000  N
  N3       1.0000 0.64963  0.03594  0.10590  Biso   1.000  N
  N4       1.0000 0.03594  0.38631  0.89410  Biso   1.000  N
  N5       1.0000 0.61369  0.64963  0.89410  Biso   1.000  N
  N6       1.0000 0.35037  0.96406  0.89410  Biso   1.000  N
  H1       1.0000 0.03190  0.67690  0.13990  Biso   1.000  H
  H2       1.0000 0.32310  0.35500  0.13990  Biso   1.000  H
  H3       1.0000 0.64500  0.96810  0.13990  Biso   1.000  H
  H4       1.0000 0.96810  0.32310  0.86010  Biso   1.000  H
  H5       1.0000 0.67690  0.64500  0.86010  Biso   1.000  H
  H6       1.0000 0.35500  0.03190  0.86010  Biso   1.000  H
  C1       1.0000 0.82258  0.54659  0.86350  Biso   1.000  C
  C2       1.0000 0.45341  0.27599  0.86350  Biso   1.000  C
  C3       1.0000 0.72401  0.17742  0.86350  Biso   1.000  C
  C4       1.0000 0.17742  0.45341  0.13650  Biso   1.000  C
  C5       1.0000 0.54659  0.72401  0.13650  Biso   1.000  C
  C6       1.0000 0.27599  0.82258  0.13650  Biso   1.000  C
  C7       1.0000 0.91070  0.64980  0.96790  Biso   1.000  C
  C8       1.0000 0.35020  0.26090  0.96790  Biso   1.000  C
  C9       1.0000 0.73910  0.08930  0.96790  Biso   1.000  C
  C10      1.0000 0.08930  0.35020  0.03210  Biso   1.000  C
  C11      1.0000 0.64980  0.73910  0.03210  Biso   1.000  C
  C12      1.0000 0.26090  0.91070  0.03210  Biso   1.000  C
  H7       1.0000 0.85770  0.66060  0.04690  Biso   1.000  H
  H8       1.0000 0.33940  0.19710  0.04690  Biso   1.000  H
  H9       1.0000 0.80290  0.14230  0.04690  Biso   1.000  H
  H10      1.0000 0.14230  0.33940  0.95310  Biso   1.000  H
  H11      1.0000 0.66060  0.80290  0.95310  Biso   1.000  H
  H12      1.0000 0.19710  0.85770  0.95310  Biso   1.000  H
  C13      1.0000 0.89440  0.56480  0.26780  Biso   1.000  C
  C14      1.0000 0.43520  0.32960  0.26780  Biso   1.000  C
  C15      1.0000 0.67040  0.10560  0.26780  Biso   1.000  C
  C16      1.0000 0.10560  0.43520  0.73220  Biso   1.000  C
  C17      1.0000 0.56480  0.67040  0.73220  Biso   1.000  C
  C18      1.0000 0.32960  0.89440  0.73220  Biso   1.000  C
  H13      1.0000 0.81690  0.54810  0.23160  Biso   1.000  H
  H14      1.0000 0.45190  0.26880  0.23160  Biso   1.000  H
  H15      1.0000 0.73120  0.18310  0.23160  Biso   1.000  H
  H16      1.0000 0.18310  0.45190  0.76840  Biso   1.000  H
  H17      1.0000 0.54810  0.73120  0.76840  Biso   1.000  H
  H18      1.0000 0.26880  0.81690  0.76840  Biso   1.000  H
  C19      1.0000 0.87964  0.44980  0.31290  Biso   1.000  C
  C20      1.0000 0.55020  0.42984  0.31290  Biso   1.000  C
  C21      1.0000 0.57016  0.12036  0.31290  Biso   1.000  C
  C22      1.0000 0.12036  0.55020  0.68710  Biso   1.000  C
  C23      1.0000 0.44980  0.57016  0.68710  Biso   1.000  C
  C24      1.0000 0.42984  0.87964  0.68710  Biso   1.000  C
  C25      1.0000 0.92880  0.65300  0.40990  Biso   1.000  C
  C26      1.0000 0.34700  0.27580  0.40990  Biso   1.000  C
  C27      1.0000 0.72420  0.07120  0.40990  Biso   1.000  C
  C28      1.0000 0.07120  0.34700  0.59010  Biso   1.000  C
  C29      1.0000 0.65300  0.72420  0.59010  Biso   1.000  C
  C30      1.0000 0.27580  0.92880  0.59010  Biso   1.000  C
  H19      1.0000 0.93450  0.72190  0.35860  Biso   1.000  H
  H20      1.0000 0.27810  0.21260  0.35860  Biso   1.000  H
  H21      1.0000 0.78740  0.06550  0.35860  Biso   1.000  H
  H22      1.0000 0.06550  0.27810  0.64140  Biso   1.000  H
  H23      1.0000 0.72190  0.78740  0.64140  Biso   1.000  H
  H24      1.0000 0.21260  0.93450  0.64140  Biso   1.000  H
  H25      1.0000 0.00250  0.67050  0.45890  Biso   1.000  H
  H26      1.0000 0.32950  0.33200  0.45890  Biso   1.000  H
  H27      1.0000 0.66800  0.99750  0.45890  Biso   1.000  H
  H28      1.0000 0.99750  0.32950  0.54110  Biso   1.000  H
  H29      1.0000 0.67050  0.66800  0.54110  Biso   1.000  H
  H30      1.0000 0.33200  0.00250  0.54110  Biso   1.000  H
  H31      1.0000 0.87200  0.62460  0.50530  Biso   1.000  H
  H32      1.0000 0.37540  0.24740  0.50530  Biso   1.000  H
  H33      1.0000 0.75260  0.12800  0.50530  Biso   1.000  H
  H34      1.0000 0.12800  0.37540  0.49470  Biso   1.000  H
  H35      1.0000 0.62460  0.75260  0.49470  Biso   1.000  H
  H36      1.0000 0.24740  0.87200  0.49470  Biso   1.000  H
  C31      1.0000 0.95650  0.74120  0.89740  Biso   1.000  C
  C32      1.0000 0.25880  0.21530  0.89740  Biso   1.000  C
  C33      1.0000 0.78470  0.04350  0.89740  Biso   1.000  C
  C34      1.0000 0.04350  0.25880  0.10260  Biso   1.000  C
  C35      1.0000 0.74120  0.78470  0.10260  Biso   1.000  C
  C36      1.0000 0.21530  0.95650  0.10260  Biso   1.000  C
  H37      1.0000 0.01010  0.79800  0.98100  Biso   1.000  H
  H38      1.0000 0.20200  0.21210  0.98100  Biso   1.000  H
  H39      1.0000 0.78790  0.98990  0.98100  Biso   1.000  H
  H40      1.0000 0.98990  0.20200  0.01900  Biso   1.000  H
  H41      1.0000 0.79800  0.78790  0.01900  Biso   1.000  H
  H42      1.0000 0.21210  0.01010  0.01900  Biso   1.000  H
  H43      1.0000 0.89940  0.76120  0.86240  Biso   1.000  H
  H44      1.0000 0.23880  0.13820  0.86240  Biso   1.000  H
  H45      1.0000 0.86180  0.10060  0.86240  Biso   1.000  H
  H46      1.0000 0.10060  0.23880  0.13760  Biso   1.000  H
  H47      1.0000 0.76120  0.86180  0.13760  Biso   1.000  H
  H48      1.0000 0.13820  0.89940  0.13760  Biso   1.000  H
  H49      1.0000 0.99720  0.73890  0.79110  Biso   1.000  H
  H50      1.0000 0.26110  0.25830  0.79110  Biso   1.000  H
  H51      1.0000 0.74170  0.00280  0.79110  Biso   1.000  H
  H52      1.0000 0.00280  0.26110  0.20890  Biso   1.000  H
  H53      1.0000 0.73890  0.74170  0.20890  Biso   1.000  H
  H54      1.0000 0.25830  0.99720  0.20890  Biso   1.000  H
  O25      1.0000 0.08440  0.80000  0.51100  Biso   1.000  O
  O26      1.0000 0.20000  0.28440  0.51100  Biso   1.000  O
  O27      1.0000 0.71560  0.91560  0.51100  Biso   1.000  O
  O28      1.0000 0.91560  0.20000  0.48900  Biso   1.000  O
  O29      1.0000 0.80000  0.71560  0.48900  Biso   1.000  O
  O30      1.0000 0.28440  0.08440  0.48900  Biso   1.000  O
