data_image0
_cell_length_a       13.6614
_cell_length_b       13.6614
_cell_length_c       7.4147
_cell_angle_alpha    90
_cell_angle_beta     90
_cell_angle_gamma    120

_symmetry_space_group_name_H-M    "P 1"
_symmetry_int_tables_number       1

loop_
  _symmetry_equiv_pos_as_xyz
  'x, y, z'

loop_
  _atom_site_label
  _atom_site_occupancy
  _atom_site_fract_x
  _atom_site_fract_y
  _atom_site_fract_z
  _atom_site_thermal_displace_type
  _atom_site_B_iso_or_equiv
  _atom_site_type_symbol
  Pr1      1.0000 0.33330  0.66670  0.65995  Biso   1.000  Pr
  Pr2      1.0000 0.66670  0.33330  0.34005  Biso   1.000  Pr
  Cu1      1.0000 0.00000  0.50000  0.00000  Biso   1.000  Cu
  Cu2      1.0000 0.50000  0.50000  0.00000  Biso   1.000  Cu
  Cu3      1.0000 0.50000  0.00000  0.00000  Biso   1.000  Cu
  O1       1.0000 0.24429  0.80070  0.75880  Biso   1.000  O
  O2       1.0000 0.19930  0.44359  0.75880  Biso   1.000  O
  O3       1.0000 0.55641  0.75571  0.75880  Biso   1.000  O
  O4       1.0000 0.75571  0.19930  0.24120  Biso   1.000  O
  O5       1.0000 0.80070  0.55641  0.24120  Biso   1.000  O
  O6       1.0000 0.44359  0.24429  0.24120  Biso   1.000  O
  O7       1.0000 0.18097  0.63404  0.87970  Biso   1.000  O
  O8       1.0000 0.36596  0.54693  0.87970  Biso   1.000  O
  O9       1.0000 0.45307  0.81903  0.87970  Biso   1.000  O
  O10      1.0000 0.81903  0.36596  0.12030  Biso   1.000  O
  O11      1.0000 0.63404  0.45307  0.12030  Biso   1.000  O
  O12      1.0000 0.54693  0.18097  0.12030  Biso   1.000  O
  O13      1.0000 0.07844  0.48536  0.21170  Biso   1.000  O
  O14      1.0000 0.51464  0.59308  0.21170  Biso   1.000  O
  O15      1.0000 0.40692  0.92156  0.21170  Biso   1.000  O
  O16      1.0000 0.92156  0.51464  0.78830  Biso   1.000  O
  O17      1.0000 0.48536  0.40692  0.78830  Biso   1.000  O
  O18      1.0000 0.59308  0.07844  0.78830  Biso   1.000  O
  O19      1.0000 0.18052  0.57937  0.44920  Biso   1.000  O
  O20      1.0000 0.42063  0.60115  0.44920  Biso   1.000  O
  O21      1.0000 0.39885  0.81948  0.44920  Biso   1.000  O
  O22      1.0000 0.81948  0.42063  0.55080  Biso   1.000  O
  O23      1.0000 0.57937  0.39885  0.55080  Biso   1.000  O
  O24      1.0000 0.60115  0.18052  0.55080  Biso   1.000  O
  N1       1.0000 0.03667  0.64959  0.10620  Biso   1.000  N
  N2       1.0000 0.35041  0.38708  0.10620  Biso   1.000  N
  N3       1.0000 0.61292  0.96333  0.10620  Biso   1.000  N
  N4       1.0000 0.96333  0.35041  0.89380  Biso   1.000  N
  N5       1.0000 0.64959  0.61292  0.89380  Biso   1.000  N
  N6       1.0000 0.38708  0.03667  0.89380  Biso   1.000  N
  H1       1.0000 0.97080  0.64560  0.14020  Biso   1.000  H
  H2       1.0000 0.35440  0.32520  0.14020  Biso   1.000  H
  H3       1.0000 0.67480  0.02920  0.14020  Biso   1.000  H
  H4       1.0000 0.02920  0.35440  0.85980  Biso   1.000  H
  H5       1.0000 0.64560  0.67480  0.85980  Biso   1.000  H
  H6       1.0000 0.32520  0.97080  0.85980  Biso   1.000  H
  C1       1.0000 0.17936  0.72437  0.86260  Biso   1.000  C
  C2       1.0000 0.27563  0.45499  0.86260  Biso   1.000  C
  C3       1.0000 0.54501  0.82064  0.86260  Biso   1.000  C
  C4       1.0000 0.82064  0.27563  0.13740  Biso   1.000  C
  C5       1.0000 0.72437  0.54501  0.13740  Biso   1.000  C
  C6       1.0000 0.45499  0.17936  0.13740  Biso   1.000  C
  C7       1.0000 0.09020  0.73845  0.96670  Biso   1.000  C
  C8       1.0000 0.26155  0.35175  0.96670  Biso   1.000  C
  C9       1.0000 0.64825  0.90980  0.96670  Biso   1.000  C
  C10      1.0000 0.90980  0.26155  0.03330  Biso   1.000  C
  C11      1.0000 0.73845  0.64825  0.03330  Biso   1.000  C
  C12      1.0000 0.35175  0.09020  0.03330  Biso   1.000  C
  H7       1.0000 0.14310  0.79830  0.04760  Biso   1.000  H
  H8       1.0000 0.20170  0.34480  0.04760  Biso   1.000  H
  H9       1.0000 0.65520  0.85690  0.04760  Biso   1.000  H
  H10      1.0000 0.85690  0.20170  0.95240  Biso   1.000  H
  H11      1.0000 0.79830  0.65520  0.95240  Biso   1.000  H
  H12      1.0000 0.34480  0.14310  0.95240  Biso   1.000  H
  C13      1.0000 0.10700  0.67080  0.26910  Biso   1.000  C
  C14      1.0000 0.32920  0.43620  0.26910  Biso   1.000  C
  C15      1.0000 0.56380  0.89300  0.26910  Biso   1.000  C
  C16      1.0000 0.89300  0.32920  0.73090  Biso   1.000  C
  C17      1.0000 0.67080  0.56380  0.73090  Biso   1.000  C
  C18      1.0000 0.43620  0.10700  0.73090  Biso   1.000  C
  H13      1.0000 0.18260  0.73030  0.23250  Biso   1.000  H
  H14      1.0000 0.26970  0.45230  0.23250  Biso   1.000  H
  H15      1.0000 0.54770  0.81740  0.23250  Biso   1.000  H
  H16      1.0000 0.81740  0.26970  0.76750  Biso   1.000  H
  H17      1.0000 0.73030  0.54770  0.76750  Biso   1.000  H
  H18      1.0000 0.45230  0.18260  0.76750  Biso   1.000  H
  C19      1.0000 0.12209  0.57065  0.31490  Biso   1.000  C
  C20      1.0000 0.42935  0.55144  0.31490  Biso   1.000  C
  C21      1.0000 0.44856  0.87791  0.31490  Biso   1.000  C
  C22      1.0000 0.87791  0.42935  0.68510  Biso   1.000  C
  C23      1.0000 0.57065  0.44856  0.68510  Biso   1.000  C
  C24      1.0000 0.55144  0.12209  0.68510  Biso   1.000  C
  C25      1.0000 0.07310  0.72420  0.41160  Biso   1.000  C
  C26      1.0000 0.27580  0.34890  0.41160  Biso   1.000  C
  C27      1.0000 0.65110  0.92690  0.41160  Biso   1.000  C
  C28      1.0000 0.92690  0.27580  0.58840  Biso   1.000  C
  C29      1.0000 0.72420  0.65110  0.58840  Biso   1.000  C
  C30      1.0000 0.34890  0.07310  0.58840  Biso   1.000  C
  H19      1.0000 0.06740  0.78580  0.36070  Biso   1.000  H
  H20      1.0000 0.21420  0.28160  0.36070  Biso   1.000  H
  H21      1.0000 0.71840  0.93260  0.36070  Biso   1.000  H
  H22      1.0000 0.93260  0.21420  0.63930  Biso   1.000  H
  H23      1.0000 0.78580  0.71840  0.63930  Biso   1.000  H
  H24      1.0000 0.28160  0.06740  0.63930  Biso   1.000  H
  H25      1.0000 0.12880  0.75210  0.50580  Biso   1.000  H
  H26      1.0000 0.24790  0.37670  0.50580  Biso   1.000  H
  H27      1.0000 0.62330  0.87120  0.50580  Biso   1.000  H
  H28      1.0000 0.87120  0.24790  0.49420  Biso   1.000  H
  H29      1.0000 0.75210  0.62330  0.49420  Biso   1.000  H
  H30      1.0000 0.37670  0.12880  0.49420  Biso   1.000  H
  H31      1.0000 0.00130  0.66930  0.46040  Biso   1.000  H
  H32      1.0000 0.33070  0.33200  0.46040  Biso   1.000  H
  H33      1.0000 0.66800  0.99870  0.46040  Biso   1.000  H
  H34      1.0000 0.99870  0.33070  0.53960  Biso   1.000  H
  H35      1.0000 0.66930  0.66800  0.53960  Biso   1.000  H
  H36      1.0000 0.33200  0.00130  0.53960  Biso   1.000  H
  C31      1.0000 0.04700  0.78860  0.90880  Biso   1.000  C
  C32      1.0000 0.21140  0.25840  0.90880  Biso   1.000  C
  C33      1.0000 0.74160  0.95300  0.90880  Biso   1.000  C
  C34      1.0000 0.95300  0.21140  0.09120  Biso   1.000  C
  C35      1.0000 0.78860  0.74160  0.09120  Biso   1.000  C
  C36      1.0000 0.25840  0.04700  0.09120  Biso   1.000  C
  H37      1.0000 0.99390  0.78700  0.99530  Biso   1.000  H
  H38      1.0000 0.21300  0.20690  0.99530  Biso   1.000  H
  H39      1.0000 0.79310  0.00610  0.99530  Biso   1.000  H
  H40      1.0000 0.00610  0.21300  0.00470  Biso   1.000  H
  H41      1.0000 0.78700  0.79310  0.00470  Biso   1.000  H
  H42      1.0000 0.20690  0.99390  0.00470  Biso   1.000  H
  H43      1.0000 0.00820  0.75400  0.79860  Biso   1.000  H
  H44      1.0000 0.24600  0.25420  0.79860  Biso   1.000  H
  H45      1.0000 0.74580  0.99180  0.79860  Biso   1.000  H
  H46      1.0000 0.99180  0.24600  0.20140  Biso   1.000  H
  H47      1.0000 0.75400  0.74580  0.20140  Biso   1.000  H
  H48      1.0000 0.25420  0.00820  0.20140  Biso   1.000  H
  H49      1.0000 0.10380  0.86560  0.88570  Biso   1.000  H
  H50      1.0000 0.13440  0.23820  0.88570  Biso   1.000  H
  H51      1.0000 0.76180  0.89620  0.88570  Biso   1.000  H
  H52      1.0000 0.89620  0.13440  0.11430  Biso   1.000  H
  H53      1.0000 0.86560  0.76180  0.11430  Biso   1.000  H
  H54      1.0000 0.23820  0.10380  0.11430  Biso   1.000  H
  O25      1.0000 0.91800  0.70300  0.52400  Biso   1.000  O
  O26      1.0000 0.29700  0.21500  0.52400  Biso   1.000  O
  O27      1.0000 0.78500  0.08200  0.52400  Biso   1.000  O
  O28      1.0000 0.08200  0.29700  0.47600  Biso   1.000  O
  O29      1.0000 0.70300  0.78500  0.47600  Biso   1.000  O
  O30      1.0000 0.21500  0.91800  0.47600  Biso   1.000  O
