data_image0
_cell_length_a       6.9007
_cell_length_b       9.6327
_cell_length_c       14.1655
_cell_angle_alpha    82.82
_cell_angle_beta     84.971
_cell_angle_gamma    76.703

_symmetry_space_group_name_H-M    "P 1"
_symmetry_int_tables_number       1

loop_
  _symmetry_equiv_pos_as_xyz
  'x, y, z'

loop_
  _atom_site_label
  _atom_site_occupancy
  _atom_site_fract_x
  _atom_site_fract_y
  _atom_site_fract_z
  _atom_site_thermal_displace_type
  _atom_site_B_iso_or_equiv
  _atom_site_type_symbol
  Nd1      1.0000 0.28519  0.40096  0.09631  Biso   1.000  Nd
  Nd2      1.0000 0.71481  0.59904  0.90370  Biso   1.000  Nd
  Cu1      1.0000 0.50000  0.50000  0.50000  Biso   1.000  Cu
  O1       1.0000 0.45610  0.51900  0.19791  Biso   1.000  O
  O2       1.0000 0.54390  0.48100  0.80209  Biso   1.000  O
  O3       1.0000 0.33420  0.31940  0.93000  Biso   1.000  O
  O4       1.0000 0.66580  0.68060  0.07000  Biso   1.000  O
  O5       1.0000 0.32420  0.67070  0.54449  Biso   1.000  O
  O6       1.0000 0.67580  0.32930  0.45551  Biso   1.000  O
  N1       1.0000 0.59790  0.19420  0.17698  Biso   1.000  N
  N2       1.0000 0.40210  0.80580  0.82302  Biso   1.000  N
  O7       1.0000 0.94760  0.39580  0.06064  Biso   1.000  O
  O8       1.0000 0.05240  0.60420  0.93936  Biso   1.000  O
  O9       1.0000 0.64270  0.39250  0.03000  Biso   1.000  O
  O10      1.0000 0.35730  0.60750  0.97000  Biso   1.000  O
  O11      1.0000 0.14040  0.34750  0.26256  Biso   1.000  O
  O12      1.0000 0.85960  0.65250  0.73744  Biso   1.000  O
  O13      1.0000 0.05080  0.62370  0.14490  Biso   1.000  O
  O14      1.0000 0.94920  0.37630  0.85510  Biso   1.000  O
  O15      1.0000 0.33610  0.51090  0.34963  Biso   1.000  O
  O16      1.0000 0.66390  0.48910  0.65037  Biso   1.000  O
  O17      1.0000 0.26950  0.14970  0.10741  Biso   1.000  O
  O18      1.0000 0.73050  0.85030  0.89259  Biso   1.000  O
  C1       1.0000 0.79240  0.34930  0.08010  Biso   1.000  C
  C2       1.0000 0.20760  0.65070  0.91990  Biso   1.000  C
  N3       1.0000 0.61780  0.63810  0.40467  Biso   1.000  N
  N4       1.0000 0.38220  0.36190  0.59533  Biso   1.000  N
  O19      1.0000 0.24700  0.90790  0.51430  Biso   1.000  O
  O20      1.0000 0.75300  0.09210  0.48570  Biso   1.000  O
  C3       1.0000 0.45920  0.53750  0.28470  Biso   1.000  C
  C4       1.0000 0.54080  0.46250  0.71530  Biso   1.000  C
  C5       1.0000 0.33920  0.78700  0.49500  Biso   1.000  C
  C6       1.0000 0.66080  0.21300  0.50500  Biso   1.000  C
  O21      1.0000 0.40440  0.91750  0.10724  Biso   1.000  O
  O22      1.0000 0.59560  0.08250  0.89276  Biso   1.000  O
  O23      1.0000 0.07840  0.08850  0.35995  Biso   1.000  O
  O24      1.0000 0.92160  0.91150  0.64005  Biso   1.000  O
  O25      1.0000 0.09420  0.86270  0.22990  Biso   1.000  O
  O26      1.0000 0.90580  0.13730  0.77010  Biso   1.000  O
  C7       1.0000 0.61790  0.07670  0.11810  Biso   1.000  C
  C8       1.0000 0.38210  0.92330  0.88190  Biso   1.000  C
  H1       1.0000 0.70960  0.99010  0.14680  Biso   1.000  H
  H2       1.0000 0.29040  0.00990  0.85320  Biso   1.000  H
  H3       1.0000 0.67490  0.10380  0.05360  Biso   1.000  H
  H4       1.0000 0.32510  0.89620  0.94640  Biso   1.000  H
  C9       1.0000 0.78190  0.24650  0.16790  Biso   1.000  C
  C10      1.0000 0.21810  0.75350  0.83210  Biso   1.000  C
  H5       1.0000 0.89770  0.16410  0.16570  Biso   1.000  H
  H6       1.0000 0.10230  0.83590  0.83430  Biso   1.000  H
  H7       1.0000 0.78990  0.29490  0.22470  Biso   1.000  H
  H8       1.0000 0.21010  0.70510  0.77530  Biso   1.000  H
  C11      1.0000 0.56250  0.13750  0.27710  Biso   1.000  C
  C12      1.0000 0.43750  0.86250  0.72290  Biso   1.000  C
  H9       1.0000 0.68100  0.06620  0.29790  Biso   1.000  H
  H10      1.0000 0.31900  0.93380  0.70210  Biso   1.000  H
  H11      1.0000 0.44780  0.09230  0.28250  Biso   1.000  H
  H12      1.0000 0.55220  0.90770  0.71750  Biso   1.000  H
  H13      1.0000 0.53510  0.21620  0.31740  Biso   1.000  H
  H14      1.0000 0.46490  0.78380  0.68260  Biso   1.000  H
  C13      1.0000 0.41550  0.04450  0.11060  Biso   1.000  C
  C14      1.0000 0.58450  0.95550  0.88940  Biso   1.000  C
  C15      1.0000 0.63950  0.59020  0.30860  Biso   1.000  C
  C16      1.0000 0.36050  0.40980  0.69140  Biso   1.000  C
  H15      1.0000 0.76000  0.51180  0.30420  Biso   1.000  H
  H16      1.0000 0.24000  0.48820  0.69580  Biso   1.000  H
  H17      1.0000 0.65900  0.67090  0.26090  Biso   1.000  H
  H18      1.0000 0.34100  0.32910  0.73910  Biso   1.000  H
  C17      1.0000 0.47410  0.77860  0.40490  Biso   1.000  C
  C18      1.0000 0.52590  0.22140  0.59510  Biso   1.000  C
  H19      1.0000 0.39170  0.79380  0.34910  Biso   1.000  H
  H20      1.0000 0.60830  0.20620  0.65090  Biso   1.000  H
  H21      1.0000 0.54840  0.85610  0.39890  Biso   1.000  H
  H22      1.0000 0.45160  0.14390  0.60110  Biso   1.000  H
  C19      1.0000 0.81460  0.64970  0.43300  Biso   1.000  C
  C20      1.0000 0.18540  0.35030  0.56700  Biso   1.000  C
  H23      1.0000 0.86920  0.71650  0.38600  Biso   1.000  H
  H24      1.0000 0.13080  0.28350  0.61400  Biso   1.000  H
  H25      1.0000 0.90590  0.55500  0.43600  Biso   1.000  H
  H26      1.0000 0.09410  0.44500  0.56400  Biso   1.000  H
  H27      1.0000 0.79900  0.68510  0.49580  Biso   1.000  H
  H28      1.0000 0.20100  0.31490  0.50420  Biso   1.000  H
