data_image0
_cell_length_a       6.9645
_cell_length_b       9.7081
_cell_length_c       14.259
_cell_angle_alpha    82.88
_cell_angle_beta     85.24
_cell_angle_gamma    76.75

_symmetry_space_group_name_H-M    "P 1"
_symmetry_int_tables_number       1

loop_
  _symmetry_equiv_pos_as_xyz
  'x, y, z'

loop_
  _atom_site_label
  _atom_site_occupancy
  _atom_site_fract_x
  _atom_site_fract_y
  _atom_site_fract_z
  _atom_site_thermal_displace_type
  _atom_site_B_iso_or_equiv
  _atom_site_type_symbol
  Pr1      1.0000 0.28469  0.90118  0.59631  Biso   1.000  Pr
  Pr2      1.0000 0.71531  0.09882  0.40369  Biso   1.000  Pr
  Cu1      1.0000 0.50000  0.00000  0.00000  Biso   1.000  Cu
  O1       1.0000 0.33450  0.81750  0.42890  Biso   1.000  O
  O2       1.0000 0.66550  0.18250  0.57110  Biso   1.000  O
  O3       1.0000 0.35750  0.10790  0.46920  Biso   1.000  O
  O4       1.0000 0.64250  0.89210  0.53080  Biso   1.000  O
  N1       1.0000 0.39950  0.30650  0.32280  Biso   1.000  N
  N2       1.0000 0.60050  0.69350  0.67720  Biso   1.000  N
  O5       1.0000 0.45750  0.01940  0.69910  Biso   1.000  O
  O6       1.0000 0.54250  0.98060  0.30090  Biso   1.000  O
  O7       1.0000 0.05470  0.10410  0.43940  Biso   1.000  O
  O8       1.0000 0.94530  0.89590  0.56060  Biso   1.000  O
  O9       1.0000 0.32430  0.16880  0.04290  Biso   1.000  O
  O10      1.0000 0.67570  0.83120  0.95710  Biso   1.000  O
  O11      1.0000 0.14080  0.84870  0.76320  Biso   1.000  O
  O12      1.0000 0.85920  0.15130  0.23680  Biso   1.000  O
  O13      1.0000 0.33750  0.01130  0.84890  Biso   1.000  O
  O14      1.0000 0.66250  0.98870  0.15110  Biso   1.000  O
  O15      1.0000 0.72880  0.35010  0.39110  Biso   1.000  O
  O16      1.0000 0.27120  0.64990  0.60890  Biso   1.000  O
  C1       1.0000 0.20800  0.15080  0.41980  Biso   1.000  C
  C2       1.0000 0.79200  0.84920  0.58020  Biso   1.000  C
  O17      1.0000 0.05030  0.12520  0.64530  Biso   1.000  O
  O18      1.0000 0.94970  0.87480  0.35470  Biso   1.000  O
  O19      1.0000 0.59520  0.58110  0.39220  Biso   1.000  O
  O20      1.0000 0.40480  0.41890  0.60780  Biso   1.000  O
  N3       1.0000 0.61750  0.13790  0.90510  Biso   1.000  N
  N4       1.0000 0.38250  0.86210  0.09490  Biso   1.000  N
  C3       1.0000 0.58350  0.45420  0.38850  Biso   1.000  C
  C4       1.0000 0.41650  0.54580  0.61150  Biso   1.000  C
  C5       1.0000 0.38260  0.42320  0.38260  Biso   1.000  C
  C6       1.0000 0.61740  0.57680  0.61740  Biso   1.000  C
  H1       1.0000 0.32970  0.39620  0.44550  Biso   1.000  H
  H2       1.0000 0.67030  0.60380  0.55450  Biso   1.000  H
  H3       1.0000 0.29280  0.50790  0.35550  Biso   1.000  H
  H4       1.0000 0.70720  0.49210  0.64450  Biso   1.000  H
  C7       1.0000 0.45920  0.03720  0.78490  Biso   1.000  C
  C8       1.0000 0.54080  0.96280  0.21510  Biso   1.000  C
  C9       1.0000 0.21660  0.25460  0.33370  Biso   1.000  C
  C10      1.0000 0.78340  0.74540  0.66630  Biso   1.000  C
  H5       1.0000 0.20500  0.20940  0.27810  Biso   1.000  H
  H6       1.0000 0.79500  0.79060  0.72190  Biso   1.000  H
  H7       1.0000 0.10500  0.33500  0.33740  Biso   1.000  H
  H8       1.0000 0.89500  0.66500  0.66260  Biso   1.000  H
  C11      1.0000 0.33850  0.28550  0.99430  Biso   1.000  C
  C12      1.0000 0.66150  0.71450  0.00570  Biso   1.000  C
  O21      1.0000 0.24470  0.40410  0.01280  Biso   1.000  O
  O22      1.0000 0.75530  0.59590  0.98720  Biso   1.000  O
  C13      1.0000 0.43490  0.36080  0.22300  Biso   1.000  C
  C14      1.0000 0.56510  0.63920  0.77700  Biso   1.000  C
  H9       1.0000 0.44610  0.28570  0.18370  Biso   1.000  H
  H10      1.0000 0.55390  0.71430  0.81630  Biso   1.000  H
  H11      1.0000 0.55510  0.39460  0.21620  Biso   1.000  H
  H12      1.0000 0.44490  0.60540  0.78380  Biso   1.000  H
  H13      1.0000 0.32660  0.43750  0.20430  Biso   1.000  H
  H14      1.0000 0.67340  0.56250  0.79570  Biso   1.000  H
  C15      1.0000 0.63670  0.09120  0.80950  Biso   1.000  C
  C16      1.0000 0.36330  0.90880  0.19050  Biso   1.000  C
  H15      1.0000 0.75450  0.01580  0.80460  Biso   1.000  H
  H16      1.0000 0.24550  0.98420  0.19540  Biso   1.000  H
  H17      1.0000 0.65390  0.17030  0.76330  Biso   1.000  H
  H18      1.0000 0.34610  0.82970  0.23670  Biso   1.000  H
  C17      1.0000 0.47460  0.27710  0.90620  Biso   1.000  C
  C18      1.0000 0.52540  0.72290  0.09380  Biso   1.000  C
  H19      1.0000 0.39600  0.29300  0.85120  Biso   1.000  H
  H20      1.0000 0.60400  0.70700  0.14880  Biso   1.000  H
  H21      1.0000 0.54680  0.35220  0.90170  Biso   1.000  H
  H22      1.0000 0.45320  0.64780  0.09830  Biso   1.000  H
  C19      1.0000 0.81280  0.14800  0.93360  Biso   1.000  C
  C20      1.0000 0.18720  0.85200  0.06640  Biso   1.000  C
  H23      1.0000 0.86600  0.21330  0.88830  Biso   1.000  H
  H24      1.0000 0.13400  0.78670  0.11170  Biso   1.000  H
  H25      1.0000 0.90060  0.05580  0.93600  Biso   1.000  H
  H26      1.0000 0.09940  0.94420  0.06400  Biso   1.000  H
  H27      1.0000 0.79850  0.18160  0.99490  Biso   1.000  H
  H28      1.0000 0.20150  0.81840  0.00510  Biso   1.000  H
  O23      1.0000 0.92140  0.40740  0.13780  Biso   1.000  O
  O24      1.0000 0.07860  0.59260  0.86220  Biso   1.000  O
  O25      1.0000 0.90770  0.63550  0.27180  Biso   1.000  O
  O26      1.0000 0.09230  0.36450  0.72820  Biso   1.000  O
