data_image0
_cell_length_a       10.953
_cell_length_b       23.056
_cell_length_c       19.811
_cell_angle_alpha    90
_cell_angle_beta     99.88
_cell_angle_gamma    90

_symmetry_space_group_name_H-M    "P 1"
_symmetry_int_tables_number       1

loop_
  _symmetry_equiv_pos_as_xyz
  'x, y, z'

loop_
  _atom_site_label
  _atom_site_occupancy
  _atom_site_fract_x
  _atom_site_fract_y
  _atom_site_fract_z
  _atom_site_thermal_displace_type
  _atom_site_B_iso_or_equiv
  _atom_site_type_symbol
  Cu1      1.0000 0.08994  0.17742  0.89995  Biso   1.000  Cu
  Cu2      1.0000 0.41006  0.67742  0.60005  Biso   1.000  Cu
  Cu3      1.0000 0.91006  0.82258  0.10005  Biso   1.000  Cu
  Cu4      1.0000 0.58994  0.32258  0.39995  Biso   1.000  Cu
  Cu5      1.0000 0.80261  0.32170  0.15253  Biso   1.000  Cu
  Cu6      1.0000 0.69739  0.82170  0.34747  Biso   1.000  Cu
  Cu7      1.0000 0.19739  0.67830  0.84747  Biso   1.000  Cu
  Cu8      1.0000 0.30261  0.17830  0.65253  Biso   1.000  Cu
  Pr1      1.0000 0.03935  0.35385  0.90019  Biso   1.000  Pr
  Pr2      1.0000 0.46065  0.85385  0.59981  Biso   1.000  Pr
  Pr3      1.0000 0.96065  0.64615  0.09981  Biso   1.000  Pr
  Pr4      1.0000 0.53935  0.14615  0.40019  Biso   1.000  Pr
  Pr5      1.0000 0.85108  0.14512  0.14770  Biso   1.000  Pr
  Pr6      1.0000 0.64892  0.64512  0.35230  Biso   1.000  Pr
  Pr7      1.0000 0.14892  0.85488  0.85230  Biso   1.000  Pr
  Pr8      1.0000 0.35108  0.35488  0.64770  Biso   1.000  Pr
  O1       1.0000 0.14620  0.28262  0.97913  Biso   1.000  O
  O2       1.0000 0.35380  0.78262  0.52087  Biso   1.000  O
  O3       1.0000 0.85380  0.71738  0.02087  Biso   1.000  O
  O4       1.0000 0.64620  0.21738  0.47913  Biso   1.000  O
  O5       1.0000 0.17250  0.18757  0.99504  Biso   1.000  O
  O6       1.0000 0.32750  0.68757  0.50496  Biso   1.000  O
  O7       1.0000 0.82750  0.81243  0.00496  Biso   1.000  O
  O8       1.0000 0.67250  0.31243  0.49504  Biso   1.000  O
  O9       1.0000 0.00550  0.20872  0.09869  Biso   1.000  O
  O10      1.0000 0.49450  0.70872  0.40131  Biso   1.000  O
  O11      1.0000 0.99450  0.79128  0.90131  Biso   1.000  O
  O12      1.0000 0.50550  0.29128  0.59869  Biso   1.000  O
  O13      1.0000 0.09090  0.14409  0.17390  Biso   1.000  O
  O14      1.0000 0.40910  0.64409  0.32610  Biso   1.000  O
  O15      1.0000 0.90910  0.85591  0.82610  Biso   1.000  O
  O16      1.0000 0.59090  0.35591  0.67390  Biso   1.000  O
  O17      1.0000 0.47290  0.22899  0.32813  Biso   1.000  O
  O18      1.0000 0.02710  0.72899  0.17187  Biso   1.000  O
  O19      1.0000 0.52710  0.77101  0.67187  Biso   1.000  O
  O20      1.0000 0.97290  0.27101  0.82813  Biso   1.000  O
  O21      1.0000 0.50570  0.32122  0.30408  Biso   1.000  O
  O22      1.0000 0.99430  0.82122  0.19592  Biso   1.000  O
  O23      1.0000 0.49430  0.67878  0.69592  Biso   1.000  O
  O24      1.0000 0.00570  0.17878  0.80408  Biso   1.000  O
  O25      1.0000 0.64390  0.29758  0.18006  Biso   1.000  O
  O26      1.0000 0.85610  0.79758  0.31994  Biso   1.000  O
  O27      1.0000 0.35610  0.70242  0.81994  Biso   1.000  O
  O28      1.0000 0.14390  0.20242  0.68006  Biso   1.000  O
  O29      1.0000 0.53780  0.37889  0.15180  Biso   1.000  O
  O30      1.0000 0.96220  0.87889  0.34820  Biso   1.000  O
  O31      1.0000 0.46220  0.62111  0.84820  Biso   1.000  O
  O32      1.0000 0.03780  0.12111  0.65180  Biso   1.000  O
  O33      1.0000 0.17000  0.53949  0.96230  Biso   1.000  O
  O34      1.0000 0.33000  0.03949  0.53770  Biso   1.000  O
  O35      1.0000 0.83000  0.46051  0.03770  Biso   1.000  O
  O36      1.0000 0.67000  0.96051  0.46230  Biso   1.000  O
  O37      1.0000 0.20200  0.48813  0.05890  Biso   1.000  O
  O38      1.0000 0.29800  0.98813  0.44110  Biso   1.000  O
  O39      1.0000 0.79800  0.51187  0.94110  Biso   1.000  O
  O40      1.0000 0.70200  0.01187  0.55890  Biso   1.000  O
  O41      1.0000 0.22590  0.40980  0.94100  Biso   1.000  O
  O42      1.0000 0.27410  0.90980  0.55900  Biso   1.000  O
  O43      1.0000 0.77410  0.59020  0.05900  Biso   1.000  O
  O44      1.0000 0.72590  0.09020  0.44100  Biso   1.000  O
  O45      1.0000 0.39480  0.36060  0.92960  Biso   1.000  O
  O46      1.0000 0.10520  0.86060  0.57040  Biso   1.000  O
  O47      1.0000 0.60520  0.63940  0.07040  Biso   1.000  O
  O48      1.0000 0.89480  0.13940  0.42960  Biso   1.000  O
  O49      1.0000 0.24730  0.19603  0.86812  Biso   1.000  O
  O50      1.0000 0.25270  0.69603  0.63188  Biso   1.000  O
  O51      1.0000 0.75270  0.80397  0.13188  Biso   1.000  O
  O52      1.0000 0.74730  0.30397  0.36812  Biso   1.000  O
  O53      1.0000 0.36140  0.12070  0.90840  Biso   1.000  O
  O54      1.0000 0.13860  0.62070  0.59160  Biso   1.000  O
  O55      1.0000 0.63860  0.87930  0.09160  Biso   1.000  O
  O56      1.0000 0.86140  0.37930  0.40840  Biso   1.000  O
  O57      1.0000 0.38560  0.17996  0.74821  Biso   1.000  O
  O58      1.0000 0.11440  0.67996  0.75179  Biso   1.000  O
  O59      1.0000 0.61440  0.82004  0.25179  Biso   1.000  O
  O60      1.0000 0.88560  0.32004  0.24821  Biso   1.000  O
  O61      1.0000 0.40940  0.27233  0.72333  Biso   1.000  O
  O62      1.0000 0.09060  0.77233  0.77667  Biso   1.000  O
  O63      1.0000 0.59060  0.72767  0.27667  Biso   1.000  O
  O64      1.0000 0.90940  0.22767  0.22333  Biso   1.000  O
  O65      1.0000 0.79510  0.36132  0.87860  Biso   1.000  O
  O66      1.0000 0.70490  0.86132  0.62140  Biso   1.000  O
  O67      1.0000 0.20490  0.63868  0.12140  Biso   1.000  O
  O68      1.0000 0.29510  0.13868  0.37860  Biso   1.000  O
  O69      1.0000 0.88130  0.29553  0.95243  Biso   1.000  O
  O70      1.0000 0.61870  0.79553  0.54757  Biso   1.000  O
  O71      1.0000 0.11870  0.70447  0.04757  Biso   1.000  O
  O72      1.0000 0.38130  0.20447  0.45243  Biso   1.000  O
  O73      1.0000 0.73980  0.21654  0.07177  Biso   1.000  O
  O74      1.0000 0.76020  0.71654  0.42823  Biso   1.000  O
  O75      1.0000 0.26020  0.78346  0.92823  Biso   1.000  O
  O76      1.0000 0.23980  0.28346  0.57177  Biso   1.000  O
  O77      1.0000 0.72460  0.31244  0.05720  Biso   1.000  O
  O78      1.0000 0.77540  0.81244  0.44280  Biso   1.000  O
  O79      1.0000 0.27540  0.68756  0.94280  Biso   1.000  O
  O80      1.0000 0.22460  0.18756  0.55720  Biso   1.000  O
  O81      1.0000 0.02350  0.39696  0.01878  Biso   1.000  O
  O82      1.0000 0.47650  0.89696  0.48122  Biso   1.000  O
  O83      1.0000 0.97650  0.60304  0.98122  Biso   1.000  O
  O84      1.0000 0.52350  0.10304  0.51878  Biso   1.000  O
  O85      1.0000 0.98480  0.46025  0.88880  Biso   1.000  O
  O86      1.0000 0.51520  0.96025  0.61120  Biso   1.000  O
  O87      1.0000 0.01520  0.53975  0.11120  Biso   1.000  O
  O88      1.0000 0.48480  0.03975  0.38880  Biso   1.000  O
  O89      1.0000 0.01980  0.39050  0.77810  Biso   1.000  O
  O90      1.0000 0.48020  0.89050  0.72190  Biso   1.000  O
  O91      1.0000 0.98020  0.60950  0.22190  Biso   1.000  O
  O92      1.0000 0.51980  0.10950  0.27810  Biso   1.000  O
  O93      1.0000 0.21980  0.31248  0.84680  Biso   1.000  O
  O94      1.0000 0.28020  0.81248  0.65320  Biso   1.000  O
  O95      1.0000 0.78020  0.68752  0.15320  Biso   1.000  O
  O96      1.0000 0.71980  0.18752  0.34680  Biso   1.000  O
  O97      1.0000 0.66050  0.17780  0.19680  Biso   1.000  O
  O98      1.0000 0.83950  0.67780  0.30320  Biso   1.000  O
  O99      1.0000 0.33950  0.82220  0.80320  Biso   1.000  O
  O100     1.0000 0.16050  0.32220  0.69680  Biso   1.000  O
  O101     1.0000 0.87160  0.10850  0.26850  Biso   1.000  O
  O102     1.0000 0.62840  0.60850  0.23150  Biso   1.000  O
  O103     1.0000 0.12840  0.89150  0.73150  Biso   1.000  O
  O104     1.0000 0.37160  0.39150  0.76850  Biso   1.000  O
  O105     1.0000 0.91890  0.04000  0.16200  Biso   1.000  O
  O106     1.0000 0.58110  0.54000  0.33800  Biso   1.000  O
  O107     1.0000 0.08110  0.96000  0.83800  Biso   1.000  O
  O108     1.0000 0.41890  0.46000  0.66200  Biso   1.000  O
  O109     1.0000 0.66930  0.08250  0.10210  Biso   1.000  O
  O110     1.0000 0.83070  0.58250  0.39790  Biso   1.000  O
  O111     1.0000 0.33070  0.91750  0.89790  Biso   1.000  O
  O112     1.0000 0.16930  0.41750  0.60210  Biso   1.000  O
  O113     1.0000 0.89150  0.10480  0.03700  Biso   1.000  O
  O114     1.0000 0.60850  0.60480  0.46300  Biso   1.000  O
  O115     1.0000 0.10850  0.89520  0.96300  Biso   1.000  O
  O116     1.0000 0.39150  0.39520  0.53700  Biso   1.000  O
  O117     1.0000 0.92750  0.18032  0.93364  Biso   1.000  O
  O118     1.0000 0.57250  0.68032  0.56636  Biso   1.000  O
  O119     1.0000 0.07250  0.81968  0.06636  Biso   1.000  O
  O120     1.0000 0.42750  0.31968  0.43364  Biso   1.000  O
  O121     1.0000 0.10570  0.08140  0.90930  Biso   1.000  O
  O122     1.0000 0.39430  0.58140  0.59070  Biso   1.000  O
  O123     1.0000 0.89430  0.91860  0.09070  Biso   1.000  O
  O124     1.0000 0.60570  0.41860  0.40930  Biso   1.000  O
  O125     1.0000 0.76860  0.41710  0.15160  Biso   1.000  O
  O126     1.0000 0.73140  0.91710  0.34840  Biso   1.000  O
  O127     1.0000 0.23140  0.58290  0.84840  Biso   1.000  O
  O128     1.0000 0.26860  0.08290  0.65160  Biso   1.000  O
  O129     1.0000 0.97060  0.32179  0.12167  Biso   1.000  O
  O130     1.0000 0.52940  0.82179  0.37833  Biso   1.000  O
  O131     1.0000 0.02940  0.67821  0.87833  Biso   1.000  O
  O132     1.0000 0.47060  0.17821  0.62167  Biso   1.000  O
  C1       1.0000 0.25180  0.24920  0.08650  Biso   1.000  C
  C2       1.0000 0.24820  0.74920  0.41350  Biso   1.000  C
  C3       1.0000 0.74820  0.75080  0.91350  Biso   1.000  C
  C4       1.0000 0.75180  0.25080  0.58650  Biso   1.000  C
  C5       1.0000 0.21920  0.21980  0.14310  Biso   1.000  C
  C6       1.0000 0.28080  0.71980  0.35690  Biso   1.000  C
  C7       1.0000 0.78080  0.78020  0.85690  Biso   1.000  C
  C8       1.0000 0.71920  0.28020  0.64310  Biso   1.000  C
  C9       1.0000 0.29230  0.22610  0.20690  Biso   1.000  C
  C10      1.0000 0.20770  0.72610  0.29310  Biso   1.000  C
  C11      1.0000 0.70770  0.77390  0.79310  Biso   1.000  C
  C12      1.0000 0.79230  0.27390  0.70690  Biso   1.000  C
  H1       1.0000 0.27200  0.20580  0.24400  Biso   1.000  H
  H2       1.0000 0.22800  0.70580  0.25600  Biso   1.000  H
  H3       1.0000 0.72800  0.79420  0.75600  Biso   1.000  H
  H4       1.0000 0.77200  0.29420  0.74400  Biso   1.000  H
  C13      1.0000 0.39560  0.26230  0.21670  Biso   1.000  C
  C14      1.0000 0.10440  0.76230  0.28330  Biso   1.000  C
  C15      1.0000 0.60440  0.73770  0.78330  Biso   1.000  C
  C16      1.0000 0.89560  0.23770  0.71670  Biso   1.000  C
  C17      1.0000 0.42740  0.29180  0.16030  Biso   1.000  C
  C18      1.0000 0.07260  0.79180  0.33970  Biso   1.000  C
  C19      1.0000 0.57260  0.70820  0.83970  Biso   1.000  C
  C20      1.0000 0.92740  0.20820  0.66030  Biso   1.000  C
  C21      1.0000 0.35580  0.28500  0.09570  Biso   1.000  C
  C22      1.0000 0.14420  0.78500  0.40430  Biso   1.000  C
  C23      1.0000 0.64420  0.71500  0.90430  Biso   1.000  C
  C24      1.0000 0.85580  0.21500  0.59570  Biso   1.000  C
  H5       1.0000 0.37750  0.30440  0.05830  Biso   1.000  H
  H6       1.0000 0.12250  0.80440  0.44170  Biso   1.000  H
  H7       1.0000 0.62250  0.69560  0.94170  Biso   1.000  H
  H8       1.0000 0.87750  0.19560  0.55830  Biso   1.000  H
  C25      1.0000 0.18310  0.23980  0.01490  Biso   1.000  C
  C26      1.0000 0.31690  0.73980  0.48510  Biso   1.000  C
  C27      1.0000 0.81690  0.76020  0.98510  Biso   1.000  C
  C28      1.0000 0.68310  0.26020  0.51490  Biso   1.000  C
  C29      1.0000 0.09890  0.18780  0.13760  Biso   1.000  C
  C30      1.0000 0.40110  0.68780  0.36240  Biso   1.000  C
  C31      1.0000 0.90110  0.81220  0.86240  Biso   1.000  C
  C32      1.0000 0.59890  0.31220  0.63760  Biso   1.000  C
  C33      1.0000 0.46420  0.27110  0.28780  Biso   1.000  C
  C34      1.0000 0.03580  0.77110  0.21220  Biso   1.000  C
  C35      1.0000 0.53580  0.72890  0.71220  Biso   1.000  C
  C36      1.0000 0.96420  0.22890  0.78780  Biso   1.000  C
  C37      1.0000 0.54490  0.32660  0.16580  Biso   1.000  C
  C38      1.0000 0.95510  0.82660  0.33420  Biso   1.000  C
  C39      1.0000 0.45510  0.67340  0.83420  Biso   1.000  C
  C40      1.0000 0.04490  0.17340  0.66580  Biso   1.000  C
  C41      1.0000 0.37320  0.50370  0.00150  Biso   1.000  C
  C42      1.0000 0.12680  0.00370  0.49850  Biso   1.000  C
  C43      1.0000 0.62680  0.49630  0.99850  Biso   1.000  C
  C44      1.0000 0.87320  0.99630  0.50150  Biso   1.000  C
  C45      1.0000 0.42200  0.45350  0.97640  Biso   1.000  C
  C46      1.0000 0.07800  0.95350  0.52360  Biso   1.000  C
  C47      1.0000 0.57800  0.54650  0.02360  Biso   1.000  C
  C48      1.0000 0.92200  0.04650  0.47640  Biso   1.000  C
  C49      1.0000 0.45080  0.54950  0.02460  Biso   1.000  C
  C50      1.0000 0.04920  0.04950  0.47540  Biso   1.000  C
  C51      1.0000 0.54920  0.45050  0.97540  Biso   1.000  C
  C52      1.0000 0.95080  0.95050  0.52460  Biso   1.000  C
  H9       1.0000 0.41790  0.58280  0.04100  Biso   1.000  H
  H10      1.0000 0.08210  0.08280  0.45900  Biso   1.000  H
  H11      1.0000 0.58210  0.41720  0.95900  Biso   1.000  H
  H12      1.0000 0.91790  0.91720  0.54100  Biso   1.000  H
  C53      1.0000 0.23890  0.50980  0.00820  Biso   1.000  C
  C54      1.0000 0.26110  0.00980  0.49180  Biso   1.000  C
  C55      1.0000 0.76110  0.49020  0.99180  Biso   1.000  C
  C56      1.0000 0.73890  0.99020  0.50820  Biso   1.000  C
  C57      1.0000 0.34160  0.40420  0.94710  Biso   1.000  C
  C58      1.0000 0.15840  0.90420  0.55290  Biso   1.000  C
  C59      1.0000 0.65840  0.59580  0.05290  Biso   1.000  C
  C60      1.0000 0.84160  0.09580  0.44710  Biso   1.000  C
  C61      1.0000 0.46320  0.20890  0.89150  Biso   1.000  C
  C62      1.0000 0.03680  0.70890  0.60850  Biso   1.000  C
  C63      1.0000 0.53680  0.79110  0.10850  Biso   1.000  C
  C64      1.0000 0.96320  0.29110  0.39150  Biso   1.000  C
  C65      1.0000 0.49140  0.24030  0.83590  Biso   1.000  C
  C66      1.0000 0.00860  0.74030  0.66410  Biso   1.000  C
  C67      1.0000 0.50860  0.75970  0.16410  Biso   1.000  C
  C68      1.0000 0.99140  0.25970  0.33590  Biso   1.000  C
  C69      1.0000 0.59170  0.27800  0.84530  Biso   1.000  C
  C70      1.0000 0.90830  0.77800  0.65470  Biso   1.000  C
  C71      1.0000 0.40830  0.72200  0.15470  Biso   1.000  C
  C72      1.0000 0.09170  0.22200  0.34530  Biso   1.000  C
  H13      1.0000 0.60890  0.29950  0.80840  Biso   1.000  H
  H14      1.0000 0.89110  0.79950  0.69160  Biso   1.000  H
  H15      1.0000 0.39110  0.70050  0.19160  Biso   1.000  H
  H16      1.0000 0.10890  0.20050  0.30840  Biso   1.000  H
  C73      1.0000 0.66680  0.28410  0.90890  Biso   1.000  C
  C74      1.0000 0.83320  0.78410  0.59110  Biso   1.000  C
  C75      1.0000 0.33320  0.71590  0.09110  Biso   1.000  C
  C76      1.0000 0.16680  0.21590  0.40890  Biso   1.000  C
  C77      1.0000 0.63890  0.25290  0.96530  Biso   1.000  C
  C78      1.0000 0.86110  0.75290  0.53470  Biso   1.000  C
  C79      1.0000 0.36110  0.74710  0.03470  Biso   1.000  C
  C80      1.0000 0.13890  0.24710  0.46530  Biso   1.000  C
  C81      1.0000 0.53650  0.21570  0.95560  Biso   1.000  C
  C82      1.0000 0.96350  0.71570  0.54440  Biso   1.000  C
  C83      1.0000 0.46350  0.78430  0.04440  Biso   1.000  C
  C84      1.0000 0.03650  0.28430  0.45560  Biso   1.000  C
  H17      1.0000 0.51720  0.19520  0.99280  Biso   1.000  H
  H18      1.0000 0.98280  0.69520  0.50720  Biso   1.000  H
  H19      1.0000 0.48280  0.80480  0.00720  Biso   1.000  H
  H20      1.0000 0.01720  0.30480  0.49280  Biso   1.000  H
  C85      1.0000 0.34950  0.17120  0.88820  Biso   1.000  C
  C86      1.0000 0.15050  0.67120  0.61180  Biso   1.000  C
  C87      1.0000 0.65050  0.82880  0.11180  Biso   1.000  C
  C88      1.0000 0.84950  0.32880  0.38820  Biso   1.000  C
  C89      1.0000 0.42210  0.23080  0.76420  Biso   1.000  C
  C90      1.0000 0.07790  0.73080  0.73580  Biso   1.000  C
  C91      1.0000 0.57790  0.76920  0.23580  Biso   1.000  C
  C92      1.0000 0.92210  0.26920  0.26420  Biso   1.000  C
  C93      1.0000 0.78730  0.31700  0.91420  Biso   1.000  C
  C94      1.0000 0.71270  0.81700  0.58580  Biso   1.000  C
  C95      1.0000 0.21270  0.68300  0.08580  Biso   1.000  C
  C96      1.0000 0.28730  0.18300  0.41420  Biso   1.000  C
  C97      1.0000 0.70830  0.26090  0.03640  Biso   1.000  C
  C98      1.0000 0.79170  0.76090  0.46360  Biso   1.000  C
  C99      1.0000 0.29170  0.73910  0.96360  Biso   1.000  C
  C100     1.0000 0.20830  0.23910  0.53640  Biso   1.000  C
  O133     1.0000 0.83150  0.06220  0.66800  Biso   1.000  O
  O134     1.0000 0.66850  0.56220  0.83200  Biso   1.000  O
  O135     1.0000 0.16850  0.93780  0.33200  Biso   1.000  O
  O136     1.0000 0.33150  0.43780  0.16800  Biso   1.000  O
  O137     1.0000 0.74160  0.12630  0.85740  Biso   1.000  O
  O138     1.0000 0.75840  0.62630  0.64260  Biso   1.000  O
  O139     1.0000 0.25840  0.87370  0.14260  Biso   1.000  O
  O140     1.0000 0.24160  0.37370  0.35740  Biso   1.000  O
  O141     1.0000 0.64560  0.11760  0.72210  Biso   1.000  O
  O142     1.0000 0.85440  0.61760  0.77790  Biso   1.000  O
  O143     1.0000 0.35440  0.88240  0.27790  Biso   1.000  O
  O144     1.0000 0.14560  0.38240  0.22210  Biso   1.000  O
  O145     1.0000 0.60590  0.43560  0.80730  Biso   1.000  O
  O146     1.0000 0.89410  0.93560  0.69270  Biso   1.000  O
  O147     1.0000 0.39410  0.56440  0.19270  Biso   1.000  O
  O148     1.0000 0.10590  0.06440  0.30730  Biso   1.000  O
  O149     1.0000 0.29730  0.07510  0.19370  Biso   1.000  O
  O150     1.0000 0.20270  0.57510  0.30630  Biso   1.000  O
  O151     1.0000 0.70270  0.92490  0.80630  Biso   1.000  O
  O152     1.0000 0.79730  0.42490  0.69370  Biso   1.000  O
  O153     1.0000 0.58490  0.06320  0.92970  Biso   1.000  O
  O154     1.0000 0.91510  0.56320  0.57030  Biso   1.000  O
  O155     1.0000 0.41510  0.93680  0.07030  Biso   1.000  O
  O156     1.0000 0.08490  0.43680  0.42970  Biso   1.000  O
  O157     1.0000 0.41190  0.11620  0.08100  Biso   1.000  O
  O158     1.0000 0.08810  0.61620  0.41900  Biso   1.000  O
  O159     1.0000 0.58810  0.88380  0.91900  Biso   1.000  O
  O160     1.0000 0.91190  0.38380  0.58100  Biso   1.000  O
