data_image0
_cell_length_a       10.92
_cell_length_b       20.369
_cell_length_c       19.792
_cell_angle_alpha    90
_cell_angle_beta     99.59
_cell_angle_gamma    90

_symmetry_space_group_name_H-M    "P 1"
_symmetry_int_tables_number       1

loop_
  _symmetry_equiv_pos_as_xyz
  'x, y, z'

loop_
  _atom_site_label
  _atom_site_occupancy
  _atom_site_fract_x
  _atom_site_fract_y
  _atom_site_fract_z
  _atom_site_thermal_displace_type
  _atom_site_B_iso_or_equiv
  _atom_site_type_symbol
  Pr1      1.0000 0.53724  0.12753  0.34516  Biso   1.000  Pr
  Pr2      1.0000 0.96276  0.62753  0.15484  Biso   1.000  Pr
  Pr3      1.0000 0.46276  0.87247  0.65484  Biso   1.000  Pr
  Pr4      1.0000 0.03724  0.37247  0.84516  Biso   1.000  Pr
  Pr5      1.0000 0.33938  0.37365  0.58124  Biso   1.000  Pr
  Pr6      1.0000 0.16062  0.87365  0.91876  Biso   1.000  Pr
  Pr7      1.0000 0.66062  0.62635  0.41876  Biso   1.000  Pr
  Pr8      1.0000 0.83938  0.12635  0.08124  Biso   1.000  Pr
  Cu1      1.0000 0.57855  0.32662  0.33025  Biso   1.000  Cu
  Cu2      1.0000 0.92145  0.82662  0.16975  Biso   1.000  Cu
  Cu3      1.0000 0.42145  0.67338  0.66975  Biso   1.000  Cu
  Cu4      1.0000 0.07855  0.17338  0.83025  Biso   1.000  Cu
  Cu5      1.0000 0.29507  0.17310  0.58911  Biso   1.000  Cu
  Cu6      1.0000 0.20493  0.67310  0.91089  Biso   1.000  Cu
  Cu7      1.0000 0.70493  0.82690  0.41089  Biso   1.000  Cu
  Cu8      1.0000 0.79507  0.32690  0.08911  Biso   1.000  Cu
  C1       1.0000 0.74410  0.26067  0.51998  Biso   1.000  C
  C2       1.0000 0.75590  0.76067  0.98002  Biso   1.000  C
  C3       1.0000 0.25590  0.73933  0.48002  Biso   1.000  C
  C4       1.0000 0.24410  0.23933  0.01998  Biso   1.000  C
  C5       1.0000 0.71210  0.29665  0.57495  Biso   1.000  C
  C6       1.0000 0.78790  0.79665  0.92505  Biso   1.000  C
  C7       1.0000 0.28790  0.70335  0.42505  Biso   1.000  C
  C8       1.0000 0.21210  0.20335  0.07495  Biso   1.000  C
  C9       1.0000 0.78610  0.29288  0.63881  Biso   1.000  C
  C10      1.0000 0.71390  0.79288  0.86119  Biso   1.000  C
  C11      1.0000 0.21390  0.70712  0.36119  Biso   1.000  C
  C12      1.0000 0.28610  0.20712  0.13881  Biso   1.000  C
  H1       1.0000 0.76760  0.31850  0.67460  Biso   1.000  H
  H2       1.0000 0.73240  0.81850  0.82540  Biso   1.000  H
  H3       1.0000 0.23240  0.68150  0.32540  Biso   1.000  H
  H4       1.0000 0.26760  0.18150  0.17460  Biso   1.000  H
  C13      1.0000 0.88820  0.25086  0.64974  Biso   1.000  C
  C14      1.0000 0.61180  0.75086  0.85026  Biso   1.000  C
  C15      1.0000 0.11180  0.74914  0.35026  Biso   1.000  C
  C16      1.0000 0.38820  0.24914  0.14974  Biso   1.000  C
  C17      1.0000 0.92020  0.21468  0.59537  Biso   1.000  C
  C18      1.0000 0.57980  0.71468  0.90463  Biso   1.000  C
  C19      1.0000 0.07980  0.78532  0.40463  Biso   1.000  C
  C20      1.0000 0.42020  0.28532  0.09537  Biso   1.000  C
  C21      1.0000 0.84760  0.22020  0.53054  Biso   1.000  C
  C22      1.0000 0.65240  0.72020  0.96946  Biso   1.000  C
  C23      1.0000 0.15240  0.77980  0.46946  Biso   1.000  C
  C24      1.0000 0.34760  0.27980  0.03054  Biso   1.000  C
  H5       1.0000 0.86880  0.19640  0.49410  Biso   1.000  H
  H6       1.0000 0.63120  0.69640  0.00590  Biso   1.000  H
  H7       1.0000 0.13120  0.80360  0.50590  Biso   1.000  H
  H8       1.0000 0.36880  0.30360  0.99410  Biso   1.000  H
  C25      1.0000 0.67340  0.26787  0.44879  Biso   1.000  C
  C26      1.0000 0.82660  0.76787  0.05121  Biso   1.000  C
  C27      1.0000 0.32660  0.73213  0.55121  Biso   1.000  C
  C28      1.0000 0.17340  0.23213  0.94879  Biso   1.000  C
  C29      1.0000 0.58960  0.33130  0.56951  Biso   1.000  C
  C30      1.0000 0.91040  0.83130  0.93049  Biso   1.000  C
  C31      1.0000 0.41040  0.66870  0.43049  Biso   1.000  C
  C32      1.0000 0.08960  0.16870  0.06951  Biso   1.000  C
  C33      1.0000 0.95550  0.24140  0.72115  Biso   1.000  C
  C34      1.0000 0.54450  0.74140  0.77885  Biso   1.000  C
  C35      1.0000 0.04450  0.75860  0.27885  Biso   1.000  C
  C36      1.0000 0.45550  0.25860  0.22115  Biso   1.000  C
  C37      1.0000 0.03440  0.17169  0.60493  Biso   1.000  C
  C38      1.0000 0.46560  0.67169  0.89507  Biso   1.000  C
  C39      1.0000 0.96560  0.82831  0.39507  Biso   1.000  C
  C40      1.0000 0.53440  0.32831  0.10493  Biso   1.000  C
  C41      1.0000 0.87300  0.98737  0.48738  Biso   1.000  C
  C42      1.0000 0.62700  0.48737  0.01262  Biso   1.000  C
  C43      1.0000 0.12700  0.01263  0.51262  Biso   1.000  C
  C44      1.0000 0.37300  0.51263  0.98738  Biso   1.000  C
  C45      1.0000 0.92270  0.03424  0.44890  Biso   1.000  C
  C46      1.0000 0.57730  0.53424  0.05110  Biso   1.000  C
  C47      1.0000 0.07730  0.96576  0.55110  Biso   1.000  C
  C48      1.0000 0.42270  0.46576  0.94890  Biso   1.000  C
  C49      1.0000 0.95060  0.95347  0.53858  Biso   1.000  C
  C50      1.0000 0.54940  0.45347  0.96142  Biso   1.000  C
  C51      1.0000 0.04940  0.04653  0.46142  Biso   1.000  C
  C52      1.0000 0.45060  0.54653  0.03858  Biso   1.000  C
  H9       1.0000 0.91720  0.92230  0.56470  Biso   1.000  H
  H10      1.0000 0.58280  0.42230  0.93530  Biso   1.000  H
  H11      1.0000 0.08280  0.07770  0.43530  Biso   1.000  H
  H12      1.0000 0.41720  0.57770  0.06470  Biso   1.000  H
  C53      1.0000 0.73780  0.96983  0.47661  Biso   1.000  C
  C54      1.0000 0.76220  0.46983  0.02339  Biso   1.000  C
  C55      1.0000 0.26220  0.03017  0.52339  Biso   1.000  C
  C56      1.0000 0.23780  0.53017  0.97661  Biso   1.000  C
  C57      1.0000 0.84240  0.07470  0.39580  Biso   1.000  C
  C58      1.0000 0.65760  0.57470  0.10420  Biso   1.000  C
  C59      1.0000 0.15760  0.92530  0.60420  Biso   1.000  C
  C60      1.0000 0.34240  0.42530  0.89580  Biso   1.000  C
  C61      1.0000 0.95580  0.29263  0.32613  Biso   1.000  C
  C62      1.0000 0.54420  0.79263  0.17387  Biso   1.000  C
  C63      1.0000 0.04420  0.70737  0.67387  Biso   1.000  C
  C64      1.0000 0.45580  0.20737  0.82613  Biso   1.000  C
  C65      1.0000 0.98550  0.25615  0.27114  Biso   1.000  C
  C66      1.0000 0.51450  0.75615  0.22886  Biso   1.000  C
  C67      1.0000 0.01450  0.74385  0.72886  Biso   1.000  C
  C68      1.0000 0.48550  0.24385  0.77114  Biso   1.000  C
  C69      1.0000 0.08790  0.21400  0.28210  Biso   1.000  C
  C70      1.0000 0.41210  0.71400  0.21790  Biso   1.000  C
  C71      1.0000 0.91210  0.78600  0.71790  Biso   1.000  C
  C72      1.0000 0.58790  0.28600  0.78210  Biso   1.000  C
  H13      1.0000 0.10640  0.18860  0.24610  Biso   1.000  H
  H14      1.0000 0.39360  0.68860  0.25390  Biso   1.000  H
  H15      1.0000 0.89360  0.81140  0.75390  Biso   1.000  H
  H16      1.0000 0.60640  0.31140  0.74610  Biso   1.000  H
  C73      1.0000 0.16260  0.20956  0.34591  Biso   1.000  C
  C74      1.0000 0.33740  0.70956  0.15409  Biso   1.000  C
  C75      1.0000 0.83740  0.79044  0.65409  Biso   1.000  C
  C76      1.0000 0.66260  0.29044  0.84591  Biso   1.000  C
  C77      1.0000 0.13290  0.24696  0.40045  Biso   1.000  C
  C78      1.0000 0.36710  0.74696  0.09955  Biso   1.000  C
  C79      1.0000 0.86710  0.75304  0.59955  Biso   1.000  C
  C80      1.0000 0.63290  0.25304  0.90045  Biso   1.000  C
  C81      1.0000 0.03060  0.28775  0.39026  Biso   1.000  C
  C82      1.0000 0.46940  0.78775  0.10974  Biso   1.000  C
  C83      1.0000 0.96940  0.71225  0.60974  Biso   1.000  C
  C84      1.0000 0.53060  0.21225  0.89026  Biso   1.000  C
  H17      1.0000 0.01130  0.31230  0.42670  Biso   1.000  H
  H18      1.0000 0.48870  0.81230  0.07330  Biso   1.000  H
  H19      1.0000 0.98870  0.68770  0.57330  Biso   1.000  H
  H20      1.0000 0.51130  0.18770  0.92670  Biso   1.000  H
  C85      1.0000 0.91650  0.26581  0.20004  Biso   1.000  C
  C86      1.0000 0.58350  0.76581  0.29996  Biso   1.000  C
  C87      1.0000 0.08350  0.73419  0.79996  Biso   1.000  C
  C88      1.0000 0.41650  0.23419  0.70004  Biso   1.000  C
  C89      1.0000 0.28350  0.17193  0.35324  Biso   1.000  C
  C90      1.0000 0.21650  0.67193  0.14676  Biso   1.000  C
  C91      1.0000 0.71650  0.82807  0.64676  Biso   1.000  C
  C92      1.0000 0.78350  0.32807  0.85324  Biso   1.000  C
  C93      1.0000 0.20180  0.23996  0.47244  Biso   1.000  C
  C94      1.0000 0.29820  0.73996  0.02756  Biso   1.000  C
  C95      1.0000 0.79820  0.76004  0.52756  Biso   1.000  C
  C96      1.0000 0.70180  0.26004  0.97244  Biso   1.000  C
  O1       1.0000 0.63930  0.21790  0.41440  Biso   1.000  O
  O2       1.0000 0.86070  0.71790  0.08560  Biso   1.000  O
  O3       1.0000 0.36070  0.78210  0.58560  Biso   1.000  O
  O4       1.0000 0.13930  0.28210  0.91440  Biso   1.000  O
  O5       1.0000 0.65700  0.32583  0.42641  Biso   1.000  O
  O6       1.0000 0.84300  0.82583  0.07359  Biso   1.000  O
  O7       1.0000 0.34300  0.67417  0.57359  Biso   1.000  O
  O8       1.0000 0.15700  0.17417  0.92641  Biso   1.000  O
  O9       1.0000 0.49680  0.30586  0.53162  Biso   1.000  O
  O10      1.0000 0.00320  0.80586  0.96838  Biso   1.000  O
  O11      1.0000 0.50320  0.69414  0.46838  Biso   1.000  O
  O12      1.0000 0.99680  0.19414  0.03162  Biso   1.000  O
  O13      1.0000 0.57890  0.38131  0.60519  Biso   1.000  O
  O14      1.0000 0.92110  0.88131  0.89481  Biso   1.000  O
  O15      1.0000 0.42110  0.61869  0.39481  Biso   1.000  O
  O16      1.0000 0.07890  0.11869  0.10519  Biso   1.000  O
  O17      1.0000 0.96200  0.28839  0.76223  Biso   1.000  O
  O18      1.0000 0.53800  0.78839  0.73777  Biso   1.000  O
  O19      1.0000 0.03800  0.71161  0.23777  Biso   1.000  O
  O20      1.0000 0.46200  0.21161  0.26223  Biso   1.000  O
  O21      1.0000 0.99810  0.18529  0.73615  Biso   1.000  O
  O22      1.0000 0.50190  0.68529  0.76385  Biso   1.000  O
  O23      1.0000 0.00190  0.81471  0.26385  Biso   1.000  O
  O24      1.0000 0.49810  0.31471  0.23615  Biso   1.000  O
  O25      1.0000 0.13620  0.20441  0.61331  Biso   1.000  O
  O26      1.0000 0.36380  0.70441  0.88669  Biso   1.000  O
  O27      1.0000 0.86380  0.79559  0.38669  Biso   1.000  O
  O28      1.0000 0.63620  0.29559  0.11331  Biso   1.000  O
  O29      1.0000 0.02450  0.11220  0.60178  Biso   1.000  O
  O30      1.0000 0.47550  0.61220  0.89822  Biso   1.000  O
  O31      1.0000 0.97550  0.88780  0.39822  Biso   1.000  O
  O32      1.0000 0.52450  0.38780  0.10178  Biso   1.000  O
  O33      1.0000 0.69170  0.93571  0.42520  Biso   1.000  O
  O34      1.0000 0.80830  0.43571  0.07480  Biso   1.000  O
  O35      1.0000 0.30830  0.06429  0.57480  Biso   1.000  O
  O36      1.0000 0.19170  0.56429  0.92520  Biso   1.000  O
  O37      1.0000 0.67640  0.98939  0.52169  Biso   1.000  O
  O38      1.0000 0.82360  0.48939  0.97831  Biso   1.000  O
  O39      1.0000 0.32360  0.01061  0.47831  Biso   1.000  O
  O40      1.0000 0.17640  0.51061  0.02169  Biso   1.000  O
  O41      1.0000 0.72620  0.07505  0.39640  Biso   1.000  O
  O42      1.0000 0.77380  0.57505  0.10360  Biso   1.000  O
  O43      1.0000 0.27380  0.92495  0.60360  Biso   1.000  O
  O44      1.0000 0.22620  0.42495  0.89640  Biso   1.000  O
  O45      1.0000 0.89300  0.10730  0.35430  Biso   1.000  O
  O46      1.0000 0.60700  0.60730  0.14570  Biso   1.000  O
  O47      1.0000 0.10700  0.89270  0.64570  Biso   1.000  O
  O48      1.0000 0.39300  0.39270  0.85430  Biso   1.000  O
  O49      1.0000 0.73920  0.30263  0.30368  Biso   1.000  O
  O50      1.0000 0.76080  0.80263  0.19632  Biso   1.000  O
  O51      1.0000 0.26080  0.69737  0.69632  Biso   1.000  O
  O52      1.0000 0.23920  0.19737  0.80368  Biso   1.000  O
  O53      1.0000 0.84860  0.39138  0.34093  Biso   1.000  O
  O54      1.0000 0.65140  0.89138  0.15907  Biso   1.000  O
  O55      1.0000 0.15140  0.60862  0.65907  Biso   1.000  O
  O56      1.0000 0.34860  0.10862  0.84093  Biso   1.000  O
  O57      1.0000 0.87460  0.32251  0.18504  Biso   1.000  O
  O58      1.0000 0.62540  0.82251  0.31496  Biso   1.000  O
  O59      1.0000 0.12540  0.67749  0.81496  Biso   1.000  O
  O60      1.0000 0.37460  0.17749  0.68504  Biso   1.000  O
  O61      1.0000 0.90760  0.21885  0.15864  Biso   1.000  O
  O62      1.0000 0.59240  0.71885  0.34136  Biso   1.000  O
  O63      1.0000 0.09240  0.78115  0.84136  Biso   1.000  O
  O64      1.0000 0.40760  0.28115  0.65864  Biso   1.000  O
  O65      1.0000 0.29220  0.11971  0.32240  Biso   1.000  O
  O66      1.0000 0.20780  0.61971  0.17760  Biso   1.000  O
  O67      1.0000 0.70780  0.88029  0.67760  Biso   1.000  O
  O68      1.0000 0.79220  0.38029  0.82240  Biso   1.000  O
  O69      1.0000 0.37720  0.19950  0.38895  Biso   1.000  O
  O70      1.0000 0.12280  0.69950  0.11105  Biso   1.000  O
  O71      1.0000 0.62280  0.80050  0.61105  Biso   1.000  O
  O72      1.0000 0.87720  0.30050  0.88895  Biso   1.000  O
  O73      1.0000 0.22930  0.29091  0.50728  Biso   1.000  O
  O74      1.0000 0.27070  0.79091  0.99272  Biso   1.000  O
  O75      1.0000 0.77070  0.70909  0.49272  Biso   1.000  O
  O76      1.0000 0.72930  0.20909  0.00728  Biso   1.000  O
  O77      1.0000 0.22180  0.18231  0.49350  Biso   1.000  O
  O78      1.0000 0.27820  0.68231  0.00650  Biso   1.000  O
  O79      1.0000 0.77820  0.81769  0.50650  Biso   1.000  O
  O80      1.0000 0.72180  0.31769  0.99350  Biso   1.000  O
  O81      1.0000 0.51240  0.08899  0.46484  Biso   1.000  O
  O82      1.0000 0.98760  0.58899  0.03516  Biso   1.000  O
  O83      1.0000 0.48760  0.91101  0.53516  Biso   1.000  O
  O84      1.0000 0.01240  0.41101  0.96484  Biso   1.000  O
  O85      1.0000 0.49910  0.00282  0.34465  Biso   1.000  O
  O86      1.0000 0.00090  0.50282  0.15535  Biso   1.000  O
  O87      1.0000 0.50090  0.99718  0.65535  Biso   1.000  O
  O88      1.0000 0.99910  0.49718  0.84465  Biso   1.000  O
  O89      1.0000 0.51580  0.07850  0.22700  Biso   1.000  O
  O90      1.0000 0.98420  0.57850  0.27300  Biso   1.000  O
  O91      1.0000 0.48420  0.92150  0.77300  Biso   1.000  O
  O92      1.0000 0.01580  0.42150  0.72700  Biso   1.000  O
  O93      1.0000 0.71310  0.17131  0.28436  Biso   1.000  O
  O94      1.0000 0.78690  0.67131  0.21564  Biso   1.000  O
  O95      1.0000 0.28690  0.82869  0.71564  Biso   1.000  O
  O96      1.0000 0.21310  0.32869  0.78436  Biso   1.000  O
  O97      1.0000 0.16240  0.33571  0.64216  Biso   1.000  O
  O98      1.0000 0.33760  0.83571  0.85784  Biso   1.000  O
  O99      1.0000 0.83760  0.66429  0.35784  Biso   1.000  O
  O100     1.0000 0.66240  0.16429  0.14216  Biso   1.000  O
  O101     1.0000 0.38340  0.42060  0.70146  Biso   1.000  O
  O102     1.0000 0.11660  0.92060  0.79854  Biso   1.000  O
  O103     1.0000 0.61660  0.57940  0.29854  Biso   1.000  O
  O104     1.0000 0.88340  0.07940  0.20146  Biso   1.000  O
  O105     1.0000 0.38630  0.49587  0.57865  Biso   1.000  O
  O106     1.0000 0.11370  0.99587  0.92135  Biso   1.000  O
  O107     1.0000 0.61370  0.50413  0.42135  Biso   1.000  O
  O108     1.0000 0.88630  0.00413  0.07865  Biso   1.000  O
  O109     1.0000 0.14520  0.43780  0.53820  Biso   1.000  O
  O110     1.0000 0.35480  0.93780  0.96180  Biso   1.000  O
  O111     1.0000 0.85480  0.56220  0.46180  Biso   1.000  O
  O112     1.0000 0.64520  0.06220  0.03820  Biso   1.000  O
  O113     1.0000 0.38070  0.41679  0.46671  Biso   1.000  O
  O114     1.0000 0.11930  0.91679  0.03329  Biso   1.000  O
  O115     1.0000 0.61930  0.58321  0.53329  Biso   1.000  O
  O116     1.0000 0.88070  0.08321  0.96671  Biso   1.000  O
  O117     1.0000 0.41020  0.32753  0.36130  Biso   1.000  O
  O118     1.0000 0.08980  0.82753  0.13870  Biso   1.000  O
  O119     1.0000 0.58980  0.67247  0.63870  Biso   1.000  O
  O120     1.0000 0.91020  0.17247  0.86130  Biso   1.000  O
  O121     1.0000 0.57020  0.43393  0.30880  Biso   1.000  O
  O122     1.0000 0.92980  0.93393  0.19120  Biso   1.000  O
  O123     1.0000 0.42980  0.56607  0.69120  Biso   1.000  O
  O124     1.0000 0.07020  0.06607  0.80880  Biso   1.000  O
  O125     1.0000 0.46660  0.17776  0.56217  Biso   1.000  O
  O126     1.0000 0.03340  0.67776  0.93783  Biso   1.000  O
  O127     1.0000 0.53340  0.82224  0.43783  Biso   1.000  O
  O128     1.0000 0.96660  0.32224  0.06217  Biso   1.000  O
  C97      1.0000 0.84010  0.33347  0.32229  Biso   1.000  C
  C98      1.0000 0.65990  0.83347  0.17771  Biso   1.000  C
  C99      1.0000 0.15990  0.66653  0.67771  Biso   1.000  C
  C100     1.0000 0.34010  0.16653  0.82229  Biso   1.000  C
  O129     1.0000 0.74840  0.97720  0.90710  Biso   1.000  O
  O130     1.0000 0.75160  0.47720  0.59290  Biso   1.000  O
  O131     1.0000 0.25160  0.02280  0.09290  Biso   1.000  O
  O132     1.0000 0.24840  0.52280  0.40710  Biso   1.000  O
  O133     1.0000 0.80930  0.06100  0.63170  Biso   1.000  O
  O134     1.0000 0.69070  0.56100  0.86830  Biso   1.000  O
  O135     1.0000 0.19070  0.93900  0.36830  Biso   1.000  O
  O136     1.0000 0.30930  0.43900  0.13170  Biso   1.000  O
  O137     1.0000 0.61460  0.92400  0.01080  Biso   1.000  O
  O138     1.0000 0.88540  0.42400  0.48920  Biso   1.000  O
  O139     1.0000 0.38540  0.07600  0.98920  Biso   1.000  O
  O140     1.0000 0.11460  0.57600  0.51080  Biso   1.000  O
  O141     1.0000 0.55960  0.04400  0.81710  Biso   1.000  O
  O142     1.0000 0.94040  0.54400  0.68290  Biso   1.000  O
  O143     1.0000 0.44040  0.95600  0.18290  Biso   1.000  O
  O144     1.0000 0.05960  0.45600  0.31710  Biso   1.000  O
  O145     1.0000 0.19140  0.04430  0.70740  Biso   1.000  O
  O146     1.0000 0.30860  0.54430  0.79260  Biso   1.000  O
  O147     1.0000 0.80860  0.95570  0.29260  Biso   1.000  O
  O148     1.0000 0.69140  0.45570  0.20740  Biso   1.000  O
  O149     1.0000 0.65040  0.12510  0.67890  Biso   1.000  O
  O150     1.0000 0.84960  0.62510  0.82110  Biso   1.000  O
  O151     1.0000 0.34960  0.87490  0.32110  Biso   1.000  O
  O152     1.0000 0.15040  0.37490  0.17890  Biso   1.000  O
  O153     1.0000 0.86320  0.97890  0.74580  Biso   1.000  O
  O154     1.0000 0.63680  0.47890  0.75420  Biso   1.000  O
  O155     1.0000 0.13680  0.02110  0.25420  Biso   1.000  O
  O156     1.0000 0.36320  0.52110  0.24580  Biso   1.000  O
  O157     1.0000 0.73180  0.12150  0.76690  Biso   1.000  O
  O158     1.0000 0.76820  0.62150  0.73310  Biso   1.000  O
  O159     1.0000 0.26820  0.87850  0.23310  Biso   1.000  O
  O160     1.0000 0.23180  0.37850  0.26690  Biso   1.000  O
