data_image0
_cell_length_a       10.906
_cell_length_b       20.212
_cell_length_c       19.769
_cell_angle_alpha    90
_cell_angle_beta     99.22
_cell_angle_gamma    90

_symmetry_space_group_name_H-M    "P 1"
_symmetry_int_tables_number       1

loop_
  _symmetry_equiv_pos_as_xyz
  'x, y, z'

loop_
  _atom_site_label
  _atom_site_occupancy
  _atom_site_fract_x
  _atom_site_fract_y
  _atom_site_fract_z
  _atom_site_thermal_displace_type
  _atom_site_B_iso_or_equiv
  _atom_site_type_symbol
  Pr1      1.0000 0.53240  0.12631  0.34506  Biso   1.000  Pr
  Pr2      1.0000 0.96760  0.62631  0.15494  Biso   1.000  Pr
  Pr3      1.0000 0.46760  0.87369  0.65494  Biso   1.000  Pr
  Pr4      1.0000 0.03240  0.37369  0.84506  Biso   1.000  Pr
  Pr5      1.0000 0.33304  0.37606  0.58280  Biso   1.000  Pr
  Pr6      1.0000 0.16696  0.87606  0.91720  Biso   1.000  Pr
  Pr7      1.0000 0.66696  0.62394  0.41720  Biso   1.000  Pr
  Pr8      1.0000 0.83304  0.12394  0.08280  Biso   1.000  Pr
  Cu1      1.0000 0.57202  0.32735  0.33172  Biso   1.000  Cu
  Cu2      1.0000 0.92798  0.82735  0.16828  Biso   1.000  Cu
  Cu3      1.0000 0.42798  0.67265  0.66828  Biso   1.000  Cu
  Cu4      1.0000 0.07202  0.17265  0.83172  Biso   1.000  Cu
  Cu5      1.0000 0.28846  0.17465  0.58907  Biso   1.000  Cu
  Cu6      1.0000 0.21154  0.67465  0.91093  Biso   1.000  Cu
  Cu7      1.0000 0.71154  0.82535  0.41093  Biso   1.000  Cu
  Cu8      1.0000 0.78846  0.32535  0.08907  Biso   1.000  Cu
  C1       1.0000 0.73820  0.26100  0.52150  Biso   1.000  C
  C2       1.0000 0.76180  0.76100  0.97850  Biso   1.000  C
  C3       1.0000 0.26180  0.73900  0.47850  Biso   1.000  C
  C4       1.0000 0.23820  0.23900  0.02150  Biso   1.000  C
  C5       1.0000 0.70620  0.29720  0.57640  Biso   1.000  C
  C6       1.0000 0.79380  0.79720  0.92360  Biso   1.000  C
  C7       1.0000 0.29380  0.70280  0.42360  Biso   1.000  C
  C8       1.0000 0.20620  0.20280  0.07640  Biso   1.000  C
  C9       1.0000 0.78040  0.29350  0.64070  Biso   1.000  C
  C10      1.0000 0.71960  0.79350  0.85930  Biso   1.000  C
  C11      1.0000 0.21960  0.70650  0.35930  Biso   1.000  C
  C12      1.0000 0.28040  0.20650  0.14070  Biso   1.000  C
  H1       1.0000 0.76170  0.31940  0.67650  Biso   1.000  H
  H2       1.0000 0.73830  0.81940  0.82350  Biso   1.000  H
  H3       1.0000 0.23830  0.68060  0.32350  Biso   1.000  H
  H4       1.0000 0.26170  0.18060  0.17650  Biso   1.000  H
  C13      1.0000 0.88210  0.25120  0.65140  Biso   1.000  C
  C14      1.0000 0.61790  0.75120  0.84860  Biso   1.000  C
  C15      1.0000 0.11790  0.74880  0.34860  Biso   1.000  C
  C16      1.0000 0.38210  0.24880  0.15140  Biso   1.000  C
  C17      1.0000 0.91410  0.21440  0.59690  Biso   1.000  C
  C18      1.0000 0.58590  0.71440  0.90310  Biso   1.000  C
  C19      1.0000 0.08590  0.78560  0.40310  Biso   1.000  C
  C20      1.0000 0.41410  0.28560  0.09690  Biso   1.000  C
  C21      1.0000 0.84230  0.21990  0.53180  Biso   1.000  C
  C22      1.0000 0.65770  0.71990  0.96820  Biso   1.000  C
  C23      1.0000 0.15770  0.78010  0.46820  Biso   1.000  C
  C24      1.0000 0.34230  0.28010  0.03180  Biso   1.000  C
  H5       1.0000 0.86400  0.19610  0.49520  Biso   1.000  H
  H6       1.0000 0.63600  0.69610  0.00480  Biso   1.000  H
  H7       1.0000 0.13600  0.80390  0.50480  Biso   1.000  H
  H8       1.0000 0.36400  0.30390  0.99520  Biso   1.000  H
  C25      1.0000 0.66790  0.26830  0.45000  Biso   1.000  C
  C26      1.0000 0.83210  0.76830  0.05000  Biso   1.000  C
  C27      1.0000 0.33210  0.73170  0.55000  Biso   1.000  C
  C28      1.0000 0.16790  0.23170  0.95000  Biso   1.000  C
  C29      1.0000 0.58400  0.33290  0.57160  Biso   1.000  C
  C30      1.0000 0.91600  0.83290  0.92840  Biso   1.000  C
  C31      1.0000 0.41600  0.66710  0.42840  Biso   1.000  C
  C32      1.0000 0.08400  0.16710  0.07160  Biso   1.000  C
  C33      1.0000 0.94850  0.24120  0.72270  Biso   1.000  C
  C34      1.0000 0.55150  0.74120  0.77730  Biso   1.000  C
  C35      1.0000 0.05150  0.75880  0.27730  Biso   1.000  C
  C36      1.0000 0.44850  0.25880  0.22270  Biso   1.000  C
  C37      1.0000 0.02990  0.17220  0.60590  Biso   1.000  C
  C38      1.0000 0.47010  0.67220  0.89410  Biso   1.000  C
  C39      1.0000 0.97010  0.82780  0.39410  Biso   1.000  C
  C40      1.0000 0.52990  0.32780  0.10590  Biso   1.000  C
  C41      1.0000 0.87360  0.98610  0.48710  Biso   1.000  C
  C42      1.0000 0.62640  0.48610  0.01290  Biso   1.000  C
  C43      1.0000 0.12640  0.01390  0.51290  Biso   1.000  C
  C44      1.0000 0.37360  0.51390  0.98710  Biso   1.000  C
  C45      1.0000 0.92240  0.03400  0.44780  Biso   1.000  C
  C46      1.0000 0.57760  0.53400  0.05220  Biso   1.000  C
  C47      1.0000 0.07760  0.96600  0.55220  Biso   1.000  C
  C48      1.0000 0.42240  0.46600  0.94780  Biso   1.000  C
  C49      1.0000 0.95100  0.95300  0.53930  Biso   1.000  C
  C50      1.0000 0.54900  0.45300  0.96070  Biso   1.000  C
  C51      1.0000 0.04900  0.04700  0.46070  Biso   1.000  C
  C52      1.0000 0.45100  0.54700  0.03930  Biso   1.000  C
  H9       1.0000 0.91740  0.92180  0.56570  Biso   1.000  H
  H10      1.0000 0.58260  0.42180  0.93430  Biso   1.000  H
  H11      1.0000 0.08260  0.07820  0.43430  Biso   1.000  H
  H12      1.0000 0.41740  0.57820  0.06570  Biso   1.000  H
  C53      1.0000 0.73830  0.96800  0.47510  Biso   1.000  C
  C54      1.0000 0.76170  0.46800  0.02490  Biso   1.000  C
  C55      1.0000 0.26170  0.03200  0.52490  Biso   1.000  C
  C56      1.0000 0.23830  0.53200  0.97510  Biso   1.000  C
  C57      1.0000 0.84020  0.07410  0.39420  Biso   1.000  C
  C58      1.0000 0.65980  0.57410  0.10580  Biso   1.000  C
  C59      1.0000 0.15980  0.92590  0.60580  Biso   1.000  C
  C60      1.0000 0.34020  0.42590  0.89420  Biso   1.000  C
  C61      1.0000 0.94940  0.29430  0.32650  Biso   1.000  C
  C62      1.0000 0.55060  0.79430  0.17350  Biso   1.000  C
  C63      1.0000 0.05060  0.70570  0.67350  Biso   1.000  C
  C64      1.0000 0.44940  0.20570  0.82650  Biso   1.000  C
  C65      1.0000 0.97920  0.25700  0.27180  Biso   1.000  C
  C66      1.0000 0.52080  0.75700  0.22820  Biso   1.000  C
  C67      1.0000 0.02080  0.74300  0.72820  Biso   1.000  C
  C68      1.0000 0.47920  0.24300  0.77180  Biso   1.000  C
  C69      1.0000 0.08160  0.21430  0.28300  Biso   1.000  C
  C70      1.0000 0.41840  0.71430  0.21700  Biso   1.000  C
  C71      1.0000 0.91840  0.78570  0.71700  Biso   1.000  C
  C72      1.0000 0.58160  0.28570  0.78300  Biso   1.000  C
  H13      1.0000 0.09920  0.18810  0.24710  Biso   1.000  H
  H14      1.0000 0.40080  0.68810  0.25290  Biso   1.000  H
  H15      1.0000 0.90080  0.81190  0.75290  Biso   1.000  H
  H16      1.0000 0.59920  0.31190  0.74710  Biso   1.000  H
  C73      1.0000 0.15710  0.21030  0.34620  Biso   1.000  C
  C74      1.0000 0.34290  0.71030  0.15380  Biso   1.000  C
  C75      1.0000 0.84290  0.78970  0.65380  Biso   1.000  C
  C76      1.0000 0.65710  0.28970  0.84620  Biso   1.000  C
  C77      1.0000 0.12730  0.24840  0.40080  Biso   1.000  C
  C78      1.0000 0.37270  0.74840  0.09920  Biso   1.000  C
  C79      1.0000 0.87270  0.75160  0.59920  Biso   1.000  C
  C80      1.0000 0.62730  0.25160  0.90080  Biso   1.000  C
  C81      1.0000 0.02520  0.29010  0.39090  Biso   1.000  C
  C82      1.0000 0.47480  0.79010  0.10910  Biso   1.000  C
  C83      1.0000 0.97480  0.70990  0.60910  Biso   1.000  C
  C84      1.0000 0.52520  0.20990  0.89090  Biso   1.000  C
  H17      1.0000 0.00670  0.31550  0.42720  Biso   1.000  H
  H18      1.0000 0.49330  0.81550  0.07280  Biso   1.000  H
  H19      1.0000 0.99330  0.68450  0.57280  Biso   1.000  H
  H20      1.0000 0.50670  0.18450  0.92720  Biso   1.000  H
  C85      1.0000 0.90960  0.26520  0.20070  Biso   1.000  C
  C86      1.0000 0.59040  0.76520  0.29930  Biso   1.000  C
  C87      1.0000 0.09040  0.73480  0.79930  Biso   1.000  C
  C88      1.0000 0.40960  0.23480  0.70070  Biso   1.000  C
  C89      1.0000 0.27680  0.17160  0.35370  Biso   1.000  C
  C90      1.0000 0.22320  0.67160  0.14630  Biso   1.000  C
  C91      1.0000 0.72320  0.82840  0.64630  Biso   1.000  C
  C92      1.0000 0.77680  0.32840  0.85370  Biso   1.000  C
  C93      1.0000 0.19570  0.24160  0.47280  Biso   1.000  C
  C94      1.0000 0.30430  0.74160  0.02720  Biso   1.000  C
  C95      1.0000 0.80430  0.75840  0.52720  Biso   1.000  C
  C96      1.0000 0.69570  0.25840  0.97280  Biso   1.000  C
  O1       1.0000 0.63360  0.21728  0.41589  Biso   1.000  O
  O2       1.0000 0.86640  0.71728  0.08411  Biso   1.000  O
  O3       1.0000 0.36640  0.78272  0.58411  Biso   1.000  O
  O4       1.0000 0.13360  0.28272  0.91589  Biso   1.000  O
  O5       1.0000 0.65350  0.32689  0.42729  Biso   1.000  O
  O6       1.0000 0.84650  0.82689  0.07271  Biso   1.000  O
  O7       1.0000 0.34650  0.67311  0.57271  Biso   1.000  O
  O8       1.0000 0.15350  0.17311  0.92729  Biso   1.000  O
  O9       1.0000 0.49120  0.30793  0.53358  Biso   1.000  O
  O10      1.0000 0.00880  0.80793  0.96642  Biso   1.000  O
  O11      1.0000 0.50880  0.69207  0.46642  Biso   1.000  O
  O12      1.0000 0.99120  0.19207  0.03358  Biso   1.000  O
  O13      1.0000 0.57370  0.38292  0.60790  Biso   1.000  O
  O14      1.0000 0.92630  0.88292  0.89210  Biso   1.000  O
  O15      1.0000 0.42630  0.61708  0.39210  Biso   1.000  O
  O16      1.0000 0.07370  0.11708  0.10790  Biso   1.000  O
  O17      1.0000 0.95550  0.28809  0.76432  Biso   1.000  O
  O18      1.0000 0.54450  0.78809  0.73568  Biso   1.000  O
  O19      1.0000 0.04450  0.71191  0.23568  Biso   1.000  O
  O20      1.0000 0.45550  0.21191  0.26432  Biso   1.000  O
  O21      1.0000 0.99090  0.18401  0.73727  Biso   1.000  O
  O22      1.0000 0.50910  0.68401  0.76273  Biso   1.000  O
  O23      1.0000 0.00910  0.81599  0.26273  Biso   1.000  O
  O24      1.0000 0.49090  0.31599  0.23727  Biso   1.000  O
  O25      1.0000 0.13100  0.20651  0.61441  Biso   1.000  O
  O26      1.0000 0.36900  0.70651  0.88559  Biso   1.000  O
  O27      1.0000 0.86900  0.79349  0.38559  Biso   1.000  O
  O28      1.0000 0.63100  0.29349  0.11441  Biso   1.000  O
  O29      1.0000 0.02390  0.11182  0.60210  Biso   1.000  O
  O30      1.0000 0.47610  0.61182  0.89790  Biso   1.000  O
  O31      1.0000 0.97610  0.88818  0.39790  Biso   1.000  O
  O32      1.0000 0.52390  0.38818  0.10210  Biso   1.000  O
  O33      1.0000 0.69350  0.93363  0.42413  Biso   1.000  O
  O34      1.0000 0.80650  0.43363  0.07587  Biso   1.000  O
  O35      1.0000 0.30650  0.06637  0.57587  Biso   1.000  O
  O36      1.0000 0.19350  0.56637  0.92413  Biso   1.000  O
  O37      1.0000 0.67610  0.98786  0.52025  Biso   1.000  O
  O38      1.0000 0.82390  0.48786  0.97975  Biso   1.000  O
  O39      1.0000 0.32390  0.01214  0.47975  Biso   1.000  O
  O40      1.0000 0.17610  0.51214  0.02025  Biso   1.000  O
  O41      1.0000 0.72460  0.07446  0.39646  Biso   1.000  O
  O42      1.0000 0.77540  0.57446  0.10354  Biso   1.000  O
  O43      1.0000 0.27540  0.92554  0.60354  Biso   1.000  O
  O44      1.0000 0.22460  0.42554  0.89646  Biso   1.000  O
  O45      1.0000 0.89120  0.10580  0.35160  Biso   1.000  O
  O46      1.0000 0.60880  0.60580  0.14840  Biso   1.000  O
  O47      1.0000 0.10880  0.89420  0.64840  Biso   1.000  O
  O48      1.0000 0.39120  0.39420  0.85160  Biso   1.000  O
  O49      1.0000 0.73150  0.30338  0.30321  Biso   1.000  O
  O50      1.0000 0.76850  0.80338  0.19679  Biso   1.000  O
  O51      1.0000 0.26850  0.69662  0.69679  Biso   1.000  O
  O52      1.0000 0.23150  0.19662  0.80321  Biso   1.000  O
  O53      1.0000 0.83880  0.39300  0.34360  Biso   1.000  O
  O54      1.0000 0.66120  0.89300  0.15640  Biso   1.000  O
  O55      1.0000 0.16120  0.60700  0.65640  Biso   1.000  O
  O56      1.0000 0.33880  0.10700  0.84360  Biso   1.000  O
  O57      1.0000 0.86760  0.32275  0.18455  Biso   1.000  O
  O58      1.0000 0.63240  0.82275  0.31545  Biso   1.000  O
  O59      1.0000 0.13240  0.67725  0.81545  Biso   1.000  O
  O60      1.0000 0.36760  0.17725  0.68455  Biso   1.000  O
  O61      1.0000 0.90120  0.21690  0.16028  Biso   1.000  O
  O62      1.0000 0.59880  0.71690  0.33972  Biso   1.000  O
  O63      1.0000 0.09880  0.78310  0.83972  Biso   1.000  O
  O64      1.0000 0.40120  0.28310  0.66028  Biso   1.000  O
  O65      1.0000 0.28510  0.11893  0.32120  Biso   1.000  O
  O66      1.0000 0.21490  0.61893  0.17880  Biso   1.000  O
  O67      1.0000 0.71490  0.88107  0.67880  Biso   1.000  O
  O68      1.0000 0.78510  0.38107  0.82120  Biso   1.000  O
  O69      1.0000 0.37080  0.19740  0.39071  Biso   1.000  O
  O70      1.0000 0.12920  0.69740  0.10929  Biso   1.000  O
  O71      1.0000 0.62920  0.80260  0.60929  Biso   1.000  O
  O72      1.0000 0.87080  0.30260  0.89071  Biso   1.000  O
  O73      1.0000 0.22420  0.29305  0.50757  Biso   1.000  O
  O74      1.0000 0.27580  0.79305  0.99243  Biso   1.000  O
  O75      1.0000 0.77580  0.70695  0.49243  Biso   1.000  O
  O76      1.0000 0.72420  0.20695  0.00757  Biso   1.000  O
  O77      1.0000 0.21290  0.18286  0.49410  Biso   1.000  O
  O78      1.0000 0.28710  0.68286  0.00590  Biso   1.000  O
  O79      1.0000 0.78710  0.81714  0.50590  Biso   1.000  O
  O80      1.0000 0.71290  0.31714  0.99410  Biso   1.000  O
  O81      1.0000 0.51210  0.08937  0.46614  Biso   1.000  O
  O82      1.0000 0.98790  0.58937  0.03386  Biso   1.000  O
  O83      1.0000 0.48790  0.91063  0.53386  Biso   1.000  O
  O84      1.0000 0.01210  0.41063  0.96614  Biso   1.000  O
  O85      1.0000 0.50520  0.00112  0.34500  Biso   1.000  O
  O86      1.0000 0.99480  0.50112  0.15500  Biso   1.000  O
  O87      1.0000 0.49480  0.99888  0.65500  Biso   1.000  O
  O88      1.0000 0.00520  0.49888  0.84500  Biso   1.000  O
  O89      1.0000 0.51170  0.07930  0.22680  Biso   1.000  O
  O90      1.0000 0.98830  0.57930  0.27320  Biso   1.000  O
  O91      1.0000 0.48830  0.92070  0.77320  Biso   1.000  O
  O92      1.0000 0.01170  0.42070  0.72680  Biso   1.000  O
  O93      1.0000 0.70800  0.17205  0.28557  Biso   1.000  O
  O94      1.0000 0.79200  0.67205  0.21443  Biso   1.000  O
  O95      1.0000 0.29200  0.82795  0.71443  Biso   1.000  O
  O96      1.0000 0.20800  0.32795  0.78557  Biso   1.000  O
  O97      1.0000 0.15680  0.33740  0.64459  Biso   1.000  O
  O98      1.0000 0.34320  0.83740  0.85541  Biso   1.000  O
  O99      1.0000 0.84320  0.66260  0.35541  Biso   1.000  O
  O100     1.0000 0.65680  0.16260  0.14459  Biso   1.000  O
  O101     1.0000 0.36600  0.42370  0.70430  Biso   1.000  O
  O102     1.0000 0.13400  0.92370  0.79570  Biso   1.000  O
  O103     1.0000 0.63400  0.57630  0.29570  Biso   1.000  O
  O104     1.0000 0.86600  0.07630  0.20430  Biso   1.000  O
  O105     1.0000 0.37500  0.49798  0.57950  Biso   1.000  O
  O106     1.0000 0.12500  0.99798  0.92050  Biso   1.000  O
  O107     1.0000 0.62500  0.50202  0.42050  Biso   1.000  O
  O108     1.0000 0.87500  0.00202  0.07950  Biso   1.000  O
  O109     1.0000 0.13980  0.43800  0.53800  Biso   1.000  O
  O110     1.0000 0.36020  0.93800  0.96200  Biso   1.000  O
  O111     1.0000 0.86020  0.56200  0.46200  Biso   1.000  O
  O112     1.0000 0.63980  0.06200  0.03800  Biso   1.000  O
  O113     1.0000 0.38340  0.41940  0.47000  Biso   1.000  O
  O114     1.0000 0.11660  0.91940  0.03000  Biso   1.000  O
  O115     1.0000 0.61660  0.58060  0.53000  Biso   1.000  O
  O116     1.0000 0.88340  0.08060  0.97000  Biso   1.000  O
  O117     1.0000 0.40810  0.32620  0.36640  Biso   1.000  O
  O118     1.0000 0.09190  0.82620  0.13360  Biso   1.000  O
  O119     1.0000 0.59190  0.67380  0.63360  Biso   1.000  O
  O120     1.0000 0.90810  0.17380  0.86640  Biso   1.000  O
  O121     1.0000 0.55560  0.43530  0.30670  Biso   1.000  O
  O122     1.0000 0.94440  0.93530  0.19330  Biso   1.000  O
  O123     1.0000 0.44440  0.56470  0.69330  Biso   1.000  O
  O124     1.0000 0.05560  0.06470  0.80670  Biso   1.000  O
  O125     1.0000 0.45930  0.18074  0.55983  Biso   1.000  O
  O126     1.0000 0.04070  0.68074  0.94017  Biso   1.000  O
  O127     1.0000 0.54070  0.81926  0.44017  Biso   1.000  O
  O128     1.0000 0.95930  0.31926  0.05983  Biso   1.000  O
  C97      1.0000 0.83180  0.33520  0.32310  Biso   1.000  C
  C98      1.0000 0.66820  0.83520  0.17690  Biso   1.000  C
  C99      1.0000 0.16820  0.66480  0.67690  Biso   1.000  C
  C100     1.0000 0.33180  0.16480  0.82310  Biso   1.000  C
  O129     1.0000 0.74880  0.97430  0.91380  Biso   1.000  O
  O130     1.0000 0.75120  0.47430  0.58620  Biso   1.000  O
  O131     1.0000 0.25120  0.02570  0.08620  Biso   1.000  O
  O132     1.0000 0.24880  0.52570  0.41380  Biso   1.000  O
  O133     1.0000 0.80880  0.05960  0.62340  Biso   1.000  O
  O134     1.0000 0.69120  0.55960  0.87660  Biso   1.000  O
  O135     1.0000 0.19120  0.94040  0.37660  Biso   1.000  O
  O136     1.0000 0.30880  0.44040  0.12340  Biso   1.000  O
  O137     1.0000 0.61570  0.92460  0.01240  Biso   1.000  O
  O138     1.0000 0.88430  0.42460  0.48760  Biso   1.000  O
  O139     1.0000 0.38430  0.07540  0.98760  Biso   1.000  O
  O140     1.0000 0.11570  0.57540  0.51240  Biso   1.000  O
  O141     1.0000 0.54780  0.03660  0.83710  Biso   1.000  O
  O142     1.0000 0.95220  0.53660  0.66290  Biso   1.000  O
  O143     1.0000 0.45220  0.96340  0.16290  Biso   1.000  O
  O144     1.0000 0.04780  0.46340  0.33710  Biso   1.000  O
  O145     1.0000 0.19310  0.04700  0.70900  Biso   1.000  O
  O146     1.0000 0.30690  0.54700  0.79100  Biso   1.000  O
  O147     1.0000 0.80690  0.95300  0.29100  Biso   1.000  O
  O148     1.0000 0.69310  0.45300  0.20900  Biso   1.000  O
  O149     1.0000 0.62790  0.12480  0.66410  Biso   1.000  O
  O150     1.0000 0.87210  0.62480  0.83590  Biso   1.000  O
  O151     1.0000 0.37210  0.87520  0.33590  Biso   1.000  O
  O152     1.0000 0.12790  0.37520  0.16410  Biso   1.000  O
  O153     1.0000 0.84430  0.99650  0.74300  Biso   1.000  O
  O154     1.0000 0.65570  0.49650  0.75700  Biso   1.000  O
  O155     1.0000 0.15570  0.00350  0.25700  Biso   1.000  O
  O156     1.0000 0.34430  0.50350  0.24300  Biso   1.000  O
  O157     1.0000 0.72890  0.10830  0.79250  Biso   1.000  O
  O158     1.0000 0.77110  0.60830  0.70750  Biso   1.000  O
  O159     1.0000 0.27110  0.89170  0.20750  Biso   1.000  O
  O160     1.0000 0.22890  0.39170  0.29250  Biso   1.000  O
