data_image0
_cell_length_a       7.7137
_cell_length_b       9.0088
_cell_length_c       11.667
_cell_angle_alpha    83.723
_cell_angle_beta     75.661
_cell_angle_gamma    82.876

_symmetry_space_group_name_H-M    "P 1"
_symmetry_int_tables_number       1

loop_
  _symmetry_equiv_pos_as_xyz
  'x, y, z'

loop_
  _atom_site_label
  _atom_site_occupancy
  _atom_site_fract_x
  _atom_site_fract_y
  _atom_site_fract_z
  _atom_site_thermal_displace_type
  _atom_site_B_iso_or_equiv
  _atom_site_type_symbol
  Cu1      1.0000 0.44589  0.37500  0.29947  Biso   1.000  Cu
  Cu2      1.0000 0.55411  0.62500  0.70053  Biso   1.000  Cu
  V1       1.0000 0.85783  0.71909  0.86778  Biso   1.000  V
  V2       1.0000 0.14217  0.28091  0.13222  Biso   1.000  V
  P1       1.0000 0.76670  0.46377  0.08619  Biso   1.000  P
  P2       1.0000 0.23330  0.53623  0.91381  Biso   1.000  P
  P3       1.0000 0.55629  0.12972  0.11934  Biso   1.000  P
  P4       1.0000 0.44371  0.87028  0.88066  Biso   1.000  P
  O1       1.0000 0.82254  0.61716  0.02721  Biso   1.000  O
  O2       1.0000 0.17746  0.38284  0.97279  Biso   1.000  O
  O3       1.0000 0.89802  0.38936  0.15964  Biso   1.000  O
  O4       1.0000 0.10198  0.61064  0.84036  Biso   1.000  O
  O5       1.0000 0.57641  0.48418  0.16320  Biso   1.000  O
  O6       1.0000 0.42359  0.51582  0.83680  Biso   1.000  O
  O7       1.0000 0.53918  0.17877  0.24176  Biso   1.000  O
  O8       1.0000 0.46082  0.82123  0.75824  Biso   1.000  O
  O9       1.0000 0.57386  0.95276  0.13571  Biso   1.000  O
  O10      1.0000 0.42614  0.04724  0.86429  Biso   1.000  O
  O11      1.0000 0.40023  0.18864  0.06182  Biso   1.000  O
  O12      1.0000 0.59977  0.81136  0.93818  Biso   1.000  O
  O13      1.0000 0.19582  0.35103  0.24078  Biso   1.000  O
  O14      1.0000 0.80418  0.64897  0.75922  Biso   1.000  O
  O15      1.0000 0.92506  0.88420  0.82372  Biso   1.000  O
  O16      1.0000 0.07494  0.11580  0.17628  Biso   1.000  O
  N1       1.0000 0.34508  0.56750  0.37275  Biso   1.000  N
  N2       1.0000 0.65492  0.43250  0.62725  Biso   1.000  N
  N3       1.0000 0.33595  0.29256  0.46446  Biso   1.000  N
  N4       1.0000 0.66405  0.70744  0.53554  Biso   1.000  N
  C1       1.0000 0.35250  0.70473  0.31447  Biso   1.000  C
  C2       1.0000 0.64750  0.29527  0.68553  Biso   1.000  C
  C3       1.0000 0.25840  0.83150  0.36650  Biso   1.000  C
  C4       1.0000 0.74160  0.16850  0.63350  Biso   1.000  C
  C5       1.0000 0.15780  0.81511  0.48269  Biso   1.000  C
  C6       1.0000 0.84220  0.18489  0.51731  Biso   1.000  C
  C7       1.0000 0.15390  0.67396  0.54406  Biso   1.000  C
  C8       1.0000 0.84610  0.32604  0.45594  Biso   1.000  C
  C9       1.0000 0.24700  0.55198  0.48561  Biso   1.000  C
  C10      1.0000 0.75300  0.44802  0.51439  Biso   1.000  C
  C11      1.0000 0.24520  0.39552  0.53894  Biso   1.000  C
  C12      1.0000 0.75480  0.60448  0.46106  Biso   1.000  C
  C13      1.0000 0.15640  0.35584  0.65542  Biso   1.000  C
  C14      1.0000 0.84360  0.64416  0.34458  Biso   1.000  C
  C15      1.0000 0.16490  0.20532  0.69631  Biso   1.000  C
  C16      1.0000 0.83510  0.79468  0.30369  Biso   1.000  C
  C17      1.0000 0.25740  0.09894  0.62012  Biso   1.000  C
  C18      1.0000 0.74260  0.90106  0.37988  Biso   1.000  C
  C19      1.0000 0.33970  0.14669  0.50446  Biso   1.000  C
  C20      1.0000 0.66030  0.85331  0.49554  Biso   1.000  C
  C21      1.0000 0.75902  0.17679  0.01426  Biso   1.000  C
  C22      1.0000 0.24098  0.82321  0.98574  Biso   1.000  C
  C23      1.0000 0.76720  0.34419  0.97143  Biso   1.000  C
  C24      1.0000 0.23280  0.65581  0.02857  Biso   1.000  C
  H1       1.0000 0.42400  0.70600  0.23600  Biso   1.000  H
  H2       1.0000 0.57600  0.29400  0.76400  Biso   1.000  H
  H3       1.0000 0.26500  0.92200  0.32300  Biso   1.000  H
  H4       1.0000 0.73500  0.07800  0.67700  Biso   1.000  H
  H5       1.0000 0.09200  0.90000  0.52000  Biso   1.000  H
  H6       1.0000 0.90800  0.10000  0.48000  Biso   1.000  H
  H7       1.0000 0.09600  0.66100  0.61600  Biso   1.000  H
  H8       1.0000 0.90400  0.33900  0.38400  Biso   1.000  H
  H9       1.0000 0.58500  0.91600  0.08200  Biso   1.000  H
  H10      1.0000 0.41500  0.08400  0.91800  Biso   1.000  H
  H11      1.0000 0.09000  0.43100  0.70500  Biso   1.000  H
  H12      1.0000 0.91000  0.56900  0.29500  Biso   1.000  H
  H13      1.0000 0.10700  0.17700  0.77700  Biso   1.000  H
  H14      1.0000 0.89300  0.82300  0.22300  Biso   1.000  H
  H15      1.0000 0.26700  0.00000  0.64200  Biso   1.000  H
  H16      1.0000 0.73300  0.00000  0.35800  Biso   1.000  H
  H17      1.0000 0.39900  0.08000  0.45000  Biso   1.000  H
  H18      1.0000 0.60100  0.92000  0.55000  Biso   1.000  H
  H19      1.0000 0.77100  0.12300  0.94900  Biso   1.000  H
  H20      1.0000 0.22900  0.87700  0.05100  Biso   1.000  H
  H21      1.0000 0.85700  0.14200  0.04820  Biso   1.000  H
  H22      1.0000 0.14300  0.85800  0.95180  Biso   1.000  H
  H23      1.0000 0.66600  0.38000  0.93800  Biso   1.000  H
  H24      1.0000 0.33400  0.62000  0.06200  Biso   1.000  H
  H25      1.0000 0.87800  0.35800  0.91000  Biso   1.000  H
  H26      1.0000 0.12200  0.64200  0.09000  Biso   1.000  H
