data_image0
_cell_length_a       18.038
_cell_length_b       13.1953
_cell_length_c       15.2335
_cell_angle_alpha    90
_cell_angle_beta     106.928
_cell_angle_gamma    90

_symmetry_space_group_name_H-M    "P 1"
_symmetry_int_tables_number       1

loop_
  _symmetry_equiv_pos_as_xyz
  'x, y, z'

loop_
  _atom_site_label
  _atom_site_occupancy
  _atom_site_fract_x
  _atom_site_fract_y
  _atom_site_fract_z
  _atom_site_thermal_displace_type
  _atom_site_B_iso_or_equiv
  _atom_site_type_symbol
  Cu1      1.0000 0.17209  0.01499  0.03684  Biso   1.000  Cu
  Cu2      1.0000 0.67209  0.51499  0.03684  Biso   1.000  Cu
  Cu3      1.0000 0.82791  0.01499  0.46316  Biso   1.000  Cu
  Cu4      1.0000 0.32791  0.51499  0.46316  Biso   1.000  Cu
  Cu5      1.0000 0.82791  0.98501  0.96316  Biso   1.000  Cu
  Cu6      1.0000 0.32791  0.48501  0.96316  Biso   1.000  Cu
  Cu7      1.0000 0.17209  0.98501  0.53684  Biso   1.000  Cu
  Cu8      1.0000 0.67209  0.48501  0.53684  Biso   1.000  Cu
  V1       1.0000 0.20845  0.59278  0.08434  Biso   1.000  V
  V2       1.0000 0.70845  0.09278  0.08434  Biso   1.000  V
  V3       1.0000 0.79155  0.59278  0.41566  Biso   1.000  V
  V4       1.0000 0.29155  0.09278  0.41566  Biso   1.000  V
  V5       1.0000 0.79155  0.40722  0.91566  Biso   1.000  V
  V6       1.0000 0.29155  0.90722  0.91566  Biso   1.000  V
  V7       1.0000 0.20845  0.40722  0.58434  Biso   1.000  V
  V8       1.0000 0.70845  0.90722  0.58434  Biso   1.000  V
  P1       1.0000 0.30592  0.07878  0.21229  Biso   1.000  P
  P2       1.0000 0.80592  0.57878  0.21229  Biso   1.000  P
  P3       1.0000 0.69408  0.07878  0.28771  Biso   1.000  P
  P4       1.0000 0.19408  0.57878  0.28771  Biso   1.000  P
  P5       1.0000 0.69408  0.92122  0.78771  Biso   1.000  P
  P6       1.0000 0.19408  0.42122  0.78771  Biso   1.000  P
  P7       1.0000 0.30592  0.92122  0.71229  Biso   1.000  P
  P8       1.0000 0.80592  0.42122  0.71229  Biso   1.000  P
  P9       1.0000 0.27641  0.82687  0.11581  Biso   1.000  P
  P10      1.0000 0.77641  0.32687  0.11581  Biso   1.000  P
  P11      1.0000 0.72359  0.82687  0.38419  Biso   1.000  P
  P12      1.0000 0.22359  0.32687  0.38419  Biso   1.000  P
  P13      1.0000 0.72359  0.17313  0.88419  Biso   1.000  P
  P14      1.0000 0.22359  0.67313  0.88419  Biso   1.000  P
  P15      1.0000 0.27641  0.17313  0.61581  Biso   1.000  P
  P16      1.0000 0.77641  0.67313  0.61581  Biso   1.000  P
  O1       1.0000 0.26263  0.71713  0.13876  Biso   1.000  O
  O2       1.0000 0.76263  0.21713  0.13876  Biso   1.000  O
  O3       1.0000 0.73737  0.71713  0.36124  Biso   1.000  O
  O4       1.0000 0.23737  0.21713  0.36124  Biso   1.000  O
  O5       1.0000 0.73737  0.28287  0.86124  Biso   1.000  O
  O6       1.0000 0.23737  0.78287  0.86124  Biso   1.000  O
  O7       1.0000 0.26263  0.28287  0.63876  Biso   1.000  O
  O8       1.0000 0.76263  0.78287  0.63876  Biso   1.000  O
  O9       1.0000 0.25466  0.49448  0.05977  Biso   1.000  O
  O10      1.0000 0.75466  0.99448  0.05977  Biso   1.000  O
  O11      1.0000 0.74534  0.49448  0.44023  Biso   1.000  O
  O12      1.0000 0.24534  0.99448  0.44023  Biso   1.000  O
  O13      1.0000 0.74534  0.50552  0.94023  Biso   1.000  O
  O14      1.0000 0.24534  0.00552  0.94023  Biso   1.000  O
  O15      1.0000 0.25466  0.50552  0.55977  Biso   1.000  O
  O16      1.0000 0.75466  0.00552  0.55977  Biso   1.000  O
  O17      1.0000 0.25020  0.09675  0.11864  Biso   1.000  O
  O18      1.0000 0.75020  0.59675  0.11864  Biso   1.000  O
  O19      1.0000 0.74980  0.09675  0.38136  Biso   1.000  O
  O20      1.0000 0.24980  0.59675  0.38136  Biso   1.000  O
  O21      1.0000 0.74980  0.90325  0.88136  Biso   1.000  O
  O22      1.0000 0.24980  0.40325  0.88136  Biso   1.000  O
  O23      1.0000 0.25020  0.90325  0.61864  Biso   1.000  O
  O24      1.0000 0.75020  0.40325  0.61864  Biso   1.000  O
  O25      1.0000 0.35864  0.17410  0.24131  Biso   1.000  O
  O26      1.0000 0.85864  0.67410  0.24131  Biso   1.000  O
  O27      1.0000 0.64136  0.17410  0.25869  Biso   1.000  O
  O28      1.0000 0.14136  0.67410  0.25869  Biso   1.000  O
  O29      1.0000 0.64136  0.82590  0.75869  Biso   1.000  O
  O30      1.0000 0.14136  0.32590  0.75869  Biso   1.000  O
  O31      1.0000 0.35864  0.82590  0.74131  Biso   1.000  O
  O32      1.0000 0.85864  0.32590  0.74131  Biso   1.000  O
  O33      1.0000 0.20446  0.89196  0.10730  Biso   1.000  O
  O34      1.0000 0.70446  0.39196  0.10730  Biso   1.000  O
  O35      1.0000 0.79554  0.89196  0.39270  Biso   1.000  O
  O36      1.0000 0.29554  0.39196  0.39270  Biso   1.000  O
  O37      1.0000 0.79554  0.10804  0.89270  Biso   1.000  O
  O38      1.0000 0.29554  0.60804  0.89270  Biso   1.000  O
  O39      1.0000 0.20446  0.10804  0.60730  Biso   1.000  O
  O40      1.0000 0.70446  0.60804  0.60730  Biso   1.000  O
  O41      1.0000 0.30682  0.83560  0.03271  Biso   1.000  O
  O42      1.0000 0.80682  0.33560  0.03271  Biso   1.000  O
  O43      1.0000 0.69318  0.83560  0.46729  Biso   1.000  O
  O44      1.0000 0.19318  0.33560  0.46729  Biso   1.000  O
  O45      1.0000 0.69318  0.16440  0.96729  Biso   1.000  O
  O46      1.0000 0.19318  0.66440  0.96729  Biso   1.000  O
  O47      1.0000 0.30682  0.16440  0.53271  Biso   1.000  O
  O48      1.0000 0.80682  0.66440  0.53271  Biso   1.000  O
  O49      1.0000 0.26460  0.05223  0.28312  Biso   1.000  O
  O50      1.0000 0.76460  0.55223  0.28312  Biso   1.000  O
  O51      1.0000 0.73540  0.05223  0.21688  Biso   1.000  O
  O52      1.0000 0.23540  0.55223  0.21688  Biso   1.000  O
  O53      1.0000 0.73540  0.94777  0.71688  Biso   1.000  O
  O54      1.0000 0.23540  0.44777  0.71688  Biso   1.000  O
  O55      1.0000 0.26460  0.94777  0.78312  Biso   1.000  O
  O56      1.0000 0.76460  0.44777  0.78312  Biso   1.000  O
  O57      1.0000 0.11755  0.56491  0.06384  Biso   1.000  O
  O58      1.0000 0.61755  0.06491  0.06384  Biso   1.000  O
  O59      1.0000 0.88245  0.56491  0.43616  Biso   1.000  O
  O60      1.0000 0.38245  0.06491  0.43616  Biso   1.000  O
  O61      1.0000 0.88245  0.43509  0.93616  Biso   1.000  O
  O62      1.0000 0.38245  0.93509  0.93616  Biso   1.000  O
  O63      1.0000 0.11755  0.43509  0.56384  Biso   1.000  O
  O64      1.0000 0.61755  0.93509  0.56384  Biso   1.000  O
  N1       1.0000 0.11647  0.13985  0.97968  Biso   1.000  N
  N2       1.0000 0.61647  0.63985  0.97968  Biso   1.000  N
  N3       1.0000 0.88353  0.13985  0.52032  Biso   1.000  N
  N4       1.0000 0.38353  0.63985  0.52032  Biso   1.000  N
  N5       1.0000 0.88353  0.86015  0.02032  Biso   1.000  N
  N6       1.0000 0.38353  0.36015  0.02032  Biso   1.000  N
  N7       1.0000 0.11647  0.86015  0.47968  Biso   1.000  N
  N8       1.0000 0.61647  0.36015  0.47968  Biso   1.000  N
  N9       1.0000 0.07863  0.95002  0.95019  Biso   1.000  N
  N10      1.0000 0.57863  0.45002  0.95019  Biso   1.000  N
  N11      1.0000 0.92137  0.95002  0.54981  Biso   1.000  N
  N12      1.0000 0.42137  0.45002  0.54981  Biso   1.000  N
  N13      1.0000 0.92137  0.04998  0.04981  Biso   1.000  N
  N14      1.0000 0.42137  0.54998  0.04981  Biso   1.000  N
  N15      1.0000 0.07863  0.04998  0.45019  Biso   1.000  N
  N16      1.0000 0.57863  0.54998  0.45019  Biso   1.000  N
  C1       1.0000 0.06459  0.85011  0.93956  Biso   1.000  C
  C2       1.0000 0.56459  0.35011  0.93956  Biso   1.000  C
  C3       1.0000 0.93541  0.85011  0.56044  Biso   1.000  C
  C4       1.0000 0.43541  0.35011  0.56044  Biso   1.000  C
  C5       1.0000 0.93541  0.14989  0.06044  Biso   1.000  C
  C6       1.0000 0.43541  0.64989  0.06044  Biso   1.000  C
  C7       1.0000 0.06459  0.14989  0.43956  Biso   1.000  C
  C8       1.0000 0.56459  0.64989  0.43956  Biso   1.000  C
  H1       1.0000 0.10190  0.80400  0.97490  Biso   1.000  H
  H2       1.0000 0.60190  0.30400  0.97490  Biso   1.000  H
  H3       1.0000 0.89810  0.80400  0.52510  Biso   1.000  H
  H4       1.0000 0.39810  0.30400  0.52510  Biso   1.000  H
  H5       1.0000 0.89810  0.19600  0.02510  Biso   1.000  H
  H6       1.0000 0.39810  0.69600  0.02510  Biso   1.000  H
  H7       1.0000 0.10190  0.19600  0.47490  Biso   1.000  H
  H8       1.0000 0.60190  0.69600  0.47490  Biso   1.000  H
  C9       1.0000 0.02621  0.01600  0.89908  Biso   1.000  C
  C10      1.0000 0.52621  0.51600  0.89908  Biso   1.000  C
  C11      1.0000 0.97379  0.01600  0.60092  Biso   1.000  C
  C12      1.0000 0.47379  0.51600  0.60092  Biso   1.000  C
  C13      1.0000 0.97379  0.98400  0.10092  Biso   1.000  C
  C14      1.0000 0.47379  0.48400  0.10092  Biso   1.000  C
  C15      1.0000 0.02621  0.98400  0.39908  Biso   1.000  C
  C16      1.0000 0.52621  0.48400  0.39908  Biso   1.000  C
  C17      1.0000 0.04753  0.12396  0.91620  Biso   1.000  C
  C18      1.0000 0.54753  0.62396  0.91620  Biso   1.000  C
  C19      1.0000 0.95247  0.12396  0.58380  Biso   1.000  C
  C20      1.0000 0.45247  0.62396  0.58380  Biso   1.000  C
  C21      1.0000 0.95247  0.87604  0.08380  Biso   1.000  C
  C22      1.0000 0.45247  0.37604  0.08380  Biso   1.000  C
  C23      1.0000 0.04753  0.87604  0.41620  Biso   1.000  C
  C24      1.0000 0.54753  0.37604  0.41620  Biso   1.000  C
  C25      1.0000 0.37641  0.98257  0.21048  Biso   1.000  C
  C26      1.0000 0.87641  0.48257  0.21048  Biso   1.000  C
  C27      1.0000 0.62359  0.98257  0.28952  Biso   1.000  C
  C28      1.0000 0.12359  0.48257  0.28952  Biso   1.000  C
  C29      1.0000 0.62359  0.01743  0.78952  Biso   1.000  C
  C30      1.0000 0.12359  0.51743  0.78952  Biso   1.000  C
  C31      1.0000 0.37641  0.01743  0.71048  Biso   1.000  C
  C32      1.0000 0.87641  0.51743  0.71048  Biso   1.000  C
  H9       1.0000 0.39220  0.99200  0.15390  Biso   1.000  H
  H10      1.0000 0.89220  0.49200  0.15390  Biso   1.000  H
  H11      1.0000 0.60780  0.99200  0.34610  Biso   1.000  H
  H12      1.0000 0.10780  0.49200  0.34610  Biso   1.000  H
  H13      1.0000 0.60780  0.00800  0.84610  Biso   1.000  H
  H14      1.0000 0.10780  0.50800  0.84610  Biso   1.000  H
  H15      1.0000 0.39220  0.00800  0.65390  Biso   1.000  H
  H16      1.0000 0.89220  0.50800  0.65390  Biso   1.000  H
  H17      1.0000 0.42290  0.99480  0.26320  Biso   1.000  H
  H18      1.0000 0.92290  0.49480  0.26320  Biso   1.000  H
  H19      1.0000 0.57710  0.99480  0.23680  Biso   1.000  H
  H20      1.0000 0.07710  0.49480  0.23680  Biso   1.000  H
  H21      1.0000 0.57710  0.00520  0.73680  Biso   1.000  H
  H22      1.0000 0.07710  0.50520  0.73680  Biso   1.000  H
  H23      1.0000 0.42290  0.00520  0.76320  Biso   1.000  H
  H24      1.0000 0.92290  0.50520  0.76320  Biso   1.000  H
  C33      1.0000 0.94282  0.87952  0.82709  Biso   1.000  C
  C34      1.0000 0.44282  0.37952  0.82709  Biso   1.000  C
  C35      1.0000 0.05718  0.87952  0.67291  Biso   1.000  C
  C36      1.0000 0.55718  0.37952  0.67291  Biso   1.000  C
  C37      1.0000 0.05718  0.12048  0.17291  Biso   1.000  C
  C38      1.0000 0.55718  0.62048  0.17291  Biso   1.000  C
  C39      1.0000 0.94282  0.12048  0.32709  Biso   1.000  C
  C40      1.0000 0.44282  0.62048  0.32709  Biso   1.000  C
  H25      1.0000 0.89610  0.85540  0.78550  Biso   1.000  H
  H26      1.0000 0.39610  0.35540  0.78550  Biso   1.000  H
  H27      1.0000 0.10390  0.85540  0.71450  Biso   1.000  H
  H28      1.0000 0.60390  0.35540  0.71450  Biso   1.000  H
  H29      1.0000 0.10390  0.14460  0.21450  Biso   1.000  H
  H30      1.0000 0.60390  0.64460  0.21450  Biso   1.000  H
  H31      1.0000 0.89610  0.14460  0.28550  Biso   1.000  H
  H32      1.0000 0.39610  0.64460  0.28550  Biso   1.000  H
  C41      1.0000 0.95747  0.98264  0.83703  Biso   1.000  C
  C42      1.0000 0.45747  0.48264  0.83703  Biso   1.000  C
  C43      1.0000 0.04253  0.98264  0.66297  Biso   1.000  C
  C44      1.0000 0.54253  0.48264  0.66297  Biso   1.000  C
  C45      1.0000 0.04253  0.01736  0.16297  Biso   1.000  C
  C46      1.0000 0.54253  0.51736  0.16297  Biso   1.000  C
  C47      1.0000 0.95747  0.01736  0.33703  Biso   1.000  C
  C48      1.0000 0.45747  0.51736  0.33703  Biso   1.000  C
  H33      1.0000 0.92110  0.03000  0.80200  Biso   1.000  H
  H34      1.0000 0.42110  0.53000  0.80200  Biso   1.000  H
  H35      1.0000 0.07890  0.03000  0.69800  Biso   1.000  H
  H36      1.0000 0.57890  0.53000  0.69800  Biso   1.000  H
  H37      1.0000 0.07890  0.97000  0.19800  Biso   1.000  H
  H38      1.0000 0.57890  0.47000  0.19800  Biso   1.000  H
  H39      1.0000 0.92110  0.97000  0.30200  Biso   1.000  H
  H40      1.0000 0.42110  0.47000  0.30200  Biso   1.000  H
  C49      1.0000 0.00119  0.20403  0.87347  Biso   1.000  C
  C50      1.0000 0.50119  0.70403  0.87347  Biso   1.000  C
  C51      1.0000 0.99881  0.20403  0.62653  Biso   1.000  C
  C52      1.0000 0.49881  0.70403  0.62653  Biso   1.000  C
  C53      1.0000 0.99881  0.79597  0.12653  Biso   1.000  C
  C54      1.0000 0.49881  0.29597  0.12653  Biso   1.000  C
  C55      1.0000 0.00119  0.79597  0.37347  Biso   1.000  C
  C56      1.0000 0.50119  0.29597  0.37347  Biso   1.000  C
  H41      1.0000 0.95290  0.19180  0.82880  Biso   1.000  H
  H42      1.0000 0.45290  0.69180  0.82880  Biso   1.000  H
  H43      1.0000 0.04710  0.19180  0.67120  Biso   1.000  H
  H44      1.0000 0.54710  0.69180  0.67120  Biso   1.000  H
  H45      1.0000 0.04710  0.80820  0.17120  Biso   1.000  H
  H46      1.0000 0.54710  0.30820  0.17120  Biso   1.000  H
  H47      1.0000 0.95290  0.80820  0.32880  Biso   1.000  H
  H48      1.0000 0.45290  0.30820  0.32880  Biso   1.000  H
  C57      1.0000 0.99722  0.81176  0.87860  Biso   1.000  C
  C58      1.0000 0.49722  0.31176  0.87860  Biso   1.000  C
  C59      1.0000 0.00278  0.81176  0.62140  Biso   1.000  C
  C60      1.0000 0.50278  0.31176  0.62140  Biso   1.000  C
  C61      1.0000 0.00278  0.18824  0.12140  Biso   1.000  C
  C62      1.0000 0.50278  0.68824  0.12140  Biso   1.000  C
  C63      1.0000 0.99722  0.18824  0.37860  Biso   1.000  C
  C64      1.0000 0.49722  0.68824  0.37860  Biso   1.000  C
  H49      1.0000 0.98860  0.74070  0.87240  Biso   1.000  H
  H50      1.0000 0.48860  0.24070  0.87240  Biso   1.000  H
  H51      1.0000 0.01140  0.74070  0.62760  Biso   1.000  H
  H52      1.0000 0.51140  0.24070  0.62760  Biso   1.000  H
  H53      1.0000 0.01140  0.25930  0.12760  Biso   1.000  H
  H54      1.0000 0.51140  0.75930  0.12760  Biso   1.000  H
  H55      1.0000 0.98860  0.25930  0.37240  Biso   1.000  H
  H56      1.0000 0.48860  0.75930  0.37240  Biso   1.000  H
  C65      1.0000 0.02646  0.30237  0.89697  Biso   1.000  C
  C66      1.0000 0.52646  0.80237  0.89697  Biso   1.000  C
  C67      1.0000 0.97354  0.30237  0.60303  Biso   1.000  C
  C68      1.0000 0.47354  0.80237  0.60303  Biso   1.000  C
  C69      1.0000 0.97354  0.69763  0.10303  Biso   1.000  C
  C70      1.0000 0.47354  0.19763  0.10303  Biso   1.000  C
  C71      1.0000 0.02646  0.69763  0.39697  Biso   1.000  C
  C72      1.0000 0.52646  0.19763  0.39697  Biso   1.000  C
  H57      1.0000 0.99540  0.35830  0.86880  Biso   1.000  H
  H58      1.0000 0.49540  0.85830  0.86880  Biso   1.000  H
  H59      1.0000 0.00460  0.35830  0.63120  Biso   1.000  H
  H60      1.0000 0.50460  0.85830  0.63120  Biso   1.000  H
  H61      1.0000 0.00460  0.64170  0.13120  Biso   1.000  H
  H62      1.0000 0.50460  0.14170  0.13120  Biso   1.000  H
  H63      1.0000 0.99540  0.64170  0.36880  Biso   1.000  H
  H64      1.0000 0.49540  0.14170  0.36880  Biso   1.000  H
  C73      1.0000 0.09727  0.31833  0.96184  Biso   1.000  C
  C74      1.0000 0.59727  0.81833  0.96184  Biso   1.000  C
  C75      1.0000 0.90273  0.31833  0.53816  Biso   1.000  C
  C76      1.0000 0.40273  0.81833  0.53816  Biso   1.000  C
  C77      1.0000 0.90273  0.68167  0.03816  Biso   1.000  C
  C78      1.0000 0.40273  0.18167  0.03816  Biso   1.000  C
  C79      1.0000 0.09727  0.68167  0.46184  Biso   1.000  C
  C80      1.0000 0.59727  0.18167  0.46184  Biso   1.000  C
  H65      1.0000 0.11560  0.38510  0.97880  Biso   1.000  H
  H66      1.0000 0.61560  0.88510  0.97880  Biso   1.000  H
  H67      1.0000 0.88440  0.38510  0.52120  Biso   1.000  H
  H68      1.0000 0.38440  0.88510  0.52120  Biso   1.000  H
  H69      1.0000 0.88440  0.61490  0.02120  Biso   1.000  H
  H70      1.0000 0.38440  0.11490  0.02120  Biso   1.000  H
  H71      1.0000 0.11560  0.61490  0.47880  Biso   1.000  H
  H72      1.0000 0.61560  0.11490  0.47880  Biso   1.000  H
  C81      1.0000 0.14090  0.23485  0.00149  Biso   1.000  C
  C82      1.0000 0.64090  0.73485  0.00149  Biso   1.000  C
  C83      1.0000 0.85910  0.23485  0.49851  Biso   1.000  C
  C84      1.0000 0.35910  0.73485  0.49851  Biso   1.000  C
  C85      1.0000 0.85910  0.76515  0.99851  Biso   1.000  C
  C86      1.0000 0.35910  0.26515  0.99851  Biso   1.000  C
  C87      1.0000 0.14090  0.76515  0.50149  Biso   1.000  C
  C88      1.0000 0.64090  0.26515  0.50149  Biso   1.000  C
  H73      1.0000 0.18970  0.24540  0.04560  Biso   1.000  H
  H74      1.0000 0.68970  0.74540  0.04560  Biso   1.000  H
  H75      1.0000 0.81030  0.24540  0.45440  Biso   1.000  H
  H76      1.0000 0.31030  0.74540  0.45440  Biso   1.000  H
  H77      1.0000 0.81030  0.75460  0.95440  Biso   1.000  H
  H78      1.0000 0.31030  0.25460  0.95440  Biso   1.000  H
  H79      1.0000 0.18970  0.75460  0.54560  Biso   1.000  H
  H80      1.0000 0.68970  0.25460  0.54560  Biso   1.000  H
  C89      1.0000 0.35236  0.87116  0.21415  Biso   1.000  C
  C90      1.0000 0.85236  0.37116  0.21415  Biso   1.000  C
  C91      1.0000 0.64764  0.87116  0.28585  Biso   1.000  C
  C92      1.0000 0.14764  0.37116  0.28585  Biso   1.000  C
  C93      1.0000 0.64764  0.12884  0.78585  Biso   1.000  C
  C94      1.0000 0.14764  0.62884  0.78585  Biso   1.000  C
  C95      1.0000 0.35236  0.12884  0.71415  Biso   1.000  C
  C96      1.0000 0.85236  0.62884  0.71415  Biso   1.000  C
  H81      1.0000 0.39860  0.82800  0.22110  Biso   1.000  H
  H82      1.0000 0.89860  0.32800  0.22110  Biso   1.000  H
  H83      1.0000 0.60140  0.82800  0.27890  Biso   1.000  H
  H84      1.0000 0.10140  0.32800  0.27890  Biso   1.000  H
  H85      1.0000 0.60140  0.17200  0.77890  Biso   1.000  H
  H86      1.0000 0.10140  0.67200  0.77890  Biso   1.000  H
  H87      1.0000 0.39860  0.17200  0.72110  Biso   1.000  H
  H88      1.0000 0.89860  0.67200  0.72110  Biso   1.000  H
  H89      1.0000 0.33510  0.86160  0.26960  Biso   1.000  H
  H90      1.0000 0.83510  0.36160  0.26960  Biso   1.000  H
  H91      1.0000 0.66490  0.86160  0.23040  Biso   1.000  H
  H92      1.0000 0.16490  0.36160  0.23040  Biso   1.000  H
  H93      1.0000 0.66490  0.13840  0.73040  Biso   1.000  H
  H94      1.0000 0.16490  0.63840  0.73040  Biso   1.000  H
  H95      1.0000 0.33510  0.13840  0.76960  Biso   1.000  H
  H96      1.0000 0.83510  0.63840  0.76960  Biso   1.000  H
  O65      1.0000 0.81733  0.13827  0.70929  Biso   1.000  O
  O66      1.0000 0.31733  0.63827  0.70929  Biso   1.000  O
  O67      1.0000 0.18267  0.13827  0.79071  Biso   1.000  O
  O68      1.0000 0.68267  0.63827  0.79071  Biso   1.000  O
  O69      1.0000 0.18267  0.86173  0.29071  Biso   1.000  O
  O70      1.0000 0.68267  0.36173  0.29071  Biso   1.000  O
  O71      1.0000 0.81733  0.86173  0.20929  Biso   1.000  O
  O72      1.0000 0.31733  0.36173  0.20929  Biso   1.000  O
  O73      1.0000 0.45730  0.93410  0.40430  Biso   1.000  O
  O74      1.0000 0.95730  0.43410  0.40430  Biso   1.000  O
  O75      1.0000 0.54270  0.93410  0.09570  Biso   1.000  O
  O76      1.0000 0.04270  0.43410  0.09570  Biso   1.000  O
  O77      1.0000 0.54270  0.06590  0.59570  Biso   1.000  O
  O78      1.0000 0.04270  0.56590  0.59570  Biso   1.000  O
  O79      1.0000 0.45730  0.06590  0.90430  Biso   1.000  O
  O80      1.0000 0.95730  0.56590  0.90430  Biso   1.000  O
  H97      1.0000 0.79930  0.11500  0.74700  Biso   1.000  H
  H98      1.0000 0.29930  0.61500  0.74700  Biso   1.000  H
  H99      1.0000 0.20070  0.11500  0.75300  Biso   1.000  H
  H100     1.0000 0.70070  0.61500  0.75300  Biso   1.000  H
  H101     1.0000 0.20070  0.88500  0.25300  Biso   1.000  H
  H102     1.0000 0.70070  0.38500  0.25300  Biso   1.000  H
  H103     1.0000 0.79930  0.88500  0.24700  Biso   1.000  H
  H104     1.0000 0.29930  0.38500  0.24700  Biso   1.000  H
  H105     1.0000 0.80300  0.10700  0.67100  Biso   1.000  H
  H106     1.0000 0.30300  0.60700  0.67100  Biso   1.000  H
  H107     1.0000 0.19700  0.10700  0.82900  Biso   1.000  H
  H108     1.0000 0.69700  0.60700  0.82900  Biso   1.000  H
  H109     1.0000 0.19700  0.89300  0.32900  Biso   1.000  H
  H110     1.0000 0.69700  0.39300  0.32900  Biso   1.000  H
  H111     1.0000 0.80300  0.89300  0.17100  Biso   1.000  H
  H112     1.0000 0.30300  0.39300  0.17100  Biso   1.000  H
  H113     1.0000 0.33660  0.22600  0.23330  Biso   1.000  H
  H114     1.0000 0.83660  0.72600  0.23330  Biso   1.000  H
  H115     1.0000 0.66340  0.22600  0.26670  Biso   1.000  H
  H116     1.0000 0.16340  0.72600  0.26670  Biso   1.000  H
  H117     1.0000 0.66340  0.77400  0.76670  Biso   1.000  H
  H118     1.0000 0.16340  0.27400  0.76670  Biso   1.000  H
  H119     1.0000 0.33660  0.77400  0.73330  Biso   1.000  H
  H120     1.0000 0.83660  0.27400  0.73330  Biso   1.000  H
  H121     1.0000 0.42800  0.99700  0.40400  Biso   1.000  H
  H122     1.0000 0.92800  0.49700  0.40400  Biso   1.000  H
  H123     1.0000 0.57200  0.99700  0.09600  Biso   1.000  H
  H124     1.0000 0.07200  0.49700  0.09600  Biso   1.000  H
  H125     1.0000 0.57200  0.00300  0.59600  Biso   1.000  H
  H126     1.0000 0.07200  0.50300  0.59600  Biso   1.000  H
  H127     1.0000 0.42800  0.00300  0.90400  Biso   1.000  H
  H128     1.0000 0.92800  0.50300  0.90400  Biso   1.000  H
  H129     1.0000 0.50400  0.92900  0.44000  Biso   1.000  H
  H130     1.0000 0.00400  0.42900  0.44000  Biso   1.000  H
  H131     1.0000 0.49600  0.92900  0.06000  Biso   1.000  H
  H132     1.0000 0.99600  0.42900  0.06000  Biso   1.000  H
  H133     1.0000 0.49600  0.07100  0.56000  Biso   1.000  H
  H134     1.0000 0.99600  0.57100  0.56000  Biso   1.000  H
  H135     1.0000 0.50400  0.07100  0.94000  Biso   1.000  H
  H136     1.0000 0.00400  0.57100  0.94000  Biso   1.000  H
