data_image0
_cell_length_a       8.7691
_cell_length_b       15.978
_cell_length_c       19.948
_cell_angle_alpha    90
_cell_angle_beta     96.217
_cell_angle_gamma    90

_symmetry_space_group_name_H-M    "P 1"
_symmetry_int_tables_number       1

loop_
  _symmetry_equiv_pos_as_xyz
  'x, y, z'

loop_
  _atom_site_label
  _atom_site_occupancy
  _atom_site_fract_x
  _atom_site_fract_y
  _atom_site_fract_z
  _atom_site_thermal_displace_type
  _atom_site_B_iso_or_equiv
  _atom_site_type_symbol
  Cu1      1.0000 0.19175  0.22808  0.30768  Biso   1.000  Cu
  Cu2      1.0000 0.80825  0.72808  0.19232  Biso   1.000  Cu
  Cu3      1.0000 0.80825  0.77192  0.69232  Biso   1.000  Cu
  Cu4      1.0000 0.19175  0.27192  0.80768  Biso   1.000  Cu
  Cu5      1.0000 0.33080  0.29269  0.20956  Biso   1.000  Cu
  Cu6      1.0000 0.66920  0.79269  0.29044  Biso   1.000  Cu
  Cu7      1.0000 0.66920  0.70731  0.79044  Biso   1.000  Cu
  Cu8      1.0000 0.33080  0.20731  0.70956  Biso   1.000  Cu
  N1       1.0000 0.44280  0.36155  0.13431  Biso   1.000  N
  N2       1.0000 0.55720  0.86155  0.36569  Biso   1.000  N
  N3       1.0000 0.55720  0.63845  0.86569  Biso   1.000  N
  N4       1.0000 0.44280  0.13845  0.63431  Biso   1.000  N
  N5       1.0000 0.07490  0.15419  0.37974  Biso   1.000  N
  N6       1.0000 0.92510  0.65419  0.12026  Biso   1.000  N
  N7       1.0000 0.92510  0.84581  0.62026  Biso   1.000  N
  N8       1.0000 0.07490  0.34581  0.87974  Biso   1.000  N
  O1       1.0000 0.30960  0.39269  0.26343  Biso   1.000  O
  O2       1.0000 0.69040  0.89269  0.23657  Biso   1.000  O
  O3       1.0000 0.69040  0.60731  0.73657  Biso   1.000  O
  O4       1.0000 0.30960  0.10731  0.76343  Biso   1.000  O
  O5       1.0000 0.18640  0.34102  0.34698  Biso   1.000  O
  O6       1.0000 0.81360  0.84102  0.15302  Biso   1.000  O
  O7       1.0000 0.81360  0.65898  0.65302  Biso   1.000  O
  O8       1.0000 0.18640  0.15898  0.84698  Biso   1.000  O
  O9       1.0000 0.99350  0.75618  0.25239  Biso   1.000  O
  O10      1.0000 0.00650  0.25618  0.24761  Biso   1.000  O
  O11      1.0000 0.00650  0.24382  0.74761  Biso   1.000  O
  O12      1.0000 0.99350  0.74382  0.75239  Biso   1.000  O
  O13      1.0000 0.87830  0.81344  0.33597  Biso   1.000  O
  O14      1.0000 0.12170  0.31344  0.16403  Biso   1.000  O
  O15      1.0000 0.12170  0.18656  0.66403  Biso   1.000  O
  O16      1.0000 0.87830  0.68656  0.83597  Biso   1.000  O
  O17      1.0000 0.39940  0.21211  0.35573  Biso   1.000  O
  O18      1.0000 0.60060  0.71211  0.14427  Biso   1.000  O
  O19      1.0000 0.60060  0.78789  0.64427  Biso   1.000  O
  O20      1.0000 0.39940  0.28789  0.85573  Biso   1.000  O
  O21      1.0000 0.51500  0.25986  0.26872  Biso   1.000  O
  O22      1.0000 0.48500  0.75986  0.23128  Biso   1.000  O
  O23      1.0000 0.48500  0.74014  0.73128  Biso   1.000  O
  O24      1.0000 0.51500  0.24014  0.76872  Biso   1.000  O
  O25      1.0000 0.67400  0.68266  0.33326  Biso   1.000  O
  O26      1.0000 0.32600  0.18266  0.16674  Biso   1.000  O
  O27      1.0000 0.32600  0.31734  0.66674  Biso   1.000  O
  O28      1.0000 0.67400  0.81734  0.83326  Biso   1.000  O
  O29      1.0000 0.77760  0.62721  0.24598  Biso   1.000  O
  O30      1.0000 0.22240  0.12721  0.25402  Biso   1.000  O
  O31      1.0000 0.22240  0.37279  0.75402  Biso   1.000  O
  O32      1.0000 0.77760  0.87279  0.74598  Biso   1.000  O
  C1       1.0000 0.24170  0.40060  0.31568  Biso   1.000  C
  C2       1.0000 0.75830  0.90060  0.18432  Biso   1.000  C
  C3       1.0000 0.75830  0.59940  0.68432  Biso   1.000  C
  C4       1.0000 0.24170  0.09940  0.81568  Biso   1.000  C
  C5       1.0000 0.22510  0.48820  0.34073  Biso   1.000  C
  C6       1.0000 0.77490  0.98820  0.15927  Biso   1.000  C
  C7       1.0000 0.77490  0.51180  0.65927  Biso   1.000  C
  C8       1.0000 0.22510  0.01180  0.84073  Biso   1.000  C
  C9       1.0000 0.14190  0.50660  0.39380  Biso   1.000  C
  C10      1.0000 0.85810  0.00660  0.10620  Biso   1.000  C
  C11      1.0000 0.85810  0.49340  0.60620  Biso   1.000  C
  C12      1.0000 0.14190  0.99340  0.89380  Biso   1.000  C
  H1       1.0000 0.09600  0.46380  0.41610  Biso   1.000  H
  H2       1.0000 0.90400  0.96380  0.08390  Biso   1.000  H
  H3       1.0000 0.90400  0.53620  0.58390  Biso   1.000  H
  H4       1.0000 0.09600  0.03620  0.91610  Biso   1.000  H
  C13      1.0000 0.12690  0.58880  0.41380  Biso   1.000  C
  C14      1.0000 0.87310  0.08880  0.08620  Biso   1.000  C
  C15      1.0000 0.87310  0.41120  0.58620  Biso   1.000  C
  C16      1.0000 0.12690  0.91120  0.91380  Biso   1.000  C
  H5       1.0000 0.07000  0.60050  0.44940  Biso   1.000  H
  H6       1.0000 0.93000  0.10050  0.05060  Biso   1.000  H
  H7       1.0000 0.93000  0.39950  0.55060  Biso   1.000  H
  H8       1.0000 0.07000  0.89950  0.94940  Biso   1.000  H
  C17      1.0000 0.19370  0.65400  0.38244  Biso   1.000  C
  C18      1.0000 0.80630  0.15400  0.11756  Biso   1.000  C
  C19      1.0000 0.80630  0.34600  0.61756  Biso   1.000  C
  C20      1.0000 0.19370  0.84600  0.88244  Biso   1.000  C
  C21      1.0000 0.27630  0.63500  0.32980  Biso   1.000  C
  C22      1.0000 0.72370  0.13500  0.17020  Biso   1.000  C
  C23      1.0000 0.72370  0.36500  0.67020  Biso   1.000  C
  C24      1.0000 0.27630  0.86500  0.82980  Biso   1.000  C
  H9       1.0000 0.32320  0.67770  0.30800  Biso   1.000  H
  H10      1.0000 0.67680  0.17770  0.19200  Biso   1.000  H
  H11      1.0000 0.67680  0.32230  0.69200  Biso   1.000  H
  H12      1.0000 0.32320  0.82230  0.80800  Biso   1.000  H
  C25      1.0000 0.29090  0.55270  0.30860  Biso   1.000  C
  C26      1.0000 0.70910  0.05270  0.19140  Biso   1.000  C
  C27      1.0000 0.70910  0.44730  0.69140  Biso   1.000  C
  C28      1.0000 0.29090  0.94730  0.80860  Biso   1.000  C
  H13      1.0000 0.34580  0.54130  0.27230  Biso   1.000  H
  H14      1.0000 0.65420  0.04130  0.22770  Biso   1.000  H
  H15      1.0000 0.65420  0.45870  0.72770  Biso   1.000  H
  H16      1.0000 0.34580  0.95870  0.77230  Biso   1.000  H
  C29      1.0000 0.17930  0.74340  0.40569  Biso   1.000  C
  C30      1.0000 0.82070  0.24340  0.09431  Biso   1.000  C
  C31      1.0000 0.82070  0.25660  0.59431  Biso   1.000  C
  C32      1.0000 0.17930  0.75660  0.90569  Biso   1.000  C
  H17      1.0000 0.27340  0.75900  0.43290  Biso   1.000  H
  H18      1.0000 0.72660  0.25900  0.06710  Biso   1.000  H
  H19      1.0000 0.72660  0.24100  0.56710  Biso   1.000  H
  H20      1.0000 0.27340  0.74100  0.93290  Biso   1.000  H
  H21      1.0000 0.09670  0.74650  0.43430  Biso   1.000  H
  H22      1.0000 0.90330  0.24650  0.06570  Biso   1.000  H
  H23      1.0000 0.90330  0.25350  0.56570  Biso   1.000  H
  H24      1.0000 0.09670  0.75350  0.93430  Biso   1.000  H
  C33      1.0000 0.14800  0.80710  0.34837  Biso   1.000  C
  C34      1.0000 0.85200  0.30710  0.15163  Biso   1.000  C
  C35      1.0000 0.85200  0.19290  0.65163  Biso   1.000  C
  C36      1.0000 0.14800  0.69290  0.84837  Biso   1.000  C
  H25      1.0000 0.15000  0.86320  0.36700  Biso   1.000  H
  H26      1.0000 0.85000  0.36320  0.13300  Biso   1.000  H
  H27      1.0000 0.85000  0.13680  0.63300  Biso   1.000  H
  H28      1.0000 0.15000  0.63680  0.86700  Biso   1.000  H
  H29      1.0000 0.22800  0.80330  0.31850  Biso   1.000  H
  H30      1.0000 0.77200  0.30330  0.18150  Biso   1.000  H
  H31      1.0000 0.77200  0.19670  0.68150  Biso   1.000  H
  H32      1.0000 0.22800  0.69670  0.81850  Biso   1.000  H
  C37      1.0000 0.99490  0.79140  0.30893  Biso   1.000  C
  C38      1.0000 0.00510  0.29140  0.19107  Biso   1.000  C
  C39      1.0000 0.00510  0.20860  0.69107  Biso   1.000  C
  C40      1.0000 0.99490  0.70860  0.80893  Biso   1.000  C
  C41      1.0000 0.51660  0.23050  0.32696  Biso   1.000  C
  C42      1.0000 0.48340  0.73050  0.17304  Biso   1.000  C
  C43      1.0000 0.48340  0.76950  0.67304  Biso   1.000  C
  C44      1.0000 0.51660  0.26950  0.82696  Biso   1.000  C
  C45      1.0000 0.67160  0.21850  0.36710  Biso   1.000  C
  C46      1.0000 0.32840  0.71850  0.13290  Biso   1.000  C
  C47      1.0000 0.32840  0.78150  0.63290  Biso   1.000  C
  C48      1.0000 0.67160  0.28150  0.86710  Biso   1.000  C
  H33      1.0000 0.75060  0.21720  0.33660  Biso   1.000  H
  H34      1.0000 0.24940  0.71720  0.16340  Biso   1.000  H
  H35      1.0000 0.24940  0.78280  0.66340  Biso   1.000  H
  H36      1.0000 0.75060  0.28280  0.83660  Biso   1.000  H
  H37      1.0000 0.67340  0.16540  0.39060  Biso   1.000  H
  H38      1.0000 0.32660  0.66540  0.10940  Biso   1.000  H
  H39      1.0000 0.32660  0.83460  0.60940  Biso   1.000  H
  H40      1.0000 0.67340  0.33460  0.89060  Biso   1.000  H
  C49      1.0000 0.70590  0.28960  0.41840  Biso   1.000  C
  C50      1.0000 0.29410  0.78960  0.08160  Biso   1.000  C
  C51      1.0000 0.29410  0.71040  0.58160  Biso   1.000  C
  C52      1.0000 0.70590  0.21040  0.91840  Biso   1.000  C
  H41      1.0000 0.62840  0.28890  0.44960  Biso   1.000  H
  H42      1.0000 0.37160  0.78890  0.05040  Biso   1.000  H
  H43      1.0000 0.37160  0.71110  0.55040  Biso   1.000  H
  H44      1.0000 0.62840  0.21110  0.94960  Biso   1.000  H
  H45      1.0000 0.80420  0.27870  0.44410  Biso   1.000  H
  H46      1.0000 0.19580  0.77870  0.05590  Biso   1.000  H
  H47      1.0000 0.19580  0.72130  0.55590  Biso   1.000  H
  H48      1.0000 0.80420  0.22130  0.94410  Biso   1.000  H
  C53      1.0000 0.71010  0.37570  0.38770  Biso   1.000  C
  C54      1.0000 0.28990  0.87570  0.11230  Biso   1.000  C
  C55      1.0000 0.28990  0.62430  0.61230  Biso   1.000  C
  C56      1.0000 0.71010  0.12430  0.88770  Biso   1.000  C
  C57      1.0000 0.78550  0.39120  0.33200  Biso   1.000  C
  C58      1.0000 0.21450  0.89120  0.16800  Biso   1.000  C
  C59      1.0000 0.21450  0.60880  0.66800  Biso   1.000  C
  C60      1.0000 0.78550  0.10880  0.83200  Biso   1.000  C
  H49      1.0000 0.83520  0.34750  0.31270  Biso   1.000  H
  H50      1.0000 0.16480  0.84750  0.18730  Biso   1.000  H
  H51      1.0000 0.16480  0.65250  0.68730  Biso   1.000  H
  H52      1.0000 0.83520  0.15250  0.81270  Biso   1.000  H
  C61      1.0000 0.78910  0.47020  0.30420  Biso   1.000  C
  C62      1.0000 0.21090  0.97020  0.19580  Biso   1.000  C
  C63      1.0000 0.21090  0.52980  0.69580  Biso   1.000  C
  C64      1.0000 0.78910  0.02980  0.80420  Biso   1.000  C
  H53      1.0000 0.83840  0.47850  0.26570  Biso   1.000  H
  H54      1.0000 0.16160  0.97850  0.23430  Biso   1.000  H
  H55      1.0000 0.16160  0.52150  0.73430  Biso   1.000  H
  H56      1.0000 0.83840  0.02150  0.76570  Biso   1.000  H
  C65      1.0000 0.72070  0.53670  0.33272  Biso   1.000  C
  C66      1.0000 0.27930  0.03670  0.16728  Biso   1.000  C
  C67      1.0000 0.27930  0.46330  0.66728  Biso   1.000  C
  C68      1.0000 0.72070  0.96330  0.83272  Biso   1.000  C
  C69      1.0000 0.64470  0.52200  0.38940  Biso   1.000  C
  C70      1.0000 0.35530  0.02200  0.11060  Biso   1.000  C
  C71      1.0000 0.35530  0.47800  0.61060  Biso   1.000  C
  C72      1.0000 0.64470  0.97800  0.88940  Biso   1.000  C
  H57      1.0000 0.59670  0.56600  0.40940  Biso   1.000  H
  H58      1.0000 0.40330  0.06600  0.09060  Biso   1.000  H
  H59      1.0000 0.40330  0.43400  0.59060  Biso   1.000  H
  H60      1.0000 0.59670  0.93400  0.90940  Biso   1.000  H
  C73      1.0000 0.64030  0.44310  0.41600  Biso   1.000  C
  C74      1.0000 0.35970  0.94310  0.08400  Biso   1.000  C
  C75      1.0000 0.35970  0.55690  0.58400  Biso   1.000  C
  C76      1.0000 0.64030  0.05690  0.91600  Biso   1.000  C
  H61      1.0000 0.58920  0.43440  0.45390  Biso   1.000  H
  H62      1.0000 0.41080  0.93440  0.04610  Biso   1.000  H
  H63      1.0000 0.41080  0.56560  0.54610  Biso   1.000  H
  H64      1.0000 0.58920  0.06560  0.95390  Biso   1.000  H
  C77      1.0000 0.72500  0.62190  0.30213  Biso   1.000  C
  C78      1.0000 0.27500  0.12190  0.19787  Biso   1.000  C
  C79      1.0000 0.27500  0.37810  0.69787  Biso   1.000  C
  C80      1.0000 0.72500  0.87810  0.80213  Biso   1.000  C
  C81      1.0000 0.01320  0.08080  0.36112  Biso   1.000  C
  C82      1.0000 0.98680  0.58080  0.13888  Biso   1.000  C
  C83      1.0000 0.98680  0.91920  0.63888  Biso   1.000  C
  C84      1.0000 0.01320  0.41920  0.86112  Biso   1.000  C
  H65      1.0000 0.99140  0.07020  0.31520  Biso   1.000  H
  H66      1.0000 0.00860  0.57020  0.18480  Biso   1.000  H
  H67      1.0000 0.00860  0.92980  0.68480  Biso   1.000  H
  H68      1.0000 0.99140  0.42980  0.81520  Biso   1.000  H
  C85      1.0000 0.97980  0.01960  0.40528  Biso   1.000  C
  C86      1.0000 0.02020  0.51960  0.09472  Biso   1.000  C
  C87      1.0000 0.02020  0.98040  0.59472  Biso   1.000  C
  C88      1.0000 0.97980  0.48040  0.90528  Biso   1.000  C
  H69      1.0000 0.93620  0.96940  0.38920  Biso   1.000  H
  H70      1.0000 0.06380  0.46940  0.11080  Biso   1.000  H
  H71      1.0000 0.06380  0.03060  0.61080  Biso   1.000  H
  H72      1.0000 0.93620  0.53060  0.88920  Biso   1.000  H
  C89      1.0000 0.01150  0.03270  0.47492  Biso   1.000  C
  C90      1.0000 0.98850  0.53270  0.02508  Biso   1.000  C
  C91      1.0000 0.98850  0.96730  0.52508  Biso   1.000  C
  C92      1.0000 0.01150  0.46730  0.97492  Biso   1.000  C
  C93      1.0000 0.06820  0.11150  0.49390  Biso   1.000  C
  C94      1.0000 0.93180  0.61150  0.00610  Biso   1.000  C
  C95      1.0000 0.93180  0.88850  0.50610  Biso   1.000  C
  C96      1.0000 0.06820  0.38850  0.99390  Biso   1.000  C
  H73      1.0000 0.08630  0.12520  0.53940  Biso   1.000  H
  H74      1.0000 0.91370  0.62520  0.96060  Biso   1.000  H
  H75      1.0000 0.91370  0.87480  0.46060  Biso   1.000  H
  H76      1.0000 0.08630  0.37480  0.03940  Biso   1.000  H
  C97      1.0000 0.09790  0.16930  0.44571  Biso   1.000  C
  C98      1.0000 0.90210  0.66930  0.05429  Biso   1.000  C
  C99      1.0000 0.90210  0.83070  0.55429  Biso   1.000  C
  C100     1.0000 0.09790  0.33070  0.94571  Biso   1.000  C
  H77      1.0000 0.13590  0.22140  0.46000  Biso   1.000  H
  H78      1.0000 0.86410  0.72140  0.04000  Biso   1.000  H
  H79      1.0000 0.86410  0.77860  0.54000  Biso   1.000  H
  H80      1.0000 0.13590  0.27860  0.96000  Biso   1.000  H
  C101     1.0000 0.49010  0.44020  0.14548  Biso   1.000  C
  C102     1.0000 0.50990  0.94020  0.35452  Biso   1.000  C
  C103     1.0000 0.50990  0.55980  0.85452  Biso   1.000  C
  C104     1.0000 0.49010  0.05980  0.64548  Biso   1.000  C
  H81      1.0000 0.50640  0.45870  0.18990  Biso   1.000  H
  H82      1.0000 0.49360  0.95870  0.31010  Biso   1.000  H
  H83      1.0000 0.49360  0.54130  0.81010  Biso   1.000  H
  H84      1.0000 0.50640  0.04130  0.68990  Biso   1.000  H
  C105     1.0000 0.51590  0.49510  0.09532  Biso   1.000  C
  C106     1.0000 0.48410  0.99510  0.40468  Biso   1.000  C
  C107     1.0000 0.48410  0.50490  0.90468  Biso   1.000  C
  C108     1.0000 0.51590  0.00490  0.59532  Biso   1.000  C
  H85      1.0000 0.54960  0.54910  0.10620  Biso   1.000  H
  H86      1.0000 0.45040  0.04910  0.39380  Biso   1.000  H
  H87      1.0000 0.45040  0.45090  0.89380  Biso   1.000  H
  H88      1.0000 0.54960  0.95090  0.60620  Biso   1.000  H
  C109     1.0000 0.49210  0.47060  0.02805  Biso   1.000  C
  C110     1.0000 0.50790  0.97060  0.47195  Biso   1.000  C
  C111     1.0000 0.50790  0.52940  0.97195  Biso   1.000  C
  C112     1.0000 0.49210  0.02940  0.52805  Biso   1.000  C
  C113     1.0000 0.45130  0.38710  0.01682  Biso   1.000  C
  C114     1.0000 0.54870  0.88710  0.48318  Biso   1.000  C
  C115     1.0000 0.54870  0.61290  0.98318  Biso   1.000  C
  C116     1.0000 0.45130  0.11290  0.51682  Biso   1.000  C
  H89      1.0000 0.43970  0.36590  0.97310  Biso   1.000  H
  H90      1.0000 0.56030  0.86590  0.52690  Biso   1.000  H
  H91      1.0000 0.56030  0.63410  0.02690  Biso   1.000  H
  H92      1.0000 0.43970  0.13410  0.47310  Biso   1.000  H
  C117     1.0000 0.42820  0.33620  0.07013  Biso   1.000  C
  C118     1.0000 0.57180  0.83620  0.42987  Biso   1.000  C
  C119     1.0000 0.57180  0.66380  0.92987  Biso   1.000  C
  C120     1.0000 0.42820  0.16380  0.57013  Biso   1.000  C
  H93      1.0000 0.40080  0.28080  0.06110  Biso   1.000  H
  H94      1.0000 0.59920  0.78080  0.43890  Biso   1.000  H
  H95      1.0000 0.59920  0.71920  0.93890  Biso   1.000  H
  H96      1.0000 0.40080  0.21920  0.56110  Biso   1.000  H
