data_image0
_cell_length_a       10.5009
_cell_length_b       21.7757
_cell_length_c       10.8067
_cell_angle_alpha    90
_cell_angle_beta     93.286
_cell_angle_gamma    90

_symmetry_space_group_name_H-M    "P 1"
_symmetry_int_tables_number       1

loop_
  _symmetry_equiv_pos_as_xyz
  'x, y, z'

loop_
  _atom_site_label
  _atom_site_occupancy
  _atom_site_fract_x
  _atom_site_fract_y
  _atom_site_fract_z
  _atom_site_thermal_displace_type
  _atom_site_B_iso_or_equiv
  _atom_site_type_symbol
  Cu1      1.0000 0.35858  0.02843  0.91644  Biso   1.000  Cu
  Cu2      1.0000 0.35858  0.97157  0.41644  Biso   1.000  Cu
  Cu3      1.0000 0.85858  0.52843  0.91644  Biso   1.000  Cu
  Cu4      1.0000 0.85858  0.47157  0.41644  Biso   1.000  Cu
  Cu5      1.0000 0.41636  0.05670  0.18991  Biso   1.000  Cu
  Cu6      1.0000 0.41636  0.94330  0.68991  Biso   1.000  Cu
  Cu7      1.0000 0.91636  0.55670  0.18991  Biso   1.000  Cu
  Cu8      1.0000 0.91636  0.44330  0.68991  Biso   1.000  Cu
  Cu9      1.0000 0.29621  0.93338  0.13684  Biso   1.000  Cu
  Cu10     1.0000 0.29621  0.06662  0.63684  Biso   1.000  Cu
  Cu11     1.0000 0.79621  0.43338  0.13684  Biso   1.000  Cu
  Cu12     1.0000 0.79621  0.56662  0.63684  Biso   1.000  Cu
  O1       1.0000 0.52690  0.02975  0.01000  Biso   1.000  O
  O2       1.0000 0.52690  0.97025  0.51000  Biso   1.000  O
  O3       1.0000 0.02690  0.52975  0.01000  Biso   1.000  O
  O4       1.0000 0.02690  0.47025  0.51000  Biso   1.000  O
  O5       1.0000 0.19030  0.02549  0.82730  Biso   1.000  O
  O6       1.0000 0.19030  0.97451  0.32730  Biso   1.000  O
  O7       1.0000 0.69030  0.52549  0.82730  Biso   1.000  O
  O8       1.0000 0.69030  0.47451  0.32730  Biso   1.000  O
  O9       1.0000 0.28870  0.01789  0.07820  Biso   1.000  O
  O10      1.0000 0.28870  0.98211  0.57820  Biso   1.000  O
  O11      1.0000 0.78870  0.51789  0.07820  Biso   1.000  O
  O12      1.0000 0.78870  0.48211  0.57820  Biso   1.000  O
  O13      1.0000 0.42900  0.02914  0.75190  Biso   1.000  O
  O14      1.0000 0.42900  0.97086  0.25190  Biso   1.000  O
  O15      1.0000 0.92900  0.52914  0.75190  Biso   1.000  O
  O16      1.0000 0.92900  0.47086  0.25190  Biso   1.000  O
  O17      1.0000 0.32200  0.84966  0.20070  Biso   1.000  O
  O18      1.0000 0.32200  0.15034  0.70070  Biso   1.000  O
  O19      1.0000 0.82200  0.34966  0.20070  Biso   1.000  O
  O20      1.0000 0.82200  0.65034  0.70070  Biso   1.000  O
  O21      1.0000 0.54480  0.09053  0.31000  Biso   1.000  O
  O22      1.0000 0.54480  0.90947  0.81000  Biso   1.000  O
  O23      1.0000 0.04480  0.59053  0.31000  Biso   1.000  O
  O24      1.0000 0.04480  0.40947  0.81000  Biso   1.000  O
  O25      1.0000 0.36090  0.13975  0.14860  Biso   1.000  O
  O26      1.0000 0.36090  0.86025  0.64860  Biso   1.000  O
  O27      1.0000 0.86090  0.63975  0.14860  Biso   1.000  O
  O28      1.0000 0.86090  0.36025  0.64860  Biso   1.000  O
  O29      1.0000 0.13120  0.91297  0.05260  Biso   1.000  O
  O30      1.0000 0.13120  0.08703  0.55260  Biso   1.000  O
  O31      1.0000 0.63120  0.41297  0.05260  Biso   1.000  O
  O32      1.0000 0.63120  0.58703  0.55260  Biso   1.000  O
  O33      1.0000 0.64600  0.06967  0.86460  Biso   1.000  O
  O34      1.0000 0.64600  0.93033  0.36460  Biso   1.000  O
  O35      1.0000 0.14600  0.56967  0.86460  Biso   1.000  O
  O36      1.0000 0.14600  0.43033  0.36460  Biso   1.000  O
  O37      1.0000 0.07090  0.06000  0.97880  Biso   1.000  O
  O38      1.0000 0.07090  0.94000  0.47880  Biso   1.000  O
  O39      1.0000 0.57090  0.56000  0.97880  Biso   1.000  O
  O40      1.0000 0.57090  0.44000  0.47880  Biso   1.000  O
  O41      1.0000 0.35670  0.13390  0.94170  Biso   1.000  O
  O42      1.0000 0.35670  0.86610  0.44170  Biso   1.000  O
  O43      1.0000 0.85670  0.63390  0.94170  Biso   1.000  O
  O44      1.0000 0.85670  0.36610  0.44170  Biso   1.000  O
  O45      1.0000 0.09240  0.81868  0.12230  Biso   1.000  O
  O46      1.0000 0.09240  0.18132  0.62230  Biso   1.000  O
  O47      1.0000 0.59240  0.31868  0.12230  Biso   1.000  O
  O48      1.0000 0.59240  0.68132  0.62230  Biso   1.000  O
  C1       1.0000 0.08370  0.03950  0.87170  Biso   1.000  C
  C2       1.0000 0.08370  0.96050  0.37170  Biso   1.000  C
  C3       1.0000 0.58370  0.53950  0.87170  Biso   1.000  C
  C4       1.0000 0.58370  0.46050  0.37170  Biso   1.000  C
  C5       1.0000 0.63200  0.05100  0.97040  Biso   1.000  C
  C6       1.0000 0.63200  0.94900  0.47040  Biso   1.000  C
  C7       1.0000 0.13200  0.55100  0.97040  Biso   1.000  C
  C8       1.0000 0.13200  0.44900  0.47040  Biso   1.000  C
  C9       1.0000 0.74290  0.05240  0.06660  Biso   1.000  C
  C10      1.0000 0.74290  0.94760  0.56660  Biso   1.000  C
  C11      1.0000 0.24290  0.55240  0.06660  Biso   1.000  C
  C12      1.0000 0.24290  0.44760  0.56660  Biso   1.000  C
  H1       1.0000 0.82130  0.04670  0.02650  Biso   1.000  H
  H2       1.0000 0.82130  0.95330  0.52650  Biso   1.000  H
  H3       1.0000 0.32130  0.54670  0.02650  Biso   1.000  H
  H4       1.0000 0.32130  0.45330  0.52650  Biso   1.000  H
  H5       1.0000 0.73300  0.02010  0.12560  Biso   1.000  H
  H6       1.0000 0.73300  0.97990  0.62560  Biso   1.000  H
  H7       1.0000 0.23300  0.52010  0.12560  Biso   1.000  H
  H8       1.0000 0.23300  0.47990  0.62560  Biso   1.000  H
  H9       1.0000 0.74460  0.09130  0.10850  Biso   1.000  H
  H10      1.0000 0.74460  0.90870  0.60850  Biso   1.000  H
  H11      1.0000 0.24460  0.59130  0.10850  Biso   1.000  H
  H12      1.0000 0.24460  0.40870  0.60850  Biso   1.000  H
  C13      1.0000 0.96600  0.02840  0.78780  Biso   1.000  C
  C14      1.0000 0.96600  0.97160  0.28780  Biso   1.000  C
  C15      1.0000 0.46600  0.52840  0.78780  Biso   1.000  C
  C16      1.0000 0.46600  0.47160  0.28780  Biso   1.000  C
  H13      1.0000 0.99090  0.01650  0.70710  Biso   1.000  H
  H14      1.0000 0.99090  0.98350  0.20710  Biso   1.000  H
  H15      1.0000 0.49090  0.51650  0.70710  Biso   1.000  H
  H16      1.0000 0.49090  0.48350  0.20710  Biso   1.000  H
  H17      1.0000 0.91650  0.06550  0.78110  Biso   1.000  H
  H18      1.0000 0.91650  0.93450  0.28110  Biso   1.000  H
  H19      1.0000 0.41650  0.56550  0.78110  Biso   1.000  H
  H20      1.0000 0.41650  0.43450  0.28110  Biso   1.000  H
  H21      1.0000 0.91600  0.99640  0.82180  Biso   1.000  H
  H22      1.0000 0.91600  0.00360  0.32180  Biso   1.000  H
  H23      1.0000 0.41600  0.49640  0.82180  Biso   1.000  H
  H24      1.0000 0.41600  0.50360  0.32180  Biso   1.000  H
  C17      1.0000 0.49980  0.09890  0.41540  Biso   1.000  C
  C18      1.0000 0.49980  0.90110  0.91540  Biso   1.000  C
  C19      1.0000 0.99980  0.59890  0.41540  Biso   1.000  C
  C20      1.0000 0.99980  0.40110  0.91540  Biso   1.000  C
  C21      1.0000 0.33860  0.16170  0.04170  Biso   1.000  C
  C22      1.0000 0.33860  0.83830  0.54170  Biso   1.000  C
  C23      1.0000 0.83860  0.66170  0.04170  Biso   1.000  C
  C24      1.0000 0.83860  0.33830  0.54170  Biso   1.000  C
  C25      1.0000 0.05760  0.86830  0.07200  Biso   1.000  C
  C26      1.0000 0.05760  0.13170  0.57200  Biso   1.000  C
  C27      1.0000 0.55760  0.36830  0.07200  Biso   1.000  C
  C28      1.0000 0.55760  0.63170  0.57200  Biso   1.000  C
  C29      1.0000 0.58690  0.12520  0.51720  Biso   1.000  C
  C30      1.0000 0.58690  0.87480  0.01720  Biso   1.000  C
  C31      1.0000 0.08690  0.62520  0.51720  Biso   1.000  C
  C32      1.0000 0.08690  0.37480  0.01720  Biso   1.000  C
  H25      1.0000 0.63630  0.09270  0.55630  Biso   1.000  H
  H26      1.0000 0.63630  0.90730  0.05630  Biso   1.000  H
  H27      1.0000 0.13630  0.59270  0.55630  Biso   1.000  H
  H28      1.0000 0.13630  0.40730  0.05630  Biso   1.000  H
  H29      1.0000 0.53700  0.14490  0.57730  Biso   1.000  H
  H30      1.0000 0.53700  0.85510  0.07730  Biso   1.000  H
  H31      1.0000 0.03700  0.64490  0.57730  Biso   1.000  H
  H32      1.0000 0.03700  0.35510  0.07730  Biso   1.000  H
  H33      1.0000 0.64310  0.15460  0.48290  Biso   1.000  H
  H34      1.0000 0.64310  0.84540  0.98290  Biso   1.000  H
  H35      1.0000 0.14310  0.65460  0.48290  Biso   1.000  H
  H36      1.0000 0.14310  0.34540  0.98290  Biso   1.000  H
  C33      1.0000 0.91990  0.87600  0.02950  Biso   1.000  C
  C34      1.0000 0.91990  0.12400  0.52950  Biso   1.000  C
  C35      1.0000 0.41990  0.37600  0.02950  Biso   1.000  C
  C36      1.0000 0.41990  0.62400  0.52950  Biso   1.000  C
  H37      1.0000 0.90610  0.91690  0.99860  Biso   1.000  H
  H38      1.0000 0.90610  0.08310  0.49860  Biso   1.000  H
  H39      1.0000 0.40610  0.41690  0.99860  Biso   1.000  H
  H40      1.0000 0.40610  0.58310  0.49860  Biso   1.000  H
  H41      1.0000 0.86740  0.86900  0.09800  Biso   1.000  H
  H42      1.0000 0.86740  0.13100  0.59800  Biso   1.000  H
  H43      1.0000 0.36740  0.36900  0.09800  Biso   1.000  H
  H44      1.0000 0.36740  0.63100  0.59800  Biso   1.000  H
  H45      1.0000 0.89820  0.84690  0.96490  Biso   1.000  H
  H46      1.0000 0.89820  0.15310  0.46490  Biso   1.000  H
  H47      1.0000 0.39820  0.34690  0.96490  Biso   1.000  H
  H48      1.0000 0.39820  0.65310  0.46490  Biso   1.000  H
  C37      1.0000 0.28770  0.22610  0.03470  Biso   1.000  C
  C38      1.0000 0.28770  0.77390  0.53470  Biso   1.000  C
  C39      1.0000 0.78770  0.72610  0.03470  Biso   1.000  C
  C40      1.0000 0.78770  0.27390  0.53470  Biso   1.000  C
  H49      1.0000 0.35250  0.25410  0.06560  Biso   1.000  H
  H50      1.0000 0.35250  0.74590  0.56560  Biso   1.000  H
  H51      1.0000 0.85250  0.75410  0.06560  Biso   1.000  H
  H52      1.0000 0.85250  0.24590  0.56560  Biso   1.000  H
  H53      1.0000 0.21470  0.22930  0.08390  Biso   1.000  H
  H54      1.0000 0.21470  0.77070  0.58390  Biso   1.000  H
  H55      1.0000 0.71470  0.72930  0.08390  Biso   1.000  H
  H56      1.0000 0.71470  0.27070  0.58390  Biso   1.000  H
  H57      1.0000 0.26330  0.23610  0.95010  Biso   1.000  H
  H58      1.0000 0.26330  0.76390  0.45010  Biso   1.000  H
  H59      1.0000 0.76330  0.73610  0.95010  Biso   1.000  H
  H60      1.0000 0.76330  0.26390  0.45010  Biso   1.000  H
  O49      1.0000 0.38710  0.08617  0.43770  Biso   1.000  O
  O50      1.0000 0.38710  0.91383  0.93770  Biso   1.000  O
  O51      1.0000 0.88710  0.58617  0.43770  Biso   1.000  O
  O52      1.0000 0.88710  0.41383  0.93770  Biso   1.000  O
  C41      1.0000 0.09750  0.28120  0.33270  Biso   1.000  C
  C42      1.0000 0.09750  0.71880  0.83270  Biso   1.000  C
  C43      1.0000 0.59750  0.78120  0.33270  Biso   1.000  C
  C44      1.0000 0.59750  0.21880  0.83270  Biso   1.000  C
  H61      1.0000 0.07860  0.32280  0.33920  Biso   1.000  H
  H62      1.0000 0.07860  0.67720  0.83920  Biso   1.000  H
  H63      1.0000 0.57860  0.82280  0.33920  Biso   1.000  H
  H64      1.0000 0.57860  0.17720  0.83920  Biso   1.000  H
  N1       1.0000 0.08790  0.18290  0.28880  Biso   1.000  N
  N2       1.0000 0.08790  0.81710  0.78880  Biso   1.000  N
  N3       1.0000 0.58790  0.68290  0.28880  Biso   1.000  N
  N4       1.0000 0.58790  0.31710  0.78880  Biso   1.000  N
  N5       1.0000 0.20740  0.25240  0.37740  Biso   1.000  N
  N6       1.0000 0.20740  0.74760  0.87740  Biso   1.000  N
  N7       1.0000 0.70740  0.75240  0.37740  Biso   1.000  N
  N8       1.0000 0.70740  0.24760  0.87740  Biso   1.000  N
  C45      1.0000 0.02310  0.23800  0.27820  Biso   1.000  C
  C46      1.0000 0.02310  0.76200  0.77820  Biso   1.000  C
  C47      1.0000 0.52310  0.73800  0.27820  Biso   1.000  C
  C48      1.0000 0.52310  0.26200  0.77820  Biso   1.000  C
  H65      1.0000 0.94240  0.24400  0.24000  Biso   1.000  H
  H66      1.0000 0.94240  0.75600  0.74000  Biso   1.000  H
  H67      1.0000 0.44240  0.74400  0.24000  Biso   1.000  H
  H68      1.0000 0.44240  0.25600  0.74000  Biso   1.000  H
  C49      1.0000 0.04800  0.12380  0.23820  Biso   1.000  C
  C50      1.0000 0.04800  0.87620  0.73820  Biso   1.000  C
  C51      1.0000 0.54800  0.62380  0.23820  Biso   1.000  C
  C52      1.0000 0.54800  0.37620  0.73820  Biso   1.000  C
  H69      1.0000 0.96170  0.11580  0.25830  Biso   1.000  H
  H70      1.0000 0.96170  0.88420  0.75830  Biso   1.000  H
  H71      1.0000 0.46170  0.61580  0.25830  Biso   1.000  H
  H72      1.0000 0.46170  0.38420  0.75830  Biso   1.000  H
  H73      1.0000 0.10280  0.09230  0.27310  Biso   1.000  H
  H74      1.0000 0.10280  0.90770  0.77310  Biso   1.000  H
  H75      1.0000 0.60280  0.59230  0.27310  Biso   1.000  H
  H76      1.0000 0.60280  0.40770  0.77310  Biso   1.000  H
  H77      1.0000 0.05310  0.12440  0.14980  Biso   1.000  H
  H78      1.0000 0.05310  0.87560  0.64980  Biso   1.000  H
  H79      1.0000 0.55310  0.62440  0.14980  Biso   1.000  H
  H80      1.0000 0.55310  0.37560  0.64980  Biso   1.000  H
  C53      1.0000 0.19840  0.19300  0.34930  Biso   1.000  C
  C54      1.0000 0.19840  0.80700  0.84930  Biso   1.000  C
  C55      1.0000 0.69840  0.69300  0.34930  Biso   1.000  C
  C56      1.0000 0.69840  0.30700  0.84930  Biso   1.000  C
  H81      1.0000 0.26010  0.16340  0.36920  Biso   1.000  H
  H82      1.0000 0.26010  0.83660  0.86920  Biso   1.000  H
  H83      1.0000 0.76010  0.66340  0.36920  Biso   1.000  H
  H84      1.0000 0.76010  0.33660  0.86920  Biso   1.000  H
  O53      1.0000 0.68660  0.19990  0.22680  Biso   1.000  O
  O54      1.0000 0.68660  0.80010  0.72680  Biso   1.000  O
  O55      1.0000 0.18660  0.69990  0.22680  Biso   1.000  O
  O56      1.0000 0.18660  0.30010  0.72680  Biso   1.000  O
  C57      1.0000 0.32400  0.26970  0.45730  Biso   1.000  C
  C58      1.0000 0.32400  0.73030  0.95730  Biso   1.000  C
  C59      1.0000 0.82400  0.76970  0.45730  Biso   1.000  C
  C60      1.0000 0.82400  0.23030  0.95730  Biso   1.000  C
  H85      1.0000 0.30110  0.29090  0.53180  Biso   1.000  H
  H86      1.0000 0.30110  0.70910  0.03180  Biso   1.000  H
  H87      1.0000 0.80110  0.79090  0.53180  Biso   1.000  H
  H88      1.0000 0.80110  0.20910  0.03180  Biso   1.000  H
  H89      1.0000 0.37470  0.23380  0.48040  Biso   1.000  H
  H90      1.0000 0.37470  0.76620  0.98040  Biso   1.000  H
  H91      1.0000 0.87470  0.73380  0.48040  Biso   1.000  H
  H92      1.0000 0.87470  0.26620  0.98040  Biso   1.000  H
  C61      1.0000 0.43560  0.28130  0.38980  Biso   1.000  C
  C62      1.0000 0.43560  0.71870  0.88980  Biso   1.000  C
  C63      1.0000 0.93560  0.78130  0.38980  Biso   1.000  C
  C64      1.0000 0.93560  0.21870  0.88980  Biso   1.000  C
  H93      1.0000 0.45300  0.23850  0.40400  Biso   1.000  H
  H94      1.0000 0.45300  0.76150  0.90400  Biso   1.000  H
  H95      1.0000 0.95300  0.73850  0.40400  Biso   1.000  H
  H96      1.0000 0.95300  0.26150  0.90400  Biso   1.000  H
  H97      1.0000 0.49960  0.30550  0.43380  Biso   1.000  H
  H98      1.0000 0.49960  0.69450  0.93380  Biso   1.000  H
  H99      1.0000 0.99960  0.80550  0.43380  Biso   1.000  H
  H100     1.0000 0.99960  0.19450  0.93380  Biso   1.000  H
  H101     1.0000 0.43650  0.28980  0.30270  Biso   1.000  H
  H102     1.0000 0.43650  0.71020  0.80270  Biso   1.000  H
  H103     1.0000 0.93650  0.78980  0.30270  Biso   1.000  H
  H104     1.0000 0.93650  0.21020  0.80270  Biso   1.000  H
  H105     1.0000 0.63500  0.17400  0.24100  Biso   1.000  H
  H106     1.0000 0.63500  0.82600  0.74100  Biso   1.000  H
  H107     1.0000 0.13500  0.67400  0.24100  Biso   1.000  H
  H108     1.0000 0.13500  0.32600  0.74100  Biso   1.000  H
  H109     1.0000 0.24500  0.83100  0.18900  Biso   1.000  H
  H110     1.0000 0.24500  0.16900  0.68900  Biso   1.000  H
  H111     1.0000 0.74500  0.33100  0.18900  Biso   1.000  H
  H112     1.0000 0.74500  0.66900  0.68900  Biso   1.000  H
  H113     1.0000 0.33900  0.85200  0.27700  Biso   1.000  H
  H114     1.0000 0.33900  0.14800  0.77700  Biso   1.000  H
  H115     1.0000 0.83900  0.35200  0.27700  Biso   1.000  H
  H116     1.0000 0.83900  0.64800  0.77700  Biso   1.000  H
  H117     1.0000 0.63500  0.22900  0.21600  Biso   1.000  H
  H118     1.0000 0.63500  0.77100  0.71600  Biso   1.000  H
  H119     1.0000 0.13500  0.72900  0.21600  Biso   1.000  H
  H120     1.0000 0.13500  0.27100  0.71600  Biso   1.000  H
  C65      1.0000 0.39400  0.31140  0.37400  Biso   1.000  C
  C66      1.0000 0.39400  0.68860  0.87400  Biso   1.000  C
  C67      1.0000 0.89400  0.81140  0.37400  Biso   1.000  C
  C68      1.0000 0.89400  0.18860  0.87400  Biso   1.000  C
  C69      1.0000 0.30630  0.29680  0.43490  Biso   1.000  C
  C70      1.0000 0.30630  0.70320  0.93490  Biso   1.000  C
  C71      1.0000 0.80630  0.79680  0.43490  Biso   1.000  C
  C72      1.0000 0.80630  0.20320  0.93490  Biso   1.000  C
  H121     1.0000 0.42900  0.28770  0.30960  Biso   1.000  H
  H122     1.0000 0.42900  0.71230  0.80960  Biso   1.000  H
  H123     1.0000 0.92900  0.78770  0.30960  Biso   1.000  H
  H124     1.0000 0.92900  0.21230  0.80960  Biso   1.000  H
  H125     1.0000 0.46090  0.33190  0.42150  Biso   1.000  H
  H126     1.0000 0.46090  0.66810  0.92150  Biso   1.000  H
  H127     1.0000 0.96090  0.83190  0.42150  Biso   1.000  H
  H128     1.0000 0.96090  0.16810  0.92150  Biso   1.000  H
  H129     1.0000 0.33530  0.34130  0.33810  Biso   1.000  H
  H130     1.0000 0.33530  0.65870  0.83810  Biso   1.000  H
  H131     1.0000 0.83530  0.84130  0.33810  Biso   1.000  H
  H132     1.0000 0.83530  0.15870  0.83810  Biso   1.000  H
  H133     1.0000 0.30840  0.29380  0.52460  Biso   1.000  H
  H134     1.0000 0.30840  0.70620  0.02460  Biso   1.000  H
  H135     1.0000 0.80840  0.79380  0.52460  Biso   1.000  H
  H136     1.0000 0.80840  0.20620  0.02460  Biso   1.000  H
  H137     1.0000 0.28370  0.33860  0.41180  Biso   1.000  H
  H138     1.0000 0.28370  0.66140  0.91180  Biso   1.000  H
  H139     1.0000 0.78370  0.83860  0.41180  Biso   1.000  H
  H140     1.0000 0.78370  0.16140  0.91180  Biso   1.000  H
