data_image0
_cell_length_a       8.276
_cell_length_b       14.413
_cell_length_c       9.689
_cell_angle_alpha    90
_cell_angle_beta     96.68
_cell_angle_gamma    90

_symmetry_space_group_name_H-M    "P 1"
_symmetry_int_tables_number       1

loop_
  _symmetry_equiv_pos_as_xyz
  'x, y, z'

loop_
  _atom_site_label
  _atom_site_occupancy
  _atom_site_fract_x
  _atom_site_fract_y
  _atom_site_fract_z
  _atom_site_thermal_displace_type
  _atom_site_B_iso_or_equiv
  _atom_site_type_symbol
  Cu1      1.0000 0.17253  0.60690  0.08476  Biso   1.000  Cu
  Cu2      1.0000 0.82747  0.10690  0.91524  Biso   1.000  Cu
  Cl1      1.0000 0.12788  0.55123  0.86954  Biso   1.000  Cl
  Cl2      1.0000 0.87212  0.05123  0.13046  Biso   1.000  Cl
  Cl3      1.0000 0.21165  0.73269  0.21874  Biso   1.000  Cl
  Cl4      1.0000 0.78835  0.23269  0.78126  Biso   1.000  Cl
  O1       1.0000 0.95806  0.58144  0.13487  Biso   1.000  O
  O2       1.0000 0.04194  0.08144  0.86513  Biso   1.000  O
  O3       1.0000 0.10003  0.89977  0.01270  Biso   1.000  O
  O4       1.0000 0.89997  0.39977  0.98730  Biso   1.000  O
  H1       1.0000 0.17610  0.92240  0.03080  Biso   1.000  H
  H2       1.0000 0.82390  0.42240  0.96920  Biso   1.000  H
  H3       1.0000 0.09000  0.86210  0.09400  Biso   1.000  H
  H4       1.0000 0.91000  0.36210  0.90600  Biso   1.000  H
  N1       1.0000 0.79998  0.43989  0.24841  Biso   1.000  N
  N2       1.0000 0.20002  0.93989  0.75159  Biso   1.000  N
  H5       1.0000 0.85560  0.43600  0.17370  Biso   1.000  H
  H6       1.0000 0.14440  0.93600  0.82630  Biso   1.000  H
  C1       1.0000 0.69723  0.50808  0.25718  Biso   1.000  C
  C2       1.0000 0.30277  0.00808  0.74282  Biso   1.000  C
  C3       1.0000 0.61541  0.51469  0.38407  Biso   1.000  C
  C4       1.0000 0.38459  0.01469  0.61593  Biso   1.000  C
  C5       1.0000 0.53191  0.59458  0.41558  Biso   1.000  C
  C6       1.0000 0.46809  0.09458  0.58442  Biso   1.000  C
  H7       1.0000 0.52958  0.64787  0.35594  Biso   1.000  H
  H8       1.0000 0.47042  0.14787  0.64406  Biso   1.000  H
  C7       1.0000 0.45363  0.59713  0.53387  Biso   1.000  C
  C8       1.0000 0.54637  0.09713  0.46613  Biso   1.000  C
  H9       1.0000 0.39331  0.65122  0.55477  Biso   1.000  H
  H10      1.0000 0.60669  0.15122  0.44523  Biso   1.000  H
  C9       1.0000 0.46073  0.52191  0.62295  Biso   1.000  C
  C10      1.0000 0.53927  0.02191  0.37705  Biso   1.000  C
  H11      1.0000 0.40376  0.52349  0.70375  Biso   1.000  H
  H12      1.0000 0.59624  0.02349  0.29625  Biso   1.000  H
  C11      1.0000 0.54609  0.44313  0.59434  Biso   1.000  C
  C12      1.0000 0.45391  0.94313  0.40566  Biso   1.000  C
  H13      1.0000 0.55378  0.39155  0.65745  Biso   1.000  H
  H14      1.0000 0.44622  0.89155  0.34255  Biso   1.000  H
  C13      1.0000 0.62455  0.43880  0.47519  Biso   1.000  C
  C14      1.0000 0.37545  0.93880  0.52481  Biso   1.000  C
  C15      1.0000 0.71450  0.35306  0.43997  Biso   1.000  C
  C16      1.0000 0.28550  0.85306  0.56003  Biso   1.000  C
  H15      1.0000 0.64222  0.31304  0.38265  Biso   1.000  H
  H16      1.0000 0.35778  0.81304  0.61735  Biso   1.000  H
  H17      1.0000 0.75112  0.32025  0.52404  Biso   1.000  H
  H18      1.0000 0.24888  0.82025  0.47596  Biso   1.000  H
  C17      1.0000 0.86037  0.37704  0.36372  Biso   1.000  C
  C18      1.0000 0.13963  0.87704  0.63628  Biso   1.000  C
  C19      1.0000 0.93013  0.29066  0.30134  Biso   1.000  C
  C20      1.0000 0.06987  0.79066  0.69866  Biso   1.000  C
  H19      1.0000 0.00570  0.30939  0.23863  Biso   1.000  H
  H20      1.0000 0.99430  0.80939  0.76137  Biso   1.000  H
  H21      1.0000 0.84395  0.25656  0.24919  Biso   1.000  H
  H22      1.0000 0.15605  0.75656  0.75081  Biso   1.000  H
  C21      1.0000 0.01562  0.22752  0.41248  Biso   1.000  C
  C22      1.0000 0.98438  0.72752  0.58752  Biso   1.000  C
  H23      1.0000 0.06438  0.17632  0.36932  Biso   1.000  H
  H24      1.0000 0.93562  0.67632  0.63068  Biso   1.000  H
  H25      1.0000 0.93687  0.20283  0.46794  Biso   1.000  H
  H26      1.0000 0.06313  0.70283  0.53206  Biso   1.000  H
  C23      1.0000 0.14732  0.27825  0.50399  Biso   1.000  C
  C24      1.0000 0.85268  0.77825  0.49601  Biso   1.000  C
  H27      1.0000 0.23451  0.29484  0.45153  Biso   1.000  H
  H28      1.0000 0.76549  0.79484  0.54847  Biso   1.000  H
  H29      1.0000 0.19059  0.23775  0.57785  Biso   1.000  H
  H30      1.0000 0.80941  0.73775  0.42215  Biso   1.000  H
  C25      1.0000 0.08183  0.36500  0.56724  Biso   1.000  C
  C26      1.0000 0.91817  0.86500  0.43276  Biso   1.000  C
  H31      1.0000 0.16981  0.39830  0.61833  Biso   1.000  H
  H32      1.0000 0.83019  0.89830  0.38167  Biso   1.000  H
  H33      1.0000 0.00667  0.34767  0.63108  Biso   1.000  H
  H34      1.0000 0.99333  0.84767  0.36892  Biso   1.000  H
  C27      1.0000 0.99600  0.42831  0.45546  Biso   1.000  C
  C28      1.0000 0.00400  0.92831  0.54454  Biso   1.000  C
  H35      1.0000 0.94982  0.48008  0.49934  Biso   1.000  H
  H36      1.0000 0.05018  0.98008  0.50066  Biso   1.000  H
  H37      1.0000 0.07431  0.45201  0.39873  Biso   1.000  H
  H38      1.0000 0.92569  0.95201  0.60127  Biso   1.000  H
  C29      1.0000 0.67839  0.57607  0.14517  Biso   1.000  C
  C30      1.0000 0.32161  0.07607  0.85483  Biso   1.000  C
  C31      1.0000 0.81936  0.61246  0.09324  Biso   1.000  C
  C32      1.0000 0.18064  0.11246  0.90676  Biso   1.000  C
  C33      1.0000 0.80344  0.68869  0.98809  Biso   1.000  C
  C34      1.0000 0.19656  0.18869  0.01191  Biso   1.000  C
  H39      1.0000 0.80890  0.66265  0.89755  Biso   1.000  H
  H40      1.0000 0.19110  0.16265  0.10245  Biso   1.000  H
  H41      1.0000 0.89517  0.72924  0.00828  Biso   1.000  H
  H42      1.0000 0.10483  0.22924  0.99172  Biso   1.000  H
  C35      1.0000 0.64820  0.74656  0.98300  Biso   1.000  C
  C36      1.0000 0.35180  0.24656  0.01700  Biso   1.000  C
  C37      1.0000 0.50543  0.67893  0.97528  Biso   1.000  C
  C38      1.0000 0.49457  0.17893  0.02472  Biso   1.000  C
  H43      1.0000 0.49446  0.64938  0.88588  Biso   1.000  H
  H44      1.0000 0.50554  0.14938  0.11412  Biso   1.000  H
  H45      1.0000 0.40770  0.71369  0.98198  Biso   1.000  H
  H46      1.0000 0.59230  0.21369  0.01802  Biso   1.000  H
  C39      1.0000 0.63219  0.80831  0.85396  Biso   1.000  C
  C40      1.0000 0.36781  0.30831  0.14604  Biso   1.000  C
  H47      1.0000 0.53455  0.84460  0.85074  Biso   1.000  H
  H48      1.0000 0.46545  0.34460  0.14926  Biso   1.000  H
  H49      1.0000 0.72461  0.84887  0.85777  Biso   1.000  H
  H50      1.0000 0.27539  0.34887  0.14223  Biso   1.000  H
  H51      1.0000 0.62778  0.77026  0.77229  Biso   1.000  H
  H52      1.0000 0.37222  0.27026  0.22771  Biso   1.000  H
  C41      1.0000 0.65088  0.80797  0.11148  Biso   1.000  C
  C42      1.0000 0.34912  0.30797  0.88852  Biso   1.000  C
  H53      1.0000 0.55117  0.84254  0.10578  Biso   1.000  H
  H54      1.0000 0.44883  0.34254  0.89422  Biso   1.000  H
  H55      1.0000 0.66072  0.76997  0.19340  Biso   1.000  H
  H56      1.0000 0.33928  0.26997  0.80660  Biso   1.000  H
  H57      1.0000 0.74115  0.85012  0.11592  Biso   1.000  H
  H58      1.0000 0.25885  0.35012  0.88408  Biso   1.000  H
  C43      1.0000 0.52139  0.60519  0.08558  Biso   1.000  C
  C44      1.0000 0.47861  0.10519  0.91442  Biso   1.000  C
  O5       1.0000 0.39575  0.56628  0.11961  Biso   1.000  O
  O6       1.0000 0.60425  0.06628  0.88039  Biso   1.000  O
