data_image0
_cell_length_a       6.8896
_cell_length_b       16.523
_cell_length_c       16.511
_cell_angle_alpha    90
_cell_angle_beta     95.2
_cell_angle_gamma    90

_symmetry_space_group_name_H-M    "P 1"
_symmetry_int_tables_number       1

loop_
  _symmetry_equiv_pos_as_xyz
  'x, y, z'

loop_
  _atom_site_label
  _atom_site_occupancy
  _atom_site_fract_x
  _atom_site_fract_y
  _atom_site_fract_z
  _atom_site_thermal_displace_type
  _atom_site_B_iso_or_equiv
  _atom_site_type_symbol
  Cu1      1.0000 0.14548  0.84154  0.66601  Biso   1.000  Cu
  Cu2      1.0000 0.35452  0.34154  0.83399  Biso   1.000  Cu
  Cu3      1.0000 0.85452  0.15846  0.33399  Biso   1.000  Cu
  Cu4      1.0000 0.64548  0.65846  0.16601  Biso   1.000  Cu
  O1       1.0000 0.46650  0.83560  0.70563  Biso   1.000  O
  O2       1.0000 0.03350  0.33560  0.79437  Biso   1.000  O
  O3       1.0000 0.53350  0.16440  0.29437  Biso   1.000  O
  O4       1.0000 0.96650  0.66440  0.20563  Biso   1.000  O
  H1       1.0000 0.48260  0.83360  0.75540  Biso   1.000  H
  H2       1.0000 0.01740  0.33360  0.74460  Biso   1.000  H
  H3       1.0000 0.51740  0.16640  0.24460  Biso   1.000  H
  H4       1.0000 0.98260  0.66640  0.25540  Biso   1.000  H
  H5       1.0000 0.42900  0.78280  0.71080  Biso   1.000  H
  H6       1.0000 0.07100  0.28280  0.78920  Biso   1.000  H
  H7       1.0000 0.57100  0.21720  0.28920  Biso   1.000  H
  H8       1.0000 0.92900  0.71720  0.21080  Biso   1.000  H
  O5       1.0000 0.05900  0.84773  0.77406  Biso   1.000  O
  O6       1.0000 0.44100  0.34773  0.72594  Biso   1.000  O
  O7       1.0000 0.94100  0.15227  0.22594  Biso   1.000  O
  O8       1.0000 0.55900  0.65227  0.27406  Biso   1.000  O
  O9       1.0000 0.33460  0.83161  0.85247  Biso   1.000  O
  O10      1.0000 0.16540  0.33161  0.64753  Biso   1.000  O
  O11      1.0000 0.66540  0.16839  0.14753  Biso   1.000  O
  O12      1.0000 0.83460  0.66839  0.35247  Biso   1.000  O
  O13      1.0000 0.14160  0.89137  0.13570  Biso   1.000  O
  O14      1.0000 0.35840  0.39137  0.36430  Biso   1.000  O
  O15      1.0000 0.85840  0.10863  0.86430  Biso   1.000  O
  O16      1.0000 0.64160  0.60863  0.63570  Biso   1.000  O
  O17      1.0000 0.27150  0.73403  0.14079  Biso   1.000  O
  O18      1.0000 0.22850  0.23403  0.35921  Biso   1.000  O
  O19      1.0000 0.72850  0.26597  0.85921  Biso   1.000  O
  O20      1.0000 0.77150  0.76597  0.64079  Biso   1.000  O
  O21      1.0000 0.58070  0.77365  0.15405  Biso   1.000  O
  O22      1.0000 0.91930  0.27365  0.34595  Biso   1.000  O
  O23      1.0000 0.41930  0.22635  0.84595  Biso   1.000  O
  O24      1.0000 0.08070  0.72635  0.65405  Biso   1.000  O
  N1       1.0000 0.19170  0.85412  0.54736  Biso   1.000  N
  N2       1.0000 0.30830  0.35412  0.95264  Biso   1.000  N
  N3       1.0000 0.80830  0.14588  0.45264  Biso   1.000  N
  N4       1.0000 0.69170  0.64588  0.04736  Biso   1.000  N
  N5       1.0000 0.16790  0.96453  0.66165  Biso   1.000  N
  N6       1.0000 0.33210  0.46453  0.83835  Biso   1.000  N
  N7       1.0000 0.83210  0.03547  0.33835  Biso   1.000  N
  N8       1.0000 0.66790  0.53547  0.16165  Biso   1.000  N
  C1       1.0000 0.15980  0.84700  0.84140  Biso   1.000  C
  C2       1.0000 0.34020  0.34700  0.65860  Biso   1.000  C
  C3       1.0000 0.84020  0.15300  0.15860  Biso   1.000  C
  C4       1.0000 0.65980  0.65300  0.34140  Biso   1.000  C
  C5       1.0000 0.05110  0.86947  0.91390  Biso   1.000  C
  C6       1.0000 0.44890  0.36947  0.58610  Biso   1.000  C
  C7       1.0000 0.94890  0.13053  0.08610  Biso   1.000  C
  C8       1.0000 0.55110  0.63053  0.41390  Biso   1.000  C
  C9       1.0000 0.85920  0.89460  0.90330  Biso   1.000  C
  C10      1.0000 0.64080  0.39460  0.59670  Biso   1.000  C
  C11      1.0000 0.14080  0.10540  0.09670  Biso   1.000  C
  C12      1.0000 0.35920  0.60540  0.40330  Biso   1.000  C
  H9       1.0000 0.79100  0.89340  0.85100  Biso   1.000  H
  H10      1.0000 0.70900  0.39340  0.64900  Biso   1.000  H
  H11      1.0000 0.20900  0.10660  0.14900  Biso   1.000  H
  H12      1.0000 0.29100  0.60660  0.35100  Biso   1.000  H
  C13      1.0000 0.76640  0.91650  0.97140  Biso   1.000  C
  C14      1.0000 0.73360  0.41650  0.52860  Biso   1.000  C
  C15      1.0000 0.23360  0.08350  0.02860  Biso   1.000  C
  C16      1.0000 0.26640  0.58350  0.47140  Biso   1.000  C
  H13      1.0000 0.63100  0.93170  0.95960  Biso   1.000  H
  H14      1.0000 0.86900  0.43170  0.54040  Biso   1.000  H
  H15      1.0000 0.36900  0.06830  0.04040  Biso   1.000  H
  H16      1.0000 0.13100  0.56830  0.45960  Biso   1.000  H
  C17      1.0000 0.86240  0.91340  0.04690  Biso   1.000  C
  C18      1.0000 0.63760  0.41340  0.45310  Biso   1.000  C
  C19      1.0000 0.13760  0.08660  0.95310  Biso   1.000  C
  C20      1.0000 0.36240  0.58660  0.54690  Biso   1.000  C
  H17      1.0000 0.79770  0.92790  0.09180  Biso   1.000  H
  H18      1.0000 0.70230  0.42790  0.40820  Biso   1.000  H
  H19      1.0000 0.20230  0.07210  0.90820  Biso   1.000  H
  H20      1.0000 0.29770  0.57210  0.59180  Biso   1.000  H
  C21      1.0000 0.05500  0.88910  0.05790  Biso   1.000  C
  C22      1.0000 0.44500  0.38910  0.44210  Biso   1.000  C
  C23      1.0000 0.94500  0.11090  0.94210  Biso   1.000  C
  C24      1.0000 0.55500  0.61090  0.55790  Biso   1.000  C
  C25      1.0000 0.14700  0.86630  0.99050  Biso   1.000  C
  C26      1.0000 0.35300  0.36630  0.50950  Biso   1.000  C
  C27      1.0000 0.85300  0.13370  0.00950  Biso   1.000  C
  C28      1.0000 0.64700  0.63370  0.49050  Biso   1.000  C
  H21      1.0000 0.26700  0.84910  0.99500  Biso   1.000  H
  H22      1.0000 0.23300  0.34910  0.50500  Biso   1.000  H
  H23      1.0000 0.73300  0.15090  0.00500  Biso   1.000  H
  H24      1.0000 0.76700  0.65090  0.49500  Biso   1.000  H
  C29      1.0000 0.34400  0.87590  0.14800  Biso   1.000  C
  C30      1.0000 0.15600  0.37590  0.35200  Biso   1.000  C
  C31      1.0000 0.65600  0.12410  0.85200  Biso   1.000  C
  C32      1.0000 0.84400  0.62410  0.64800  Biso   1.000  C
  H25      1.0000 0.39360  0.89890  0.19980  Biso   1.000  H
  H26      1.0000 0.10640  0.39890  0.30020  Biso   1.000  H
  H27      1.0000 0.60640  0.10110  0.80020  Biso   1.000  H
  H28      1.0000 0.89360  0.60110  0.69980  Biso   1.000  H
  H29      1.0000 0.40810  0.90340  0.10580  Biso   1.000  H
  H30      1.0000 0.09190  0.40340  0.39420  Biso   1.000  H
  H31      1.0000 0.59190  0.09660  0.89420  Biso   1.000  H
  H32      1.0000 0.90810  0.59660  0.60580  Biso   1.000  H
  C33      1.0000 0.39780  0.78680  0.14716  Biso   1.000  C
  C34      1.0000 0.10220  0.28680  0.35284  Biso   1.000  C
  C35      1.0000 0.60220  0.21320  0.85284  Biso   1.000  C
  C36      1.0000 0.89780  0.71320  0.64716  Biso   1.000  C
  C37      1.0000 0.20170  0.79770  0.49240  Biso   1.000  C
  C38      1.0000 0.29830  0.29770  0.00760  Biso   1.000  C
  C39      1.0000 0.79830  0.20230  0.50760  Biso   1.000  C
  C40      1.0000 0.70170  0.70230  0.99240  Biso   1.000  C
  H33      1.0000 0.18380  0.74410  0.50700  Biso   1.000  H
  H34      1.0000 0.31620  0.24410  0.99300  Biso   1.000  H
  H35      1.0000 0.81620  0.25590  0.49300  Biso   1.000  H
  H36      1.0000 0.68380  0.75590  0.00700  Biso   1.000  H
  C41      1.0000 0.23820  0.81540  0.41280  Biso   1.000  C
  C42      1.0000 0.26180  0.31540  0.08720  Biso   1.000  C
  C43      1.0000 0.76180  0.18460  0.58720  Biso   1.000  C
  C44      1.0000 0.73820  0.68460  0.91280  Biso   1.000  C
  H37      1.0000 0.24430  0.77390  0.37500  Biso   1.000  H
  H38      1.0000 0.25570  0.27390  0.12500  Biso   1.000  H
  H39      1.0000 0.75570  0.22610  0.62500  Biso   1.000  H
  H40      1.0000 0.74430  0.72610  0.87500  Biso   1.000  H
  C45      1.0000 0.26520  0.89390  0.39040  Biso   1.000  C
  C46      1.0000 0.23480  0.39390  0.10960  Biso   1.000  C
  C47      1.0000 0.73480  0.10610  0.60960  Biso   1.000  C
  C48      1.0000 0.76520  0.60610  0.89040  Biso   1.000  C
  H41      1.0000 0.28850  0.90630  0.33720  Biso   1.000  H
  H42      1.0000 0.21150  0.40630  0.16280  Biso   1.000  H
  H43      1.0000 0.71150  0.09370  0.66280  Biso   1.000  H
  H44      1.0000 0.78850  0.59370  0.83720  Biso   1.000  H
  C49      1.0000 0.25740  0.95540  0.44820  Biso   1.000  C
  C50      1.0000 0.24260  0.45540  0.05180  Biso   1.000  C
  C51      1.0000 0.74260  0.04460  0.55180  Biso   1.000  C
  C52      1.0000 0.75740  0.54460  0.94820  Biso   1.000  C
  C53      1.0000 0.28750  0.04070  0.43250  Biso   1.000  C
  C54      1.0000 0.21250  0.54070  0.06750  Biso   1.000  C
  C55      1.0000 0.71250  0.95930  0.56750  Biso   1.000  C
  C56      1.0000 0.78750  0.45930  0.93250  Biso   1.000  C
  H45      1.0000 0.31110  0.05730  0.38050  Biso   1.000  H
  H46      1.0000 0.18890  0.55730  0.11950  Biso   1.000  H
  H47      1.0000 0.68890  0.94270  0.61950  Biso   1.000  H
  H48      1.0000 0.81110  0.44270  0.88050  Biso   1.000  H
  C57      1.0000 0.28160  0.09540  0.49140  Biso   1.000  C
  C58      1.0000 0.21840  0.59540  0.00860  Biso   1.000  C
  C59      1.0000 0.71840  0.90460  0.50860  Biso   1.000  C
  C60      1.0000 0.78160  0.40460  0.99140  Biso   1.000  C
  H49      1.0000 0.30420  0.14950  0.47970  Biso   1.000  H
  H50      1.0000 0.19580  0.64950  0.02030  Biso   1.000  H
  H51      1.0000 0.69580  0.85050  0.52030  Biso   1.000  H
  H52      1.0000 0.80420  0.35050  0.97970  Biso   1.000  H
  C61      1.0000 0.24170  0.07380  0.57210  Biso   1.000  C
  C62      1.0000 0.25830  0.57380  0.92790  Biso   1.000  C
  C63      1.0000 0.75830  0.92620  0.42790  Biso   1.000  C
  C64      1.0000 0.74170  0.42620  0.07210  Biso   1.000  C
  C65      1.0000 0.23300  0.12810  0.63630  Biso   1.000  C
  C66      1.0000 0.26700  0.62810  0.86370  Biso   1.000  C
  C67      1.0000 0.76700  0.87190  0.36370  Biso   1.000  C
  C68      1.0000 0.73300  0.37190  0.13630  Biso   1.000  C
  H53      1.0000 0.25740  0.18280  0.62860  Biso   1.000  H
  H54      1.0000 0.24260  0.68280  0.87140  Biso   1.000  H
  H55      1.0000 0.74260  0.81720  0.37140  Biso   1.000  H
  H56      1.0000 0.75740  0.31720  0.12860  Biso   1.000  H
  C69      1.0000 0.18910  0.10110  0.70970  Biso   1.000  C
  C70      1.0000 0.31090  0.60110  0.79030  Biso   1.000  C
  C71      1.0000 0.81090  0.89890  0.29030  Biso   1.000  C
  C72      1.0000 0.68910  0.39890  0.20970  Biso   1.000  C
  H57      1.0000 0.18140  0.13700  0.75270  Biso   1.000  H
  H58      1.0000 0.31860  0.63700  0.74730  Biso   1.000  H
  H59      1.0000 0.81860  0.86300  0.24730  Biso   1.000  H
  H60      1.0000 0.68140  0.36300  0.25270  Biso   1.000  H
  C73      1.0000 0.15530  0.01870  0.72010  Biso   1.000  C
  C74      1.0000 0.34470  0.51870  0.77990  Biso   1.000  C
  C75      1.0000 0.84470  0.98130  0.27990  Biso   1.000  C
  C76      1.0000 0.65530  0.48130  0.22010  Biso   1.000  C
  H61      1.0000 0.12250  0.00090  0.77050  Biso   1.000  H
  H62      1.0000 0.37750  0.50090  0.72950  Biso   1.000  H
  H63      1.0000 0.87750  0.99910  0.22950  Biso   1.000  H
  H64      1.0000 0.62250  0.49910  0.27050  Biso   1.000  H
  C77      1.0000 0.21140  0.99170  0.58850  Biso   1.000  C
  C78      1.0000 0.28860  0.49170  0.91150  Biso   1.000  C
  C79      1.0000 0.78860  0.00830  0.41150  Biso   1.000  C
  C80      1.0000 0.71140  0.50830  0.08850  Biso   1.000  C
  C81      1.0000 0.21970  0.93250  0.52640  Biso   1.000  C
  C82      1.0000 0.28030  0.43250  0.97360  Biso   1.000  C
  C83      1.0000 0.78030  0.06750  0.47360  Biso   1.000  C
  C84      1.0000 0.71970  0.56750  0.02640  Biso   1.000  C
