data_image0
_cell_length_a       10.482
_cell_length_b       15.565
_cell_length_c       16.702
_cell_angle_alpha    90
_cell_angle_beta     97.75
_cell_angle_gamma    90

_symmetry_space_group_name_H-M    "P 1"
_symmetry_int_tables_number       1

loop_
  _symmetry_equiv_pos_as_xyz
  'x, y, z'

loop_
  _atom_site_label
  _atom_site_occupancy
  _atom_site_fract_x
  _atom_site_fract_y
  _atom_site_fract_z
  _atom_site_thermal_displace_type
  _atom_site_B_iso_or_equiv
  _atom_site_type_symbol
  Cu1      1.0000 0.00430  0.82640  0.94960  Biso   1.000  Cu
  Cu2      1.0000 0.49570  0.32640  0.55040  Biso   1.000  Cu
  Cu3      1.0000 0.99570  0.17360  0.05040  Biso   1.000  Cu
  Cu4      1.0000 0.50430  0.67360  0.44960  Biso   1.000  Cu
  N1       1.0000 0.84250  0.71350  0.76870  Biso   1.000  N
  N2       1.0000 0.65750  0.21350  0.73130  Biso   1.000  N
  N3       1.0000 0.15750  0.28650  0.23130  Biso   1.000  N
  N4       1.0000 0.34250  0.78650  0.26870  Biso   1.000  N
  O1       1.0000 0.91010  0.74840  0.82940  Biso   1.000  O
  O2       1.0000 0.58990  0.24840  0.67060  Biso   1.000  O
  O3       1.0000 0.08990  0.25160  0.17060  Biso   1.000  O
  O4       1.0000 0.41010  0.75160  0.32940  Biso   1.000  O
  O5       1.0000 0.05270  0.92180  0.88440  Biso   1.000  O
  O6       1.0000 0.44730  0.42180  0.61560  Biso   1.000  O
  O7       1.0000 0.94730  0.07820  0.11560  Biso   1.000  O
  O8       1.0000 0.55270  0.57820  0.38440  Biso   1.000  O
  O9       1.0000 0.15660  0.76040  0.93480  Biso   1.000  O
  O10      1.0000 0.34340  0.26040  0.56520  Biso   1.000  O
  O11      1.0000 0.84340  0.23960  0.06520  Biso   1.000  O
  O12      1.0000 0.65660  0.73960  0.43480  Biso   1.000  O
  O13      1.0000 0.84670  0.88750  0.95760  Biso   1.000  O
  O14      1.0000 0.65330  0.38750  0.54240  Biso   1.000  O
  O15      1.0000 0.15330  0.11250  0.04240  Biso   1.000  O
  O16      1.0000 0.34670  0.61250  0.45760  Biso   1.000  O
  O17      1.0000 0.95460  0.73000  0.01330  Biso   1.000  O
  O18      1.0000 0.54540  0.23000  0.48670  Biso   1.000  O
  O19      1.0000 0.04540  0.27000  0.98670  Biso   1.000  O
  O20      1.0000 0.45460  0.77000  0.51330  Biso   1.000  O
  O21      1.0000 0.61340  0.60380  0.56860  Biso   1.000  O
  O22      1.0000 0.88660  0.10380  0.93140  Biso   1.000  O
  O23      1.0000 0.38660  0.39620  0.43140  Biso   1.000  O
  O24      1.0000 0.11340  0.89620  0.06860  Biso   1.000  O
  C1       1.0000 0.82050  0.62000  0.77310  Biso   1.000  C
  C2       1.0000 0.67950  0.12000  0.72690  Biso   1.000  C
  C3       1.0000 0.17950  0.38000  0.22690  Biso   1.000  C
  C4       1.0000 0.32050  0.88000  0.27310  Biso   1.000  C
  C5       1.0000 0.73170  0.58490  0.70180  Biso   1.000  C
  C6       1.0000 0.76830  0.08490  0.79820  Biso   1.000  C
  C7       1.0000 0.26830  0.41510  0.29820  Biso   1.000  C
  C8       1.0000 0.23170  0.91510  0.20180  Biso   1.000  C
  C9       1.0000 0.70270  0.63780  0.63250  Biso   1.000  C
  C10      1.0000 0.79730  0.13780  0.86750  Biso   1.000  C
  C11      1.0000 0.29730  0.36220  0.36750  Biso   1.000  C
  C12      1.0000 0.20270  0.86220  0.13250  Biso   1.000  C
  C13      1.0000 0.71180  0.72720  0.63410  Biso   1.000  C
  C14      1.0000 0.78820  0.22720  0.86590  Biso   1.000  C
  C15      1.0000 0.28820  0.27280  0.36590  Biso   1.000  C
  C16      1.0000 0.21180  0.77280  0.13410  Biso   1.000  C
  C17      1.0000 0.80390  0.77020  0.69800  Biso   1.000  C
  C18      1.0000 0.69610  0.27020  0.80200  Biso   1.000  C
  C19      1.0000 0.19610  0.22980  0.30200  Biso   1.000  C
  C20      1.0000 0.30390  0.72980  0.19800  Biso   1.000  C
  C21      1.0000 0.76260  0.60060  0.85110  Biso   1.000  C
  C22      1.0000 0.73740  0.10060  0.64890  Biso   1.000  C
  C23      1.0000 0.23740  0.39940  0.14890  Biso   1.000  C
  C24      1.0000 0.26260  0.89940  0.35110  Biso   1.000  C
  C25      1.0000 0.95130  0.57840  0.77160  Biso   1.000  C
  C26      1.0000 0.54870  0.07840  0.72840  Biso   1.000  C
  C27      1.0000 0.04870  0.42160  0.22840  Biso   1.000  C
  C28      1.0000 0.45130  0.92160  0.27160  Biso   1.000  C
  C29      1.0000 0.93920  0.78890  0.66560  Biso   1.000  C
  C30      1.0000 0.56080  0.28890  0.83440  Biso   1.000  C
  C31      1.0000 0.06080  0.21110  0.33440  Biso   1.000  C
  C32      1.0000 0.43920  0.71110  0.16560  Biso   1.000  C
  C33      1.0000 0.74080  0.84660  0.72820  Biso   1.000  C
  C34      1.0000 0.75920  0.34660  0.77180  Biso   1.000  C
  C35      1.0000 0.25920  0.15340  0.27180  Biso   1.000  C
  C36      1.0000 0.24080  0.65340  0.22820  Biso   1.000  C
  C37      1.0000 0.15700  0.99990  0.79600  Biso   1.000  C
  C38      1.0000 0.34300  0.49990  0.70400  Biso   1.000  C
  C39      1.0000 0.84300  0.00010  0.20400  Biso   1.000  C
  C40      1.0000 0.65700  0.50010  0.29600  Biso   1.000  C
  C41      1.0000 0.14690  0.92090  0.84590  Biso   1.000  C
  C42      1.0000 0.35310  0.42090  0.65410  Biso   1.000  C
  C43      1.0000 0.85310  0.07910  0.15410  Biso   1.000  C
  C44      1.0000 0.64690  0.57910  0.34590  Biso   1.000  C
  C45      1.0000 0.23800  0.85670  0.84380  Biso   1.000  C
  C46      1.0000 0.26200  0.35670  0.65620  Biso   1.000  C
  C47      1.0000 0.76200  0.14330  0.15620  Biso   1.000  C
  C48      1.0000 0.73800  0.64330  0.34380  Biso   1.000  C
  C49      1.0000 0.23330  0.78120  0.88930  Biso   1.000  C
  C50      1.0000 0.26670  0.28120  0.61070  Biso   1.000  C
  C51      1.0000 0.76670  0.21880  0.11070  Biso   1.000  C
  C52      1.0000 0.73330  0.71880  0.38930  Biso   1.000  C
  C53      1.0000 0.33920  0.71200  0.88230  Biso   1.000  C
  C54      1.0000 0.16080  0.21200  0.61770  Biso   1.000  C
  C55      1.0000 0.66080  0.28800  0.11770  Biso   1.000  C
  C56      1.0000 0.83920  0.78800  0.38230  Biso   1.000  C
  C57      1.0000 0.63240  0.91410  0.97970  Biso   1.000  C
  C58      1.0000 0.86760  0.41410  0.52030  Biso   1.000  C
  C59      1.0000 0.36760  0.08590  0.02030  Biso   1.000  C
  C60      1.0000 0.13240  0.58590  0.47970  Biso   1.000  C
  C61      1.0000 0.75310  0.85550  0.98850  Biso   1.000  C
  C62      1.0000 0.74690  0.35550  0.51150  Biso   1.000  C
  C63      1.0000 0.24690  0.14450  0.01150  Biso   1.000  C
  C64      1.0000 0.25310  0.64450  0.48850  Biso   1.000  C
  C65      1.0000 0.74530  0.77820  0.02640  Biso   1.000  C
  C66      1.0000 0.75470  0.27820  0.47360  Biso   1.000  C
  C67      1.0000 0.25470  0.22180  0.97360  Biso   1.000  C
  C68      1.0000 0.24530  0.72180  0.52640  Biso   1.000  C
  C69      1.0000 0.84820  0.72220  0.03680  Biso   1.000  C
  C70      1.0000 0.65180  0.22220  0.46320  Biso   1.000  C
  C71      1.0000 0.15180  0.27780  0.96320  Biso   1.000  C
  C72      1.0000 0.34820  0.77780  0.53680  Biso   1.000  C
  C73      1.0000 0.83520  0.63820  0.08540  Biso   1.000  C
  C74      1.0000 0.66480  0.13820  0.41460  Biso   1.000  C
  C75      1.0000 0.16480  0.36180  0.91460  Biso   1.000  C
  C76      1.0000 0.33520  0.86180  0.58540  Biso   1.000  C
  F1       1.0000 0.07120  0.00120  0.73220  Biso   1.000  F
  F2       1.0000 0.42880  0.50120  0.76780  Biso   1.000  F
  F3       1.0000 0.92880  0.99880  0.26780  Biso   1.000  F
  F4       1.0000 0.57120  0.49880  0.23220  Biso   1.000  F
  F5       1.0000 0.14060  0.07030  0.83430  Biso   1.000  F
  F6       1.0000 0.35940  0.57030  0.66570  Biso   1.000  F
  F7       1.0000 0.85940  0.92970  0.16570  Biso   1.000  F
  F8       1.0000 0.64060  0.42970  0.33430  Biso   1.000  F
  F9       1.0000 0.26650  0.00670  0.76660  Biso   1.000  F
  F10      1.0000 0.23350  0.50670  0.73340  Biso   1.000  F
  F11      1.0000 0.73350  0.99330  0.23340  Biso   1.000  F
  F12      1.0000 0.76650  0.49330  0.26660  Biso   1.000  F
  F13      1.0000 0.58440  0.92330  0.90600  Biso   1.000  F
  F14      1.0000 0.91560  0.42330  0.59400  Biso   1.000  F
  F15      1.0000 0.41560  0.07670  0.09400  Biso   1.000  F
  F16      1.0000 0.08440  0.57670  0.40600  Biso   1.000  F
  F17      1.0000 0.66580  0.99180  0.00690  Biso   1.000  F
  F18      1.0000 0.83420  0.49180  0.49310  Biso   1.000  F
  F19      1.0000 0.33420  0.00820  0.99310  Biso   1.000  F
  F20      1.0000 0.16580  0.50820  0.50690  Biso   1.000  F
  F21      1.0000 0.54080  0.88690  0.01710  Biso   1.000  F
  F22      1.0000 0.95920  0.38690  0.48290  Biso   1.000  F
  F23      1.0000 0.45920  0.11310  0.98290  Biso   1.000  F
  F24      1.0000 0.04080  0.61310  0.51710  Biso   1.000  F
