data_image0
_cell_length_a       10.4699
_cell_length_b       15.5718
_cell_length_c       16.6811
_cell_angle_alpha    90
_cell_angle_beta     97.6881
_cell_angle_gamma    90

_symmetry_space_group_name_H-M    "P 1"
_symmetry_int_tables_number       1

loop_
  _symmetry_equiv_pos_as_xyz
  'x, y, z'

loop_
  _atom_site_label
  _atom_site_occupancy
  _atom_site_fract_x
  _atom_site_fract_y
  _atom_site_fract_z
  _atom_site_thermal_displace_type
  _atom_site_B_iso_or_equiv
  _atom_site_type_symbol
  Cu1      1.0000 0.99549  0.17358  0.05031  Biso   1.000  Cu
  Cu2      1.0000 0.50451  0.67358  0.44969  Biso   1.000  Cu
  Cu3      1.0000 0.00451  0.82642  0.94969  Biso   1.000  Cu
  Cu4      1.0000 0.49549  0.32642  0.55031  Biso   1.000  Cu
  O1       1.0000 0.94750  0.07839  0.11524  Biso   1.000  O
  O2       1.0000 0.55250  0.57839  0.38476  Biso   1.000  O
  O3       1.0000 0.05250  0.92161  0.88476  Biso   1.000  O
  O4       1.0000 0.44750  0.42161  0.61524  Biso   1.000  O
  O5       1.0000 0.15429  0.11227  0.04213  Biso   1.000  O
  O6       1.0000 0.34571  0.61227  0.45787  Biso   1.000  O
  O7       1.0000 0.84571  0.88773  0.95787  Biso   1.000  O
  O8       1.0000 0.65429  0.38773  0.54213  Biso   1.000  O
  O9       1.0000 0.84300  0.23893  0.06498  Biso   1.000  O
  O10      1.0000 0.65700  0.73893  0.43502  Biso   1.000  O
  O11      1.0000 0.15700  0.76107  0.93502  Biso   1.000  O
  O12      1.0000 0.34300  0.26107  0.56498  Biso   1.000  O
  O13      1.0000 0.04490  0.26964  0.98670  Biso   1.000  O
  O14      1.0000 0.45510  0.76964  0.51330  Biso   1.000  O
  O15      1.0000 0.95510  0.73036  0.01330  Biso   1.000  O
  O16      1.0000 0.54490  0.23036  0.48670  Biso   1.000  O
  C1       1.0000 0.24690  0.14400  0.01196  Biso   1.000  C
  C2       1.0000 0.25310  0.64400  0.48804  Biso   1.000  C
  C3       1.0000 0.75310  0.85600  0.98804  Biso   1.000  C
  C4       1.0000 0.74690  0.35600  0.51196  Biso   1.000  C
  C5       1.0000 0.15140  0.27780  0.96310  Biso   1.000  C
  C6       1.0000 0.34860  0.77780  0.53690  Biso   1.000  C
  C7       1.0000 0.84860  0.72220  0.03690  Biso   1.000  C
  C8       1.0000 0.65140  0.22220  0.46310  Biso   1.000  C
  O17      1.0000 0.38670  0.39531  0.43114  Biso   1.000  O
  O18      1.0000 0.11330  0.89531  0.06886  Biso   1.000  O
  O19      1.0000 0.61330  0.60469  0.56886  Biso   1.000  O
  O20      1.0000 0.88670  0.10469  0.93114  Biso   1.000  O
  H1       1.0000 0.40100  0.44300  0.43400  Biso   1.000  H
  H2       1.0000 0.09900  0.94300  0.06600  Biso   1.000  H
  H3       1.0000 0.59900  0.55700  0.56600  Biso   1.000  H
  H4       1.0000 0.90100  0.05700  0.93400  Biso   1.000  H
  C9       1.0000 0.76130  0.14360  0.15610  Biso   1.000  C
  C10      1.0000 0.73870  0.64360  0.34390  Biso   1.000  C
  C11      1.0000 0.23870  0.85640  0.84390  Biso   1.000  C
  C12      1.0000 0.26130  0.35640  0.65610  Biso   1.000  C
  H5       1.0000 0.69670  0.13660  0.18880  Biso   1.000  H
  H6       1.0000 0.80330  0.63660  0.31120  Biso   1.000  H
  H7       1.0000 0.30330  0.86340  0.81120  Biso   1.000  H
  H8       1.0000 0.19670  0.36340  0.68880  Biso   1.000  H
  C13      1.0000 0.85220  0.07910  0.15342  Biso   1.000  C
  C14      1.0000 0.64780  0.57910  0.34658  Biso   1.000  C
  C15      1.0000 0.14780  0.92090  0.84658  Biso   1.000  C
  C16      1.0000 0.35220  0.42090  0.65342  Biso   1.000  C
  C17      1.0000 0.25520  0.22200  0.97390  Biso   1.000  C
  C18      1.0000 0.24480  0.72200  0.52610  Biso   1.000  C
  C19      1.0000 0.74480  0.77800  0.02610  Biso   1.000  C
  C20      1.0000 0.75520  0.27800  0.47390  Biso   1.000  C
  H9       1.0000 0.33190  0.23730  0.95530  Biso   1.000  H
  H10      1.0000 0.16810  0.73730  0.54470  Biso   1.000  H
  H11      1.0000 0.66810  0.76270  0.04470  Biso   1.000  H
  H12      1.0000 0.83190  0.26270  0.45530  Biso   1.000  H
  C21      1.0000 0.36540  0.08510  0.01950  Biso   1.000  C
  C22      1.0000 0.13460  0.58510  0.48050  Biso   1.000  C
  C23      1.0000 0.63460  0.91490  0.98050  Biso   1.000  C
  C24      1.0000 0.86540  0.41490  0.51950  Biso   1.000  C
  N1       1.0000 0.15730  0.28665  0.23100  Biso   1.000  N
  N2       1.0000 0.34270  0.78665  0.26900  Biso   1.000  N
  N3       1.0000 0.84270  0.71335  0.76900  Biso   1.000  N
  N4       1.0000 0.65730  0.21335  0.73100  Biso   1.000  N
  F1       1.0000 0.45750  0.11340  0.98190  Biso   1.000  F
  F2       1.0000 0.04250  0.61340  0.51810  Biso   1.000  F
  F3       1.0000 0.54250  0.88660  0.01810  Biso   1.000  F
  F4       1.0000 0.95750  0.38660  0.48190  Biso   1.000  F
  C25      1.0000 0.76490  0.21810  0.11120  Biso   1.000  C
  C26      1.0000 0.73510  0.71810  0.38880  Biso   1.000  C
  C27      1.0000 0.23510  0.78190  0.88880  Biso   1.000  C
  C28      1.0000 0.26490  0.28190  0.61120  Biso   1.000  C
  O21      1.0000 0.08740  0.25240  0.17080  Biso   1.000  O
  O22      1.0000 0.41260  0.75240  0.32920  Biso   1.000  O
  O23      1.0000 0.91260  0.74760  0.82920  Biso   1.000  O
  O24      1.0000 0.58740  0.24760  0.67080  Biso   1.000  O
  C29      1.0000 0.84040  0.99900  0.20480  Biso   1.000  C
  C30      1.0000 0.65960  0.49900  0.29520  Biso   1.000  C
  C31      1.0000 0.15960  0.00100  0.79520  Biso   1.000  C
  C32      1.0000 0.34040  0.50100  0.70480  Biso   1.000  C
  C33      1.0000 0.66100  0.28670  0.11760  Biso   1.000  C
  C34      1.0000 0.83900  0.78670  0.38240  Biso   1.000  C
  C35      1.0000 0.33900  0.71330  0.88240  Biso   1.000  C
  C36      1.0000 0.16100  0.21330  0.61760  Biso   1.000  C
  C37      1.0000 0.17830  0.38010  0.22710  Biso   1.000  C
  C38      1.0000 0.32170  0.88010  0.27290  Biso   1.000  C
  C39      1.0000 0.82170  0.61990  0.77290  Biso   1.000  C
  C40      1.0000 0.67830  0.11990  0.72710  Biso   1.000  C
  C41      1.0000 0.19430  0.23050  0.30060  Biso   1.000  C
  C42      1.0000 0.30570  0.73050  0.19940  Biso   1.000  C
  C43      1.0000 0.80570  0.76950  0.69940  Biso   1.000  C
  C44      1.0000 0.69430  0.26950  0.80060  Biso   1.000  C
  F5       1.0000 0.41550  0.07540  0.09490  Biso   1.000  F
  F6       1.0000 0.08450  0.57540  0.40510  Biso   1.000  F
  F7       1.0000 0.58450  0.92460  0.90510  Biso   1.000  F
  F8       1.0000 0.91550  0.42460  0.59490  Biso   1.000  F
  F9       1.0000 0.73140  0.99240  0.23270  Biso   1.000  F
  F10      1.0000 0.76860  0.49240  0.26730  Biso   1.000  F
  F11      1.0000 0.26860  0.00760  0.76730  Biso   1.000  F
  F12      1.0000 0.23140  0.50760  0.73270  Biso   1.000  F
  C45      1.0000 0.29930  0.36220  0.36790  Biso   1.000  C
  C46      1.0000 0.20070  0.86220  0.13210  Biso   1.000  C
  C47      1.0000 0.70070  0.63780  0.63210  Biso   1.000  C
  C48      1.0000 0.79930  0.13780  0.86790  Biso   1.000  C
  C49      1.0000 0.26560  0.41340  0.29840  Biso   1.000  C
  C50      1.0000 0.23440  0.91340  0.20160  Biso   1.000  C
  C51      1.0000 0.73440  0.58660  0.70160  Biso   1.000  C
  C52      1.0000 0.76560  0.08660  0.79840  Biso   1.000  C
  H13      1.0000 0.34530  0.43020  0.27920  Biso   1.000  H
  H14      1.0000 0.15470  0.93020  0.22080  Biso   1.000  H
  H15      1.0000 0.65470  0.56980  0.72080  Biso   1.000  H
  H16      1.0000 0.84530  0.06980  0.77920  Biso   1.000  H
  H17      1.0000 0.22660  0.46540  0.31590  Biso   1.000  H
  H18      1.0000 0.27340  0.96540  0.18410  Biso   1.000  H
  H19      1.0000 0.77340  0.53460  0.68410  Biso   1.000  H
  H20      1.0000 0.72660  0.03460  0.81590  Biso   1.000  H
  F13      1.0000 0.33340  0.00800  0.99290  Biso   1.000  F
  F14      1.0000 0.16660  0.50800  0.50710  Biso   1.000  F
  F15      1.0000 0.66660  0.99200  0.00710  Biso   1.000  F
  F16      1.0000 0.83340  0.49200  0.49290  Biso   1.000  F
  F17      1.0000 0.92830  0.99830  0.26730  Biso   1.000  F
  F18      1.0000 0.57170  0.49830  0.23270  Biso   1.000  F
  F19      1.0000 0.07170  0.00170  0.73270  Biso   1.000  F
  F20      1.0000 0.42830  0.50170  0.76730  Biso   1.000  F
  C53      1.0000 0.16620  0.36080  0.91490  Biso   1.000  C
  C54      1.0000 0.33380  0.86080  0.58510  Biso   1.000  C
  C55      1.0000 0.83380  0.63920  0.08510  Biso   1.000  C
  C56      1.0000 0.66620  0.13920  0.41490  Biso   1.000  C
  C57      1.0000 0.28760  0.27420  0.36380  Biso   1.000  C
  C58      1.0000 0.21240  0.77420  0.13620  Biso   1.000  C
  C59      1.0000 0.71240  0.72580  0.63620  Biso   1.000  C
  C60      1.0000 0.78760  0.22580  0.86380  Biso   1.000  C
  H21      1.0000 0.30100  0.23800  0.39900  Biso   1.000  H
  H22      1.0000 0.19900  0.73800  0.10100  Biso   1.000  H
  H23      1.0000 0.69900  0.76200  0.60100  Biso   1.000  H
  H24      1.0000 0.80100  0.26200  0.89900  Biso   1.000  H
  F21      1.0000 0.58580  0.26960  0.16790  Biso   1.000  F
  F22      1.0000 0.91420  0.76960  0.33210  Biso   1.000  F
  F23      1.0000 0.41420  0.73040  0.83210  Biso   1.000  F
  F24      1.0000 0.08580  0.23040  0.66790  Biso   1.000  F
  F25      1.0000 0.85860  0.92905  0.16580  Biso   1.000  F
  F26      1.0000 0.64140  0.42905  0.33420  Biso   1.000  F
  F27      1.0000 0.14140  0.07095  0.83420  Biso   1.000  F
  F28      1.0000 0.35860  0.57095  0.66580  Biso   1.000  F
  F29      1.0000 0.10170  0.42210  0.93580  Biso   1.000  F
  F30      1.0000 0.39830  0.92210  0.56420  Biso   1.000  F
  F31      1.0000 0.89830  0.57790  0.06420  Biso   1.000  F
  F32      1.0000 0.60170  0.07790  0.43580  Biso   1.000  F
  F33      1.0000 0.12000  0.35000  0.84060  Biso   1.000  F
  F34      1.0000 0.38000  0.85000  0.65940  Biso   1.000  F
  F35      1.0000 0.88000  0.65000  0.15940  Biso   1.000  F
  F36      1.0000 0.62000  0.15000  0.34060  Biso   1.000  F
  F37      1.0000 0.70620  0.35850  0.13000  Biso   1.000  F
  F38      1.0000 0.79380  0.85850  0.37000  Biso   1.000  F
  F39      1.0000 0.29380  0.64150  0.87000  Biso   1.000  F
  F40      1.0000 0.20620  0.14150  0.63000  Biso   1.000  F
  F41      1.0000 0.58670  0.29470  0.05210  Biso   1.000  F
  F42      1.0000 0.91330  0.79470  0.44790  Biso   1.000  F
  F43      1.0000 0.41330  0.70530  0.94790  Biso   1.000  F
  F44      1.0000 0.08670  0.20530  0.55210  Biso   1.000  F
  F45      1.0000 0.27900  0.38510  0.91510  Biso   1.000  F
  F46      1.0000 0.22100  0.88510  0.58490  Biso   1.000  F
  F47      1.0000 0.72100  0.61490  0.08490  Biso   1.000  F
  F48      1.0000 0.77900  0.11490  0.41510  Biso   1.000  F
  C61      1.0000 0.25170  0.15290  0.27020  Biso   1.000  C
  C62      1.0000 0.24830  0.65290  0.22980  Biso   1.000  C
  C63      1.0000 0.74830  0.84710  0.72980  Biso   1.000  C
  C64      1.0000 0.75170  0.34710  0.77020  Biso   1.000  C
  H25      1.0000 0.19430  0.12960  0.22580  Biso   1.000  H
  H26      1.0000 0.30570  0.62960  0.27420  Biso   1.000  H
  H27      1.0000 0.80570  0.87040  0.77420  Biso   1.000  H
  H28      1.0000 0.69430  0.37040  0.72580  Biso   1.000  H
  H29      1.0000 0.26600  0.11110  0.31270  Biso   1.000  H
  H30      1.0000 0.23400  0.61110  0.18730  Biso   1.000  H
  H31      1.0000 0.73400  0.88890  0.68730  Biso   1.000  H
  H32      1.0000 0.76600  0.38890  0.81270  Biso   1.000  H
  H33      1.0000 0.33240  0.16730  0.25220  Biso   1.000  H
  H34      1.0000 0.16760  0.66730  0.24780  Biso   1.000  H
  H35      1.0000 0.66760  0.83270  0.74780  Biso   1.000  H
  H36      1.0000 0.83240  0.33270  0.75220  Biso   1.000  H
  C65      1.0000 0.23960  0.39780  0.15210  Biso   1.000  C
  C66      1.0000 0.26040  0.89780  0.34790  Biso   1.000  C
  C67      1.0000 0.76040  0.60220  0.84790  Biso   1.000  C
  C68      1.0000 0.73960  0.10220  0.65210  Biso   1.000  C
  H37      1.0000 0.28140  0.34680  0.13660  Biso   1.000  H
  H38      1.0000 0.21860  0.84680  0.36340  Biso   1.000  H
  H39      1.0000 0.71860  0.65320  0.86340  Biso   1.000  H
  H40      1.0000 0.78140  0.15320  0.63660  Biso   1.000  H
  H41      1.0000 0.30200  0.44300  0.16290  Biso   1.000  H
  H42      1.0000 0.19800  0.94300  0.33710  Biso   1.000  H
  H43      1.0000 0.69800  0.55700  0.83710  Biso   1.000  H
  H44      1.0000 0.80200  0.05700  0.66290  Biso   1.000  H
  H45      1.0000 0.17440  0.41510  0.10910  Biso   1.000  H
  H46      1.0000 0.32560  0.91510  0.39090  Biso   1.000  H
  H47      1.0000 0.82560  0.58490  0.89090  Biso   1.000  H
  H48      1.0000 0.67440  0.08490  0.60910  Biso   1.000  H
  C69      1.0000 0.06940  0.21000  0.33510  Biso   1.000  C
  C70      1.0000 0.43060  0.71000  0.16490  Biso   1.000  C
  C71      1.0000 0.93060  0.79000  0.66490  Biso   1.000  C
  C72      1.0000 0.56940  0.29000  0.83510  Biso   1.000  C
  H49      1.0000 0.00020  0.20340  0.29150  Biso   1.000  H
  H50      1.0000 0.49980  0.70340  0.20850  Biso   1.000  H
  H51      1.0000 0.99980  0.79660  0.70850  Biso   1.000  H
  H52      1.0000 0.50020  0.29660  0.79150  Biso   1.000  H
  H53      1.0000 0.04960  0.25590  0.36970  Biso   1.000  H
  H54      1.0000 0.45040  0.75590  0.13030  Biso   1.000  H
  H55      1.0000 0.95040  0.74410  0.63030  Biso   1.000  H
  H56      1.0000 0.54960  0.24410  0.86970  Biso   1.000  H
  H57      1.0000 0.07990  0.15760  0.36560  Biso   1.000  H
  H58      1.0000 0.42010  0.65760  0.13440  Biso   1.000  H
  H59      1.0000 0.92010  0.84240  0.63440  Biso   1.000  H
  H60      1.0000 0.57990  0.34240  0.86560  Biso   1.000  H
  C73      1.0000 0.05200  0.42160  0.22200  Biso   1.000  C
  C74      1.0000 0.44800  0.92160  0.27800  Biso   1.000  C
  C75      1.0000 0.94800  0.57840  0.77800  Biso   1.000  C
  C76      1.0000 0.55200  0.07840  0.72200  Biso   1.000  C
  H61      1.0000 0.00680  0.41460  0.16840  Biso   1.000  H
  H62      1.0000 0.49320  0.91460  0.33160  Biso   1.000  H
  H63      1.0000 0.99320  0.58540  0.83160  Biso   1.000  H
  H64      1.0000 0.50680  0.08540  0.66840  Biso   1.000  H
  H65      1.0000 0.06320  0.48170  0.23380  Biso   1.000  H
  H66      1.0000 0.43680  0.98170  0.26620  Biso   1.000  H
  H67      1.0000 0.93680  0.51830  0.76620  Biso   1.000  H
  H68      1.0000 0.56320  0.01830  0.73380  Biso   1.000  H
  H69      1.0000 0.00320  0.39580  0.26040  Biso   1.000  H
  H70      1.0000 0.49680  0.89580  0.23960  Biso   1.000  H
  H71      1.0000 0.99680  0.60420  0.73960  Biso   1.000  H
  H72      1.0000 0.50320  0.10420  0.76040  Biso   1.000  H
