data_image0
_cell_length_a       14.304
_cell_length_b       16.97
_cell_length_c       11.098
_cell_angle_alpha    90
_cell_angle_beta     90
_cell_angle_gamma    90

_symmetry_space_group_name_H-M    "P 1"
_symmetry_int_tables_number       1

loop_
  _symmetry_equiv_pos_as_xyz
  'x, y, z'

loop_
  _atom_site_label
  _atom_site_occupancy
  _atom_site_fract_x
  _atom_site_fract_y
  _atom_site_fract_z
  _atom_site_thermal_displace_type
  _atom_site_B_iso_or_equiv
  _atom_site_type_symbol
  C1       1.0000 0.94160  0.12950  0.00000  Biso   1.000  C
  C2       1.0000 0.05840  0.87050  0.00000  Biso   1.000  C
  C3       1.0000 0.44160  0.37050  0.00000  Biso   1.000  C
  C4       1.0000 0.55840  0.62950  0.00000  Biso   1.000  C
  C5       1.0000 0.95140  0.21850  0.00000  Biso   1.000  C
  C6       1.0000 0.04860  0.78150  0.00000  Biso   1.000  C
  C7       1.0000 0.45140  0.28150  0.00000  Biso   1.000  C
  C8       1.0000 0.54860  0.71850  0.00000  Biso   1.000  C
  C9       1.0000 0.04190  0.24830  0.00000  Biso   1.000  C
  C10      1.0000 0.95810  0.75170  0.00000  Biso   1.000  C
  C11      1.0000 0.54190  0.25170  0.00000  Biso   1.000  C
  C12      1.0000 0.45810  0.74830  0.00000  Biso   1.000  C
  H1       1.0000 0.09260  0.21400  0.00000  Biso   1.000  H
  H2       1.0000 0.90740  0.78600  0.00000  Biso   1.000  H
  H3       1.0000 0.59260  0.28600  0.00000  Biso   1.000  H
  H4       1.0000 0.40740  0.71400  0.00000  Biso   1.000  H
  C13      1.0000 0.05670  0.32750  0.00000  Biso   1.000  C
  C14      1.0000 0.94330  0.67250  0.00000  Biso   1.000  C
  C15      1.0000 0.55670  0.17250  0.00000  Biso   1.000  C
  C16      1.0000 0.44330  0.82750  0.00000  Biso   1.000  C
  C17      1.0000 0.97940  0.37950  0.00000  Biso   1.000  C
  C18      1.0000 0.02060  0.62050  0.00000  Biso   1.000  C
  C19      1.0000 0.47940  0.12050  0.00000  Biso   1.000  C
  C20      1.0000 0.52060  0.87950  0.00000  Biso   1.000  C
  H5       1.0000 0.98860  0.43380  0.00000  Biso   1.000  H
  H6       1.0000 0.01140  0.56620  0.00000  Biso   1.000  H
  H7       1.0000 0.48860  0.06620  0.00000  Biso   1.000  H
  H8       1.0000 0.51140  0.93380  0.00000  Biso   1.000  H
  C21      1.0000 0.88910  0.34800  0.00000  Biso   1.000  C
  C22      1.0000 0.11090  0.65200  0.00000  Biso   1.000  C
  C23      1.0000 0.38910  0.15200  0.00000  Biso   1.000  C
  C24      1.0000 0.61090  0.84800  0.00000  Biso   1.000  C
  C25      1.0000 0.87540  0.26930  0.00000  Biso   1.000  C
  C26      1.0000 0.12460  0.73070  0.00000  Biso   1.000  C
  C27      1.0000 0.37540  0.23070  0.00000  Biso   1.000  C
  C28      1.0000 0.62460  0.76930  0.00000  Biso   1.000  C
  H9       1.0000 0.81490  0.24920  0.00000  Biso   1.000  H
  H10      1.0000 0.18510  0.75080  0.00000  Biso   1.000  H
  H11      1.0000 0.31490  0.25080  0.00000  Biso   1.000  H
  H12      1.0000 0.68510  0.74920  0.00000  Biso   1.000  H
  C29      1.0000 0.80940  0.40690  0.00000  Biso   1.000  C
  C30      1.0000 0.19060  0.59310  0.00000  Biso   1.000  C
  C31      1.0000 0.30940  0.09310  0.00000  Biso   1.000  C
  C32      1.0000 0.69060  0.90690  0.00000  Biso   1.000  C
  C33      1.0000 0.18380  0.95700  0.75620  Biso   1.000  C
  C34      1.0000 0.81620  0.04300  0.75620  Biso   1.000  C
  C35      1.0000 0.68380  0.54300  0.24380  Biso   1.000  C
  C36      1.0000 0.31620  0.45700  0.24380  Biso   1.000  C
  C37      1.0000 0.81620  0.04300  0.24380  Biso   1.000  C
  C38      1.0000 0.18380  0.95700  0.24380  Biso   1.000  C
  C39      1.0000 0.31620  0.45700  0.75620  Biso   1.000  C
  C40      1.0000 0.68380  0.54300  0.75620  Biso   1.000  C
  H13      1.0000 0.21090  0.91530  0.79790  Biso   1.000  H
  H14      1.0000 0.78910  0.08470  0.79790  Biso   1.000  H
  H15      1.0000 0.71090  0.58470  0.20210  Biso   1.000  H
  H16      1.0000 0.28910  0.41530  0.20210  Biso   1.000  H
  H17      1.0000 0.78910  0.08470  0.20210  Biso   1.000  H
  H18      1.0000 0.21090  0.91530  0.20210  Biso   1.000  H
  H19      1.0000 0.28910  0.41530  0.79790  Biso   1.000  H
  H20      1.0000 0.71090  0.58470  0.79790  Biso   1.000  H
  C41      1.0000 0.10860  0.07250  0.75700  Biso   1.000  C
  C42      1.0000 0.89140  0.92750  0.75700  Biso   1.000  C
  C43      1.0000 0.60860  0.42750  0.24300  Biso   1.000  C
  C44      1.0000 0.39140  0.57250  0.24300  Biso   1.000  C
  C45      1.0000 0.89140  0.92750  0.24300  Biso   1.000  C
  C46      1.0000 0.10860  0.07250  0.24300  Biso   1.000  C
  C47      1.0000 0.39140  0.57250  0.75700  Biso   1.000  C
  C48      1.0000 0.60860  0.42750  0.75700  Biso   1.000  C
  H21      1.0000 0.08190  0.11420  0.79890  Biso   1.000  H
  H22      1.0000 0.91810  0.88580  0.79890  Biso   1.000  H
  H23      1.0000 0.58190  0.38580  0.20110  Biso   1.000  H
  H24      1.0000 0.41810  0.61420  0.20110  Biso   1.000  H
  H25      1.0000 0.91810  0.88580  0.20110  Biso   1.000  H
  H26      1.0000 0.08190  0.11420  0.20110  Biso   1.000  H
  H27      1.0000 0.41810  0.61420  0.79890  Biso   1.000  H
  H28      1.0000 0.58190  0.38580  0.79890  Biso   1.000  H
  C49      1.0000 0.18430  0.95450  0.63160  Biso   1.000  C
  C50      1.0000 0.81570  0.04550  0.63160  Biso   1.000  C
  C51      1.0000 0.68430  0.54550  0.36840  Biso   1.000  C
  C52      1.0000 0.31570  0.45450  0.36840  Biso   1.000  C
  C53      1.0000 0.81570  0.04550  0.36840  Biso   1.000  C
  C54      1.0000 0.18430  0.95450  0.36840  Biso   1.000  C
  C55      1.0000 0.31570  0.45450  0.63160  Biso   1.000  C
  C56      1.0000 0.68430  0.54550  0.63160  Biso   1.000  C
  H29      1.0000 0.21150  0.91200  0.59200  Biso   1.000  H
  H30      1.0000 0.78850  0.08800  0.59200  Biso   1.000  H
  H31      1.0000 0.71150  0.58800  0.40800  Biso   1.000  H
  H32      1.0000 0.28850  0.41200  0.40800  Biso   1.000  H
  H33      1.0000 0.78850  0.08800  0.40800  Biso   1.000  H
  H34      1.0000 0.21150  0.91200  0.40800  Biso   1.000  H
  H35      1.0000 0.28850  0.41200  0.59200  Biso   1.000  H
  H36      1.0000 0.71150  0.58800  0.59200  Biso   1.000  H
  C57      1.0000 0.14490  0.01460  0.56630  Biso   1.000  C
  C58      1.0000 0.85510  0.98540  0.56630  Biso   1.000  C
  C59      1.0000 0.64490  0.48540  0.43370  Biso   1.000  C
  C60      1.0000 0.35510  0.51460  0.43370  Biso   1.000  C
  C61      1.0000 0.85510  0.98540  0.43370  Biso   1.000  C
  C62      1.0000 0.14490  0.01460  0.43370  Biso   1.000  C
  C63      1.0000 0.35510  0.51460  0.56630  Biso   1.000  C
  C64      1.0000 0.64490  0.48540  0.56630  Biso   1.000  C
  C65      1.0000 0.10590  0.07380  0.63350  Biso   1.000  C
  C66      1.0000 0.89410  0.92620  0.63350  Biso   1.000  C
  C67      1.0000 0.60590  0.42620  0.36650  Biso   1.000  C
  C68      1.0000 0.39410  0.57380  0.36650  Biso   1.000  C
  C69      1.0000 0.89410  0.92620  0.36650  Biso   1.000  C
  C70      1.0000 0.10590  0.07380  0.36650  Biso   1.000  C
  C71      1.0000 0.39410  0.57380  0.63350  Biso   1.000  C
  C72      1.0000 0.60590  0.42620  0.63350  Biso   1.000  C
  H37      1.0000 0.07710  0.11580  0.59460  Biso   1.000  H
  H38      1.0000 0.92290  0.88420  0.59460  Biso   1.000  H
  H39      1.0000 0.57710  0.38420  0.40540  Biso   1.000  H
  H40      1.0000 0.42290  0.61580  0.40540  Biso   1.000  H
  H41      1.0000 0.92290  0.88420  0.40540  Biso   1.000  H
  H42      1.0000 0.07710  0.11580  0.40540  Biso   1.000  H
  H43      1.0000 0.42290  0.61580  0.59460  Biso   1.000  H
  H44      1.0000 0.57710  0.38420  0.59460  Biso   1.000  H
  N1       1.0000 0.14710  0.01510  0.81900  Biso   1.000  N
  N2       1.0000 0.85290  0.98490  0.81900  Biso   1.000  N
  N3       1.0000 0.64710  0.48490  0.18100  Biso   1.000  N
  N4       1.0000 0.35290  0.51510  0.18100  Biso   1.000  N
  N5       1.0000 0.85290  0.98490  0.18100  Biso   1.000  N
  N6       1.0000 0.14710  0.01510  0.18100  Biso   1.000  N
  N7       1.0000 0.35290  0.51510  0.81900  Biso   1.000  N
  N8       1.0000 0.64710  0.48490  0.81900  Biso   1.000  N
  O1       1.0000 0.85850  0.10170  0.00000  Biso   1.000  O
  O2       1.0000 0.14150  0.89830  0.00000  Biso   1.000  O
  O3       1.0000 0.35850  0.39830  0.00000  Biso   1.000  O
  O4       1.0000 0.64150  0.60170  0.00000  Biso   1.000  O
  O5       1.0000 0.01210  0.08910  0.00000  Biso   1.000  O
  O6       1.0000 0.98790  0.91090  0.00000  Biso   1.000  O
  O7       1.0000 0.51210  0.41090  0.00000  Biso   1.000  O
  O8       1.0000 0.48790  0.58910  0.00000  Biso   1.000  O
  O9       1.0000 0.72670  0.38220  0.00000  Biso   1.000  O
  O10      1.0000 0.27330  0.61780  0.00000  Biso   1.000  O
  O11      1.0000 0.22670  0.11780  0.00000  Biso   1.000  O
  O12      1.0000 0.77330  0.88220  0.00000  Biso   1.000  O
  O13      1.0000 0.82650  0.47920  0.00000  Biso   1.000  O
  O14      1.0000 0.17350  0.52080  0.00000  Biso   1.000  O
  O15      1.0000 0.32650  0.02080  0.00000  Biso   1.000  O
  O16      1.0000 0.67350  0.97920  0.00000  Biso   1.000  O
  Cu1      1.0000 0.15113  0.01548  0.00000  Biso   1.000  Cu
  Cu2      1.0000 0.84887  0.98452  0.00000  Biso   1.000  Cu
  Cu3      1.0000 0.65113  0.48452  0.00000  Biso   1.000  Cu
  Cu4      1.0000 0.34887  0.51548  0.00000  Biso   1.000  Cu
  N9       1.0000 0.14640  0.35950  0.00000  Biso   1.000  N
  N10      1.0000 0.85360  0.64050  0.00000  Biso   1.000  N
  N11      1.0000 0.64640  0.14050  0.00000  Biso   1.000  N
  N12      1.0000 0.35360  0.85950  0.00000  Biso   1.000  N
  H45      1.0000 0.19440  0.32900  0.00000  Biso   1.000  H
  H46      1.0000 0.80560  0.67100  0.00000  Biso   1.000  H
  H47      1.0000 0.69440  0.17100  0.00000  Biso   1.000  H
  H48      1.0000 0.30560  0.82900  0.00000  Biso   1.000  H
  H49      1.0000 0.15380  0.40980  0.00000  Biso   1.000  H
  H50      1.0000 0.84620  0.59020  0.00000  Biso   1.000  H
  H51      1.0000 0.65380  0.09020  0.00000  Biso   1.000  H
  H52      1.0000 0.34620  0.90980  0.00000  Biso   1.000  H
