data_image0
_cell_length_a       7.3902
_cell_length_b       11.2945
_cell_length_c       14.9602
_cell_angle_alpha    110.183
_cell_angle_beta     96.516
_cell_angle_gamma    99.838

_symmetry_space_group_name_H-M    "P 1"
_symmetry_int_tables_number       1

loop_
  _symmetry_equiv_pos_as_xyz
  'x, y, z'

loop_
  _atom_site_label
  _atom_site_occupancy
  _atom_site_fract_x
  _atom_site_fract_y
  _atom_site_fract_z
  _atom_site_thermal_displace_type
  _atom_site_B_iso_or_equiv
  _atom_site_type_symbol
  Cu1      1.0000 0.82875  0.13563  0.22029  Biso   1.000  Cu
  C1       1.0000 0.98940  0.23490  0.95420  Biso   1.000  C
  H1       1.0000 0.03030  0.25050  0.90200  Biso   1.000  H
  C2       1.0000 0.47290  0.78110  0.94160  Biso   1.000  C
  H2       1.0000 0.39430  0.72070  0.88560  Biso   1.000  H
  C3       1.0000 0.04440  0.32440  0.04490  Biso   1.000  C
  H3       1.0000 0.12130  0.40340  0.05360  Biso   1.000  H
  C4       1.0000 0.48000  0.76690  0.03120  Biso   1.000  C
  H4       1.0000 0.41410  0.69220  0.03610  Biso   1.000  H
  C5       1.0000 0.87140  0.12020  0.94120  Biso   1.000  C
  H5       1.0000 0.82810  0.05790  0.87910  Biso   1.000  H
  C6       1.0000 0.59190  0.87090  0.11510  Biso   1.000  C
  H6       1.0000 0.58930  0.86550  0.17570  Biso   1.000  H
  C7       1.0000 0.59300  0.89320  0.94160  Biso   1.000  C
  H7       1.0000 0.59960  0.90460  0.88330  Biso   1.000  H
  C8       1.0000 0.99510  0.30600  0.12170  Biso   1.000  C
  H8       1.0000 0.04000  0.37070  0.18270  Biso   1.000  H
  C9       1.0000 0.81550  0.09610  0.02130  Biso   1.000  C
  C10      1.0000 0.69790  0.98340  0.02430  Biso   1.000  C
  C11      1.0000 0.86000  0.52090  0.40010  Biso   1.000  C
  H9       1.0000 0.83480  0.59760  0.39730  Biso   1.000  H
  C12      1.0000 0.95140  0.49560  0.51000  Biso   1.000  C
  H10      1.0000 0.97870  0.55650  0.57310  Biso   1.000  H
  C13      1.0000 0.93200  0.95220  0.31540  Biso   1.000  C
  H11      1.0000 0.89730  0.88950  0.25310  Biso   1.000  H
  C14      1.0000 0.05500  0.99400  0.46900  Biso   1.000  C
  H12      1.0000 0.10220  0.96780  0.51740  Biso   1.000  H
  C15      1.0000 0.00290  0.91800  0.38600  Biso   1.000  C
  H13      1.0000 0.01260  0.83220  0.37130  Biso   1.000  H
  C16      1.0000 0.04000  0.13900  0.49070  Biso   1.000  C
  H14      1.0000 0.08080  0.20440  0.55170  Biso   1.000  H
  C17      1.0000 0.83700  0.41050  0.32560  Biso   1.000  C
  H15      1.0000 0.79170  0.40860  0.26440  Biso   1.000  H
  C18      1.0000 0.96290  0.15860  0.41240  Biso   1.000  C
  C19      1.0000 0.93820  0.29260  0.41770  Biso   1.000  C
  C20      1.0000 0.47700  0.58400  0.56840  Biso   1.000  C
  H16      1.0000 0.46120  0.66540  0.57260  Biso   1.000  H
  C21      1.0000 0.55550  0.55900  0.65450  Biso   1.000  C
  H17      1.0000 0.58200  0.62600  0.71500  Biso   1.000  H
  C22      1.0000 0.56900  0.98920  0.49440  Biso   1.000  C
  H18      1.0000 0.54420  0.90450  0.45000  Biso   1.000  H
  C23      1.0000 0.51650  0.11800  0.46040  Biso   1.000  C
  H19      1.0000 0.47520  0.11720  0.39920  Biso   1.000  H
  C24      1.0000 0.61700  0.00960  0.55310  Biso   1.000  C
  H20      1.0000 0.65800  0.94010  0.56170  Biso   1.000  H
  C25      1.0000 0.42800  0.47600  0.47970  Biso   1.000  C
  H21      1.0000 0.37580  0.48420  0.42320  Biso   1.000  H
  C26      1.0000 0.65700  0.11720  0.64340  Biso   1.000  C
  H22      1.0000 0.70890  0.10990  0.70030  Biso   1.000  H
  C27      1.0000 0.61510  0.41600  0.02860  Biso   1.000  C
  H23      1.0000 0.65800  0.48640  0.08680  Biso   1.000  H
  C28      1.0000 0.43010  0.20320  0.93530  Biso   1.000  C
  H24      1.0000 0.35230  0.12570  0.92920  Biso   1.000  H
  C29      1.0000 0.47990  0.22730  0.85150  Biso   1.000  C
  H25      1.0000 0.42870  0.16520  0.79010  Biso   1.000  H
  C30      1.0000 0.52480  0.34100  0.55480  Biso   1.000  C
  C31      1.0000 0.99720  0.75540  0.93470  Biso   1.000  C
  H26      1.0000 0.07710  0.82570  0.93050  Biso   1.000  H
  C32      1.0000 0.89540  0.64580  0.03270  Biso   1.000  C
  H27      1.0000 0.90450  0.63980  0.09350  Biso   1.000  H
  C33      1.0000 0.50460  0.30240  0.02670  Biso   1.000  C
  H28      1.0000 0.48060  0.29210  0.08360  Biso   1.000  H
  C34      1.0000 0.88900  0.66230  0.85390  Biso   1.000  C
  H29      1.0000 0.88950  0.66960  0.79380  Biso   1.000  H
  C35      1.0000 0.55710  0.22840  0.55820  Biso   1.000  C
  C36      1.0000 0.98900  0.74600  0.02100  Biso   1.000  C
  H30      1.0000 0.05430  0.81570  0.07610  Biso   1.000  H
  C37      1.0000 0.66100  0.42400  0.94390  Biso   1.000  C
  C38      1.0000 0.78010  0.54670  0.95070  Biso   1.000  C
  C39      1.0000 0.96600  0.40400  0.48950  Biso   1.000  C
  H31      1.0000 0.02390  0.39480  0.54430  Biso   1.000  H
  C40      1.0000 0.45100  0.38200  0.47840  Biso   1.000  C
  H32      1.0000 0.41780  0.31700  0.41710  Biso   1.000  H
  N1       1.0000 0.88180  0.19600  0.11340  Biso   1.000  N
  N2       1.0000 0.69990  0.97520  0.10990  Biso   1.000  N
  N3       1.0000 0.90790  0.06860  0.32800  Biso   1.000  N
  N4       1.0000 0.87350  0.30100  0.33190  Biso   1.000  N
  N5       1.0000 0.58720  0.45190  0.64860  Biso   1.000  N
  N6       1.0000 0.61830  0.22260  0.64420  Biso   1.000  N
  N7       1.0000 0.59730  0.33600  0.85940  Biso   1.000  N
  N8       1.0000 0.78030  0.55870  0.86120  Biso   1.000  N
  O1       1.0000 0.50190  0.18230  0.20970  Biso   1.000  O
  O2       1.0000 0.30320  0.99680  0.22430  Biso   1.000  O
  O3       1.0000 0.23760  0.05700  0.10280  Biso   1.000  O
  O4       1.0000 0.21260  0.19850  0.25180  Biso   1.000  O
  O5       1.0000 0.97650  0.36230  0.74400  Biso   1.000  O
  O6       1.0000 0.22060  0.46080  0.87500  Biso   1.000  O
  O7       1.0000 0.13800  0.50410  0.73390  Biso   1.000  O
  O8       1.0000 0.26510  0.33460  0.72150  Biso   1.000  O
  O9       1.0000 0.86600  0.84000  0.71750  Biso   1.000  O
  O10      1.0000 0.99300  0.82380  0.60970  Biso   1.000  O
  O11      1.0000 0.17100  0.91000  0.79350  Biso   1.000  O
  O12      1.0000 0.05400  0.00580  0.71410  Biso   1.000  O
  O13      1.0000 0.28400  0.65000  0.33650  Biso   1.000  O
  O14      1.0000 0.29800  0.67800  0.20600  Biso   1.000  O
  O15      1.0000 0.41310  0.50650  0.24420  Biso   1.000  O
  O16      1.0000 0.54900  0.69000  0.28460  Biso   1.000  O
  S1       1.0000 0.31940  0.11210  0.19729  Biso   1.000  S
  S2       1.0000 0.16240  0.41840  0.77201  Biso   1.000  S
  S3       1.0000 0.06150  0.89470  0.70560  Biso   1.000  S
  S4       1.0000 0.38910  0.64140  0.26290  Biso   1.000  S
  Cu2      1.0000 0.65076  0.39429  0.75154  Biso   1.000  Cu
