data_image0
_cell_length_a       5.9362
_cell_length_b       10.1204
_cell_length_c       11.9417
_cell_angle_alpha    90
_cell_angle_beta     94.377
_cell_angle_gamma    90

_symmetry_space_group_name_H-M    "P 1"
_symmetry_int_tables_number       1

loop_
  _symmetry_equiv_pos_as_xyz
  'x, y, z'

loop_
  _atom_site_label
  _atom_site_occupancy
  _atom_site_fract_x
  _atom_site_fract_y
  _atom_site_fract_z
  _atom_site_thermal_displace_type
  _atom_site_B_iso_or_equiv
  _atom_site_type_symbol
  Cu1      1.0000 0.62326  0.36022  0.87599  Biso   1.000  Cu
  Cu2      1.0000 0.37674  0.86022  0.12401  Biso   1.000  Cu
  O1       1.0000 0.52120  0.55450  0.77780  Biso   1.000  O
  O2       1.0000 0.47880  0.05450  0.22220  Biso   1.000  O
  H1       1.0000 0.49600  0.61100  0.81100  Biso   1.000  H
  H2       1.0000 0.50400  0.11100  0.18900  Biso   1.000  H
  C1       1.0000 0.39560  0.53240  0.67840  Biso   1.000  C
  C2       1.0000 0.60440  0.03240  0.32160  Biso   1.000  C
  C3       1.0000 0.20200  0.60560  0.64680  Biso   1.000  C
  C4       1.0000 0.79800  0.10560  0.35320  Biso   1.000  C
  H3       1.0000 0.15270  0.67220  0.69400  Biso   1.000  H
  H4       1.0000 0.84730  0.17220  0.30600  Biso   1.000  H
  C5       1.0000 0.08260  0.57840  0.54420  Biso   1.000  C
  C6       1.0000 0.91740  0.07840  0.45580  Biso   1.000  C
  H5       1.0000 0.95600  0.62990  0.52050  Biso   1.000  H
  H6       1.0000 0.04400  0.12990  0.47950  Biso   1.000  H
  C7       1.0000 0.14840  0.47760  0.47770  Biso   1.000  C
  C8       1.0000 0.85160  0.97760  0.52230  Biso   1.000  C
  H7       1.0000 0.06300  0.45750  0.41040  Biso   1.000  H
  H8       1.0000 0.93700  0.95750  0.58960  Biso   1.000  H
  C9       1.0000 0.34010  0.40530  0.50950  Biso   1.000  C
  C10      1.0000 0.65990  0.90530  0.49050  Biso   1.000  C
  H9       1.0000 0.38410  0.33670  0.46280  Biso   1.000  H
  H10      1.0000 0.61590  0.83670  0.53720  Biso   1.000  H
  C11      1.0000 0.46980  0.43190  0.60940  Biso   1.000  C
  C12      1.0000 0.53020  0.93190  0.39060  Biso   1.000  C
  C13      1.0000 0.68800  0.36040  0.63804  Biso   1.000  C
  C14      1.0000 0.31200  0.86040  0.36196  Biso   1.000  C
  H11      1.0000 0.72550  0.30950  0.57220  Biso   1.000  H
  H12      1.0000 0.27450  0.80950  0.42780  Biso   1.000  H
  H13      1.0000 0.80760  0.42610  0.65320  Biso   1.000  H
  H14      1.0000 0.19240  0.92610  0.34680  Biso   1.000  H
  N1       1.0000 0.68960  0.26930  0.73566  Biso   1.000  N
  N2       1.0000 0.31040  0.76930  0.26434  Biso   1.000  N
  H15      1.0000 0.82000  0.24900  0.74000  Biso   1.000  H
  H16      1.0000 0.18000  0.74900  0.26000  Biso   1.000  H
  C15      1.0000 0.52780  0.15850  0.72200  Biso   1.000  C
  C16      1.0000 0.47220  0.65850  0.27800  Biso   1.000  C
  H17      1.0000 0.50790  0.13150  0.64210  Biso   1.000  H
  H18      1.0000 0.49210  0.63150  0.35790  Biso   1.000  H
  C17      1.0000 0.30360  0.20280  0.76250  Biso   1.000  C
  C18      1.0000 0.69640  0.70280  0.23750  Biso   1.000  C
  O3       1.0000 0.31730  0.28810  0.84301  Biso   1.000  O
  O4       1.0000 0.68270  0.78810  0.15699  Biso   1.000  O
  O5       1.0000 0.12680  0.15410  0.72160  Biso   1.000  O
  O6       1.0000 0.87320  0.65410  0.27840  Biso   1.000  O
  C19      1.0000 0.62370  0.04380  0.79420  Biso   1.000  C
  C20      1.0000 0.37630  0.54380  0.20580  Biso   1.000  C
  H19      1.0000 0.77460  0.02280  0.77140  Biso   1.000  H
  H20      1.0000 0.22540  0.52280  0.22860  Biso   1.000  H
  H21      1.0000 0.64100  0.07320  0.87260  Biso   1.000  H
  H22      1.0000 0.35900  0.57320  0.12740  Biso   1.000  H
  C21      1.0000 0.48220  0.91780  0.78810  Biso   1.000  C
  C22      1.0000 0.51780  0.41780  0.21190  Biso   1.000  C
  H23      1.0000 0.33880  0.93630  0.74480  Biso   1.000  H
  H24      1.0000 0.66120  0.43630  0.25520  Biso   1.000  H
  H25      1.0000 0.56200  0.85070  0.74710  Biso   1.000  H
  H26      1.0000 0.43800  0.35070  0.25290  Biso   1.000  H
  C23      1.0000 0.43170  0.86130  0.90039  Biso   1.000  C
  C24      1.0000 0.56830  0.36130  0.09961  Biso   1.000  C
  O7       1.0000 0.45340  0.93672  0.98467  Biso   1.000  O
  O8       1.0000 0.54660  0.43672  0.01533  Biso   1.000  O
  O9       1.0000 0.36500  0.74320  0.90452  Biso   1.000  O
  O10      1.0000 0.63500  0.24320  0.09548  Biso   1.000  O
  O11      1.0000 0.93920  0.41200  0.91260  Biso   1.000  O
  O12      1.0000 0.06080  0.91200  0.08740  Biso   1.000  O
  H27      1.0000 0.05100  0.39500  0.88100  Biso   1.000  H
  H28      1.0000 0.94900  0.89500  0.11900  Biso   1.000  H
  H29      1.0000 0.95300  0.48800  0.92200  Biso   1.000  H
  H30      1.0000 0.04700  0.98800  0.07800  Biso   1.000  H
  O13      1.0000 0.92670  0.66600  0.95230  Biso   1.000  O
  O14      1.0000 0.07330  0.16600  0.04770  Biso   1.000  O
  H31      1.0000 0.00800  0.63100  0.00600  Biso   1.000  H
  H32      1.0000 0.99200  0.13100  0.99400  Biso   1.000  H
  H33      1.0000 0.02900  0.71800  0.94000  Biso   1.000  H
  H34      1.0000 0.97100  0.21800  0.06000  Biso   1.000  H
