data_image0
_cell_length_a       5.8602
_cell_length_b       11.1388
_cell_length_c       12.2634
_cell_angle_alpha    77.982
_cell_angle_beta     77.019
_cell_angle_gamma    80.274

_symmetry_space_group_name_H-M    "P 1"
_symmetry_int_tables_number       1

loop_
  _symmetry_equiv_pos_as_xyz
  'x, y, z'

loop_
  _atom_site_label
  _atom_site_occupancy
  _atom_site_fract_x
  _atom_site_fract_y
  _atom_site_fract_z
  _atom_site_thermal_displace_type
  _atom_site_B_iso_or_equiv
  _atom_site_type_symbol
  Cu1      1.0000 0.50000  0.50000  0.50000  Biso   1.000  Cu
  O1       1.0000 0.41050  0.56044  0.35253  Biso   1.000  O
  O2       1.0000 0.58950  0.43956  0.64747  Biso   1.000  O
  O3       1.0000 0.75250  0.44951  0.30372  Biso   1.000  O
  O4       1.0000 0.24750  0.55049  0.69628  Biso   1.000  O
  O5       1.0000 0.82360  0.12512  0.12218  Biso   1.000  O
  O6       1.0000 0.17640  0.87488  0.87782  Biso   1.000  O
  H1       1.0000 0.85900  0.18700  0.14000  Biso   1.000  H
  H2       1.0000 0.14100  0.81300  0.86000  Biso   1.000  H
  O7       1.0000 0.46100  0.19407  0.20085  Biso   1.000  O
  O8       1.0000 0.53900  0.80593  0.79915  Biso   1.000  O
  C1       1.0000 0.56880  0.51289  0.27892  Biso   1.000  C
  C2       1.0000 0.43120  0.48711  0.72108  Biso   1.000  C
  C3       1.0000 0.52160  0.53080  0.15980  Biso   1.000  C
  C4       1.0000 0.47840  0.46920  0.84020  Biso   1.000  C
  H3       1.0000 0.46800  0.45500  0.15600  Biso   1.000  H
  H4       1.0000 0.53200  0.54500  0.84400  Biso   1.000  H
  H5       1.0000 0.67000  0.53400  0.10900  Biso   1.000  H
  H6       1.0000 0.33000  0.46600  0.89100  Biso   1.000  H
  C5       1.0000 0.34290  0.64220  0.12970  Biso   1.000  C
  C6       1.0000 0.65710  0.35780  0.87030  Biso   1.000  C
  H7       1.0000 0.19400  0.63100  0.17700  Biso   1.000  H
  H8       1.0000 0.80600  0.36900  0.82300  Biso   1.000  H
  H9       1.0000 0.32100  0.65000  0.05200  Biso   1.000  H
  H10      1.0000 0.67900  0.35000  0.94800  Biso   1.000  H
  C7       1.0000 0.41020  0.76460  0.13688  Biso   1.000  C
  C8       1.0000 0.58980  0.23540  0.86312  Biso   1.000  C
  C9       1.0000 0.24950  0.85110  0.19080  Biso   1.000  C
  C10      1.0000 0.75050  0.14890  0.80920  Biso   1.000  C
  H11      1.0000 0.10300  0.82900  0.22270  Biso   1.000  H
  H12      1.0000 0.89700  0.17100  0.77730  Biso   1.000  H
  C11      1.0000 0.30890  0.96390  0.19620  Biso   1.000  C
  C12      1.0000 0.69110  0.03610  0.80380  Biso   1.000  C
  H13      1.0000 0.20000  0.01900  0.23410  Biso   1.000  H
  H14      1.0000 0.80000  0.98100  0.76590  Biso   1.000  H
  C13      1.0000 0.53490  0.99419  0.14911  Biso   1.000  C
  C14      1.0000 0.46510  0.00581  0.85089  Biso   1.000  C
  C15      1.0000 0.59910  0.11370  0.16017  Biso   1.000  C
  C16      1.0000 0.40090  0.88630  0.83983  Biso   1.000  C
  C17      1.0000 0.69780  0.90860  0.09536  Biso   1.000  C
  C18      1.0000 0.30220  0.09140  0.90464  Biso   1.000  C
  H15      1.0000 0.84400  0.92900  0.06200  Biso   1.000  H
  H16      1.0000 0.15600  0.07100  0.93800  Biso   1.000  H
  C19      1.0000 0.63540  0.79620  0.08930  Biso   1.000  C
  C20      1.0000 0.36460  0.20380  0.91070  Biso   1.000  C
  H17      1.0000 0.74600  0.74300  0.05000  Biso   1.000  H
  H18      1.0000 0.25400  0.25700  0.95000  Biso   1.000  H
  C21      1.0000 0.07800  0.00903  0.52780  Biso   1.000  C
  C22      1.0000 0.92200  0.99097  0.47220  Biso   1.000  C
  H19      1.0000 0.14300  0.94200  0.57630  Biso   1.000  H
  H20      1.0000 0.85700  0.05800  0.42370  Biso   1.000  H
  C23      1.0000 0.16310  0.12656  0.52242  Biso   1.000  C
  C24      1.0000 0.83690  0.87344  0.47758  Biso   1.000  C
  C25      1.0000 0.07420  0.23955  0.46424  Biso   1.000  C
  C26      1.0000 0.92580  0.76045  0.53576  Biso   1.000  C
  H21      1.0000 0.95100  0.24700  0.42520  Biso   1.000  H
  H22      1.0000 0.04900  0.75300  0.57480  Biso   1.000  H
  C27      1.0000 0.16800  0.34552  0.46169  Biso   1.000  C
  C28      1.0000 0.83200  0.65448  0.53831  Biso   1.000  C
  H23      1.0000 0.11000  0.42100  0.42240  Biso   1.000  H
  H24      1.0000 0.89000  0.57900  0.57760  Biso   1.000  H
  C29      1.0000 0.42790  0.23842  0.57357  Biso   1.000  C
  C30      1.0000 0.57210  0.76158  0.42643  Biso   1.000  C
  H25      1.0000 0.54800  0.24180  0.61250  Biso   1.000  H
  H26      1.0000 0.45200  0.75820  0.38750  Biso   1.000  H
  C31      1.0000 0.34470  0.12863  0.57810  Biso   1.000  C
  C32      1.0000 0.65530  0.87137  0.42190  Biso   1.000  C
  H27      1.0000 0.41400  0.05400  0.61840  Biso   1.000  H
  H28      1.0000 0.58600  0.94600  0.38160  Biso   1.000  H
  N1       1.0000 0.34450  0.34674  0.51503  Biso   1.000  N
  N2       1.0000 0.65550  0.65326  0.48497  Biso   1.000  N
  O9       1.0000 0.01020  0.30490  0.15620  Biso   1.000  O
  O10      1.0000 0.98980  0.69510  0.84380  Biso   1.000  O
  H29      1.0000 0.94200  0.35100  0.20000  Biso   1.000  H
  H30      1.0000 0.05800  0.64900  0.80000  Biso   1.000  H
  H31      1.0000 0.13300  0.27800  0.17800  Biso   1.000  H
  H32      1.0000 0.86700  0.72200  0.82200  Biso   1.000  H
