data_image0
_cell_length_a       8.6613
_cell_length_b       10.5768
_cell_length_c       11.0798
_cell_angle_alpha    81.366
_cell_angle_beta     80.022
_cell_angle_gamma    69.272

_symmetry_space_group_name_H-M    "P 1"
_symmetry_int_tables_number       1

loop_
  _symmetry_equiv_pos_as_xyz
  'x, y, z'

loop_
  _atom_site_label
  _atom_site_occupancy
  _atom_site_fract_x
  _atom_site_fract_y
  _atom_site_fract_z
  _atom_site_thermal_displace_type
  _atom_site_B_iso_or_equiv
  _atom_site_type_symbol
  Cu1      1.0000 0.00969  0.04711  0.86590  Biso   1.000  Cu
  Cu2      1.0000 0.99031  0.95289  0.13410  Biso   1.000  Cu
  N1       1.0000 0.85240  0.16900  0.75370  Biso   1.000  N
  N2       1.0000 0.14760  0.83100  0.24630  Biso   1.000  N
  N3       1.0000 0.22580  0.01980  0.75460  Biso   1.000  N
  N4       1.0000 0.77420  0.98020  0.24540  Biso   1.000  N
  H1       1.0000 0.22600  0.09800  0.71600  Biso   1.000  H
  H2       1.0000 0.77400  0.90200  0.28400  Biso   1.000  H
  N5       1.0000 0.12190  0.33930  0.86520  Biso   1.000  N
  N6       1.0000 0.87810  0.66070  0.13480  Biso   1.000  N
  O1       1.0000 0.03430  0.84670  0.76680  Biso   1.000  O
  O2       1.0000 0.96570  0.15330  0.23320  Biso   1.000  O
  O3       1.0000 0.14950  0.96740  0.99320  Biso   1.000  O
  O4       1.0000 0.85050  0.03260  0.00680  Biso   1.000  O
  C1       1.0000 0.73260  0.13430  0.72120  Biso   1.000  C
  C2       1.0000 0.26740  0.86570  0.27880  Biso   1.000  C
  H3       1.0000 0.72440  0.04790  0.75260  Biso   1.000  H
  H4       1.0000 0.27560  0.95210  0.24740  Biso   1.000  H
  C3       1.0000 0.62010  0.21750  0.64440  Biso   1.000  C
  C4       1.0000 0.37990  0.78250  0.35560  Biso   1.000  C
  H5       1.0000 0.53750  0.18810  0.62310  Biso   1.000  H
  H6       1.0000 0.46250  0.81190  0.37690  Biso   1.000  H
  C5       1.0000 0.62920  0.34500  0.59860  Biso   1.000  C
  C6       1.0000 0.37080  0.65500  0.40140  Biso   1.000  C
  C7       1.0000 0.75530  0.37990  0.63150  Biso   1.000  C
  C8       1.0000 0.24470  0.62010  0.36850  Biso   1.000  C
  H7       1.0000 0.76720  0.46530  0.60090  Biso   1.000  H
  H8       1.0000 0.23280  0.53470  0.39910  Biso   1.000  H
  C9       1.0000 0.86240  0.29180  0.70790  Biso   1.000  C
  C10      1.0000 0.13760  0.70820  0.29210  Biso   1.000  C
  H9       1.0000 0.94740  0.31810  0.72960  Biso   1.000  H
  H10      1.0000 0.05260  0.68190  0.27040  Biso   1.000  H
  C11      1.0000 0.50760  0.43560  0.51940  Biso   1.000  C
  C12      1.0000 0.49240  0.56440  0.48060  Biso   1.000  C
  H11      1.0000 0.43360  0.39970  0.49390  Biso   1.000  H
  H12      1.0000 0.56640  0.60030  0.50610  Biso   1.000  H
  C13      1.0000 0.31930  0.91180  0.95320  Biso   1.000  C
  C14      1.0000 0.68070  0.08820  0.04680  Biso   1.000  C
  H13      1.0000 0.38510  0.91640  0.01610  Biso   1.000  H
  H14      1.0000 0.61490  0.08360  0.98390  Biso   1.000  H
  H15      1.0000 0.34820  0.81550  0.93900  Biso   1.000  H
  H16      1.0000 0.65180  0.18450  0.06100  Biso   1.000  H
  C15      1.0000 0.35750  0.99310  0.83470  Biso   1.000  C
  C16      1.0000 0.64250  0.00690  0.16530  Biso   1.000  C
  H17      1.0000 0.46720  0.94210  0.79150  Biso   1.000  H
  H18      1.0000 0.53280  0.05790  0.20850  Biso   1.000  H
  H19      1.0000 0.36240  0.08030  0.85320  Biso   1.000  H
  H20      1.0000 0.63760  0.91970  0.14680  Biso   1.000  H
  C17      1.0000 0.27410  0.87890  0.69860  Biso   1.000  C
  C18      1.0000 0.72590  0.12110  0.30140  Biso   1.000  C
  C19      1.0000 0.12930  0.86160  0.66130  Biso   1.000  C
  C20      1.0000 0.87070  0.13840  0.33870  Biso   1.000  C
  C21      1.0000 0.74780  0.05740  0.35180  Biso   1.000  C
  C22      1.0000 0.25220  0.94260  0.64820  Biso   1.000  C
  C23      1.0000 0.77810  0.19010  0.29780  Biso   1.000  C
  C24      1.0000 0.22190  0.80990  0.70220  Biso   1.000  C
  C25      1.0000 0.13250  0.31910  0.98560  Biso   1.000  C
  C26      1.0000 0.86750  0.68090  0.01440  Biso   1.000  C
  H21      1.0000 0.06820  0.27010  0.03620  Biso   1.000  H
  H22      1.0000 0.93180  0.72990  0.96380  Biso   1.000  H
  C27      1.0000 0.23140  0.36490  0.04180  Biso   1.000  C
  C28      1.0000 0.76860  0.63510  0.95820  Biso   1.000  C
  H23      1.0000 0.23180  0.34860  0.12840  Biso   1.000  H
  H24      1.0000 0.76820  0.65140  0.87160  Biso   1.000  H
  C29      1.0000 0.32950  0.43460  0.97100  Biso   1.000  C
  C30      1.0000 0.67050  0.56540  0.02900  Biso   1.000  C
  C31      1.0000 0.31640  0.45850  0.84470  Biso   1.000  C
  C32      1.0000 0.68360  0.54150  0.15530  Biso   1.000  C
  H25      1.0000 0.37940  0.50700  0.79150  Biso   1.000  H
  H26      1.0000 0.62060  0.49300  0.20850  Biso   1.000  H
  C33      1.0000 0.21180  0.41130  0.79820  Biso   1.000  C
  C34      1.0000 0.78820  0.58870  0.20180  Biso   1.000  C
  H27      1.0000 0.20290  0.43120  0.71260  Biso   1.000  H
  H28      1.0000 0.79710  0.56880  0.28740  Biso   1.000  H
  C35      1.0000 0.44040  0.47700  0.02850  Biso   1.000  C
  C36      1.0000 0.55960  0.52300  0.97150  Biso   1.000  C
  H29      1.0000 0.42500  0.47090  0.11590  Biso   1.000  H
  H30      1.0000 0.57500  0.52910  0.88410  Biso   1.000  H
  Cl1      1.0000 0.80130  0.77960  0.55840  Biso   1.000  Cl
  Cl2      1.0000 0.19870  0.22040  0.44160  Biso   1.000  Cl
  O5       1.0000 0.69500  0.75700  0.65720  Biso   1.000  O
  O6       1.0000 0.30500  0.24300  0.34280  Biso   1.000  O
  O7       1.0000 0.91000  0.85110  0.55020  Biso   1.000  O
  O8       1.0000 0.09000  0.14890  0.44980  Biso   1.000  O
  Cl3      1.0000 0.76040  0.73780  0.59650  Biso   1.000  Cl
  Cl4      1.0000 0.23960  0.26220  0.40350  Biso   1.000  Cl
  O9       1.0000 0.63190  0.69520  0.67080  Biso   1.000  O
  O10      1.0000 0.36810  0.30480  0.32920  Biso   1.000  O
  O11      1.0000 0.74540  0.86930  0.62850  Biso   1.000  O
  O12      1.0000 0.25460  0.13070  0.37150  Biso   1.000  O
  O13      1.0000 0.75690  0.75280  0.45980  Biso   1.000  O
  O14      1.0000 0.24310  0.24720  0.54020  Biso   1.000  O
  O15      1.0000 0.92300  0.63990  0.60650  Biso   1.000  O
  O16      1.0000 0.07700  0.36010  0.39350  Biso   1.000  O
