data_image0
_cell_length_a       10.238
_cell_length_b       11.749
_cell_length_c       14.548
_cell_angle_alpha    90
_cell_angle_beta     95.35
_cell_angle_gamma    90

_symmetry_space_group_name_H-M    "P 1"
_symmetry_int_tables_number       1

loop_
  _symmetry_equiv_pos_as_xyz
  'x, y, z'

loop_
  _atom_site_label
  _atom_site_occupancy
  _atom_site_fract_x
  _atom_site_fract_y
  _atom_site_fract_z
  _atom_site_thermal_displace_type
  _atom_site_B_iso_or_equiv
  _atom_site_type_symbol
  Cu1      1.0000 0.13836  0.03070  0.03663  Biso   1.000  Cu
  Cu2      1.0000 0.86164  0.53070  0.46337  Biso   1.000  Cu
  Cu3      1.0000 0.86164  0.96930  0.96337  Biso   1.000  Cu
  Cu4      1.0000 0.13836  0.46930  0.53663  Biso   1.000  Cu
  O1       1.0000 0.02721  0.90118  0.00853  Biso   1.000  O
  O2       1.0000 0.97279  0.40118  0.49147  Biso   1.000  O
  O3       1.0000 0.97279  0.09882  0.99147  Biso   1.000  O
  O4       1.0000 0.02721  0.59882  0.50853  Biso   1.000  O
  N1       1.0000 0.28260  0.91330  0.04370  Biso   1.000  N
  N2       1.0000 0.71740  0.41330  0.45630  Biso   1.000  N
  N3       1.0000 0.71740  0.08670  0.95630  Biso   1.000  N
  N4       1.0000 0.28260  0.58670  0.54370  Biso   1.000  N
  H1       1.0000 0.31300  0.91100  0.99700  Biso   1.000  H
  H2       1.0000 0.68700  0.41100  0.50300  Biso   1.000  H
  H3       1.0000 0.68700  0.08900  0.00300  Biso   1.000  H
  H4       1.0000 0.31300  0.58900  0.49700  Biso   1.000  H
  H5       1.0000 0.34200  0.92800  0.09200  Biso   1.000  H
  H6       1.0000 0.65800  0.42800  0.40800  Biso   1.000  H
  H7       1.0000 0.65800  0.07200  0.90800  Biso   1.000  H
  H8       1.0000 0.34200  0.57200  0.59200  Biso   1.000  H
  C1       1.0000 0.22160  0.80290  0.05730  Biso   1.000  C
  C2       1.0000 0.77840  0.30290  0.44270  Biso   1.000  C
  C3       1.0000 0.77840  0.19710  0.94270  Biso   1.000  C
  C4       1.0000 0.22160  0.69710  0.55730  Biso   1.000  C
  H9       1.0000 0.21450  0.79100  0.12260  Biso   1.000  H
  H10      1.0000 0.78550  0.29100  0.37740  Biso   1.000  H
  H11      1.0000 0.78550  0.20900  0.87740  Biso   1.000  H
  H12      1.0000 0.21450  0.70900  0.62260  Biso   1.000  H
  H13      1.0000 0.27650  0.74300  0.03580  Biso   1.000  H
  H14      1.0000 0.72350  0.24300  0.46420  Biso   1.000  H
  H15      1.0000 0.72350  0.25700  0.96420  Biso   1.000  H
  H16      1.0000 0.27650  0.75700  0.53580  Biso   1.000  H
  C5       1.0000 0.09030  0.79650  0.00690  Biso   1.000  C
  C6       1.0000 0.90970  0.29650  0.49310  Biso   1.000  C
  C7       1.0000 0.90970  0.20350  0.99310  Biso   1.000  C
  C8       1.0000 0.09030  0.70350  0.50690  Biso   1.000  C
  H17      1.0000 0.09810  0.77420  0.94350  Biso   1.000  H
  H18      1.0000 0.90190  0.27420  0.55650  Biso   1.000  H
  H19      1.0000 0.90190  0.22580  0.05650  Biso   1.000  H
  H20      1.0000 0.09810  0.72580  0.44350  Biso   1.000  H
  H21      1.0000 0.03860  0.73920  0.03500  Biso   1.000  H
  H22      1.0000 0.96140  0.23920  0.46500  Biso   1.000  H
  H23      1.0000 0.96140  0.26080  0.96500  Biso   1.000  H
  H24      1.0000 0.03860  0.76080  0.53500  Biso   1.000  H
  N5       1.0000 0.24610  0.17100  0.03032  Biso   1.000  N
  N6       1.0000 0.75390  0.67100  0.46968  Biso   1.000  N
  N7       1.0000 0.75390  0.82900  0.96968  Biso   1.000  N
  N8       1.0000 0.24610  0.32900  0.53032  Biso   1.000  N
  C9       1.0000 0.30920  0.19160  0.95640  Biso   1.000  C
  C10      1.0000 0.69080  0.69160  0.54360  Biso   1.000  C
  C11      1.0000 0.69080  0.80840  0.04360  Biso   1.000  C
  C12      1.0000 0.30920  0.30840  0.45640  Biso   1.000  C
  H25      1.0000 0.30220  0.13930  0.90830  Biso   1.000  H
  H26      1.0000 0.69780  0.63930  0.59170  Biso   1.000  H
  H27      1.0000 0.69780  0.86070  0.09170  Biso   1.000  H
  H28      1.0000 0.30220  0.36070  0.40830  Biso   1.000  H
  C13      1.0000 0.38490  0.28790  0.94830  Biso   1.000  C
  C14      1.0000 0.61510  0.78790  0.55170  Biso   1.000  C
  C15      1.0000 0.61510  0.71210  0.05170  Biso   1.000  C
  C16      1.0000 0.38490  0.21210  0.44830  Biso   1.000  C
  H29      1.0000 0.42730  0.29890  0.89520  Biso   1.000  H
  H30      1.0000 0.57270  0.79890  0.60480  Biso   1.000  H
  H31      1.0000 0.57270  0.70110  0.10480  Biso   1.000  H
  H32      1.0000 0.42730  0.20110  0.39520  Biso   1.000  H
  C17      1.0000 0.39810  0.36710  0.01730  Biso   1.000  C
  C18      1.0000 0.60190  0.86710  0.48270  Biso   1.000  C
  C19      1.0000 0.60190  0.63290  0.98270  Biso   1.000  C
  C20      1.0000 0.39810  0.13290  0.51730  Biso   1.000  C
  C21      1.0000 0.33260  0.34560  0.09290  Biso   1.000  C
  C22      1.0000 0.66740  0.84560  0.40710  Biso   1.000  C
  C23      1.0000 0.66740  0.65440  0.90710  Biso   1.000  C
  C24      1.0000 0.33260  0.15440  0.59290  Biso   1.000  C
  H33      1.0000 0.33790  0.39700  0.14170  Biso   1.000  H
  H34      1.0000 0.66210  0.89700  0.35830  Biso   1.000  H
  H35      1.0000 0.66210  0.60300  0.85830  Biso   1.000  H
  H36      1.0000 0.33790  0.10300  0.64170  Biso   1.000  H
  C25      1.0000 0.25880  0.24820  0.09700  Biso   1.000  C
  C26      1.0000 0.74120  0.74820  0.40300  Biso   1.000  C
  C27      1.0000 0.74120  0.75180  0.90300  Biso   1.000  C
  C28      1.0000 0.25880  0.25180  0.59700  Biso   1.000  C
  H37      1.0000 0.21540  0.23580  0.14950  Biso   1.000  H
  H38      1.0000 0.78460  0.73580  0.35050  Biso   1.000  H
  H39      1.0000 0.78460  0.76420  0.85050  Biso   1.000  H
  H40      1.0000 0.21540  0.26420  0.64950  Biso   1.000  H
  C29      1.0000 0.48780  0.45960  0.97540  Biso   1.000  C
  C30      1.0000 0.51220  0.95960  0.52460  Biso   1.000  C
  C31      1.0000 0.51220  0.54040  0.02460  Biso   1.000  C
  C32      1.0000 0.48780  0.04040  0.47540  Biso   1.000  C
  H41      1.0000 0.51890  0.45220  0.91760  Biso   1.000  H
  H42      1.0000 0.48110  0.95220  0.58240  Biso   1.000  H
  H43      1.0000 0.48110  0.54780  0.08240  Biso   1.000  H
  H44      1.0000 0.51890  0.04780  0.41760  Biso   1.000  H
  C33      1.0000 0.46820  0.47850  0.03540  Biso   1.000  C
  C34      1.0000 0.53180  0.97850  0.46460  Biso   1.000  C
  C35      1.0000 0.53180  0.52150  0.96460  Biso   1.000  C
  C36      1.0000 0.46820  0.02150  0.53540  Biso   1.000  C
  H45      1.0000 0.46830  0.51600  0.09170  Biso   1.000  H
  H46      1.0000 0.53170  0.01600  0.40830  Biso   1.000  H
  H47      1.0000 0.53170  0.48400  0.90830  Biso   1.000  H
  H48      1.0000 0.46830  0.98400  0.59170  Biso   1.000  H
  N9       1.0000 0.11970  0.02960  0.19583  Biso   1.000  N
  N10      1.0000 0.88030  0.52960  0.30417  Biso   1.000  N
  N11      1.0000 0.88030  0.97040  0.80417  Biso   1.000  N
  N12      1.0000 0.11970  0.47040  0.69583  Biso   1.000  N
  C37      1.0000 0.21040  0.99060  0.25980  Biso   1.000  C
  C38      1.0000 0.78960  0.49060  0.24020  Biso   1.000  C
  C39      1.0000 0.78960  0.00940  0.74020  Biso   1.000  C
  C40      1.0000 0.21040  0.50940  0.75980  Biso   1.000  C
  H49      1.0000 0.29250  0.97240  0.24140  Biso   1.000  H
  H50      1.0000 0.70750  0.47240  0.25860  Biso   1.000  H
  H51      1.0000 0.70750  0.02760  0.75860  Biso   1.000  H
  H52      1.0000 0.29250  0.52760  0.74140  Biso   1.000  H
  C41      1.0000 0.19070  0.97570  0.35080  Biso   1.000  C
  C42      1.0000 0.80930  0.47570  0.14920  Biso   1.000  C
  C43      1.0000 0.80930  0.02430  0.64920  Biso   1.000  C
  C44      1.0000 0.19070  0.52430  0.85080  Biso   1.000  C
  H53      1.0000 0.25780  0.94680  0.39170  Biso   1.000  H
  H54      1.0000 0.74220  0.44680  0.10830  Biso   1.000  H
  H55      1.0000 0.74220  0.05320  0.60830  Biso   1.000  H
  H56      1.0000 0.25780  0.55320  0.89170  Biso   1.000  H
  C45      1.0000 0.07240  0.00320  0.38170  Biso   1.000  C
  C46      1.0000 0.92760  0.50320  0.11830  Biso   1.000  C
  C47      1.0000 0.92760  0.99680  0.61830  Biso   1.000  C
  C48      1.0000 0.07240  0.49680  0.88170  Biso   1.000  C
  C49      1.0000 0.97800  0.04150  0.31670  Biso   1.000  C
  C50      1.0000 0.02200  0.54150  0.18330  Biso   1.000  C
  C51      1.0000 0.02200  0.95850  0.68330  Biso   1.000  C
  C52      1.0000 0.97800  0.45850  0.81670  Biso   1.000  C
  H57      1.0000 0.89550  0.06060  0.33370  Biso   1.000  H
  H58      1.0000 0.10450  0.56060  0.16630  Biso   1.000  H
  H59      1.0000 0.10450  0.93940  0.66630  Biso   1.000  H
  H60      1.0000 0.89550  0.43940  0.83370  Biso   1.000  H
  C53      1.0000 0.00500  0.05220  0.22520  Biso   1.000  C
  C54      1.0000 0.99500  0.55220  0.27480  Biso   1.000  C
  C55      1.0000 0.99500  0.94780  0.77480  Biso   1.000  C
  C56      1.0000 0.00500  0.44780  0.72520  Biso   1.000  C
  H61      1.0000 0.93790  0.07670  0.18230  Biso   1.000  H
  H62      1.0000 0.06210  0.57670  0.31770  Biso   1.000  H
  H63      1.0000 0.06210  0.92330  0.81770  Biso   1.000  H
  H64      1.0000 0.93790  0.42330  0.68230  Biso   1.000  H
  C57      1.0000 0.05440  0.99110  0.48100  Biso   1.000  C
  C58      1.0000 0.94560  0.49110  0.01900  Biso   1.000  C
  C59      1.0000 0.94560  0.00890  0.51900  Biso   1.000  C
  C60      1.0000 0.05440  0.50890  0.98100  Biso   1.000  C
  H65      1.0000 0.12720  0.96870  0.51980  Biso   1.000  H
  H66      1.0000 0.87280  0.46870  0.98020  Biso   1.000  H
  H67      1.0000 0.87280  0.03130  0.48020  Biso   1.000  H
  H68      1.0000 0.12720  0.53130  0.01980  Biso   1.000  H
  Cl1      1.0000 0.40830  0.88450  0.80260  Biso   1.000  Cl
  Cl2      1.0000 0.59170  0.38450  0.69740  Biso   1.000  Cl
  Cl3      1.0000 0.59170  0.11550  0.19740  Biso   1.000  Cl
  Cl4      1.0000 0.40830  0.61550  0.30260  Biso   1.000  Cl
  O5       1.0000 0.49530  0.83640  0.75050  Biso   1.000  O
  O6       1.0000 0.50470  0.33640  0.74950  Biso   1.000  O
  O7       1.0000 0.50470  0.16360  0.24950  Biso   1.000  O
  O8       1.0000 0.49530  0.66360  0.25050  Biso   1.000  O
  O9       1.0000 0.32240  0.94670  0.75390  Biso   1.000  O
  O10      1.0000 0.67760  0.44670  0.74610  Biso   1.000  O
  O11      1.0000 0.67760  0.05330  0.24610  Biso   1.000  O
  O12      1.0000 0.32240  0.55330  0.25390  Biso   1.000  O
  O13      1.0000 0.47700  0.93470  0.87580  Biso   1.000  O
  O14      1.0000 0.52300  0.43470  0.62420  Biso   1.000  O
  O15      1.0000 0.52300  0.06530  0.12420  Biso   1.000  O
  O16      1.0000 0.47700  0.56530  0.37580  Biso   1.000  O
  O17      1.0000 0.33740  0.80270  0.84580  Biso   1.000  O
  O18      1.0000 0.66260  0.30270  0.65420  Biso   1.000  O
  O19      1.0000 0.66260  0.19730  0.15420  Biso   1.000  O
  O20      1.0000 0.33740  0.69730  0.34580  Biso   1.000  O
  Cl5      1.0000 0.39870  0.89700  0.79260  Biso   1.000  Cl
  Cl6      1.0000 0.60130  0.39700  0.70740  Biso   1.000  Cl
  Cl7      1.0000 0.60130  0.10300  0.20740  Biso   1.000  Cl
  Cl8      1.0000 0.39870  0.60300  0.29260  Biso   1.000  Cl
  O21      1.0000 0.36600  0.86740  0.71080  Biso   1.000  O
  O22      1.0000 0.63400  0.36740  0.78920  Biso   1.000  O
  O23      1.0000 0.63400  0.13260  0.28920  Biso   1.000  O
  O24      1.0000 0.36600  0.63260  0.21080  Biso   1.000  O
  O25      1.0000 0.30780  0.96180  0.82020  Biso   1.000  O
  O26      1.0000 0.69220  0.46180  0.67980  Biso   1.000  O
  O27      1.0000 0.69220  0.03820  0.17980  Biso   1.000  O
  O28      1.0000 0.30780  0.53820  0.32020  Biso   1.000  O
  O29      1.0000 0.50760  0.95600  0.79570  Biso   1.000  O
  O30      1.0000 0.49240  0.45600  0.70430  Biso   1.000  O
  O31      1.0000 0.49240  0.04400  0.20430  Biso   1.000  O
  O32      1.0000 0.50760  0.54400  0.29570  Biso   1.000  O
  O33      1.0000 0.41520  0.81470  0.84920  Biso   1.000  O
  O34      1.0000 0.58480  0.31470  0.65080  Biso   1.000  O
  O35      1.0000 0.58480  0.18530  0.15080  Biso   1.000  O
  O36      1.0000 0.41520  0.68530  0.34920  Biso   1.000  O
