data_image0
_cell_length_a       8.911
_cell_length_b       10.004
_cell_length_c       19.252
_cell_angle_alpha    90
_cell_angle_beta     101.2
_cell_angle_gamma    90

_symmetry_space_group_name_H-M    "P 1"
_symmetry_int_tables_number       1

loop_
  _symmetry_equiv_pos_as_xyz
  'x, y, z'

loop_
  _atom_site_label
  _atom_site_occupancy
  _atom_site_fract_x
  _atom_site_fract_y
  _atom_site_fract_z
  _atom_site_thermal_displace_type
  _atom_site_B_iso_or_equiv
  _atom_site_type_symbol
  Cu1      1.0000 0.50000  0.00000  0.50000  Biso   1.000  Cu
  Cu2      1.0000 0.00000  0.50000  0.00000  Biso   1.000  Cu
  N1       1.0000 0.42010  0.95780  0.58895  Biso   1.000  N
  N2       1.0000 0.07990  0.45780  0.91105  Biso   1.000  N
  N3       1.0000 0.57990  0.04220  0.41105  Biso   1.000  N
  N4       1.0000 0.92010  0.54220  0.08895  Biso   1.000  N
  N5       1.0000 0.30580  0.87300  0.58155  Biso   1.000  N
  N6       1.0000 0.19420  0.37300  0.91845  Biso   1.000  N
  N7       1.0000 0.69420  0.12700  0.41845  Biso   1.000  N
  N8       1.0000 0.80580  0.62700  0.08155  Biso   1.000  N
  N9       1.0000 0.27170  0.86000  0.64435  Biso   1.000  N
  N10      1.0000 0.22830  0.36000  0.85565  Biso   1.000  N
  N11      1.0000 0.72830  0.14000  0.35565  Biso   1.000  N
  N12      1.0000 0.77170  0.64000  0.14435  Biso   1.000  N
  C1       1.0000 0.45770  0.99840  0.65790  Biso   1.000  C
  C2       1.0000 0.04230  0.49840  0.84210  Biso   1.000  C
  C3       1.0000 0.54230  0.00160  0.34210  Biso   1.000  C
  C4       1.0000 0.95770  0.50160  0.15790  Biso   1.000  C
  C5       1.0000 0.36170  0.93590  0.69230  Biso   1.000  C
  C6       1.0000 0.13830  0.43590  0.80770  Biso   1.000  C
  C7       1.0000 0.63830  0.06410  0.30770  Biso   1.000  C
  C8       1.0000 0.86170  0.56410  0.19230  Biso   1.000  C
  H1       1.0000 0.35820  0.94360  0.74070  Biso   1.000  H
  H2       1.0000 0.14180  0.44360  0.75930  Biso   1.000  H
  H3       1.0000 0.64180  0.05640  0.25930  Biso   1.000  H
  H4       1.0000 0.85820  0.55640  0.24070  Biso   1.000  H
  C9       1.0000 0.14340  0.77500  0.65240  Biso   1.000  C
  C10      1.0000 0.35660  0.27500  0.84760  Biso   1.000  C
  C11      1.0000 0.85660  0.22500  0.34760  Biso   1.000  C
  C12      1.0000 0.64340  0.72500  0.15240  Biso   1.000  C
  H5       1.0000 0.14410  0.76200  0.70290  Biso   1.000  H
  H6       1.0000 0.35590  0.26200  0.79710  Biso   1.000  H
  H7       1.0000 0.85590  0.23800  0.29710  Biso   1.000  H
  H8       1.0000 0.64410  0.73800  0.20290  Biso   1.000  H
  H9       1.0000 0.15550  0.68720  0.63150  Biso   1.000  H
  H10      1.0000 0.34450  0.18720  0.86850  Biso   1.000  H
  H11      1.0000 0.84450  0.31280  0.36850  Biso   1.000  H
  H12      1.0000 0.65550  0.81280  0.13150  Biso   1.000  H
  C13      1.0000 0.72640  0.80430  0.57320  Biso   1.000  C
  C14      1.0000 0.77360  0.30430  0.92680  Biso   1.000  C
  C15      1.0000 0.27360  0.19570  0.42680  Biso   1.000  C
  C16      1.0000 0.22640  0.69570  0.07320  Biso   1.000  C
  H13      1.0000 0.63990  0.74860  0.56680  Biso   1.000  H
  H14      1.0000 0.86010  0.24860  0.93320  Biso   1.000  H
  H15      1.0000 0.36010  0.25140  0.43320  Biso   1.000  H
  H16      1.0000 0.13990  0.75140  0.06680  Biso   1.000  H
  C17      1.0000 0.86590  0.75230  0.60530  Biso   1.000  C
  C18      1.0000 0.63410  0.25230  0.89470  Biso   1.000  C
  C19      1.0000 0.13410  0.24770  0.39470  Biso   1.000  C
  C20      1.0000 0.36590  0.74770  0.10530  Biso   1.000  C
  H17      1.0000 0.87500  0.66200  0.61880  Biso   1.000  H
  H18      1.0000 0.62500  0.16200  0.88120  Biso   1.000  H
  H19      1.0000 0.12500  0.33800  0.38120  Biso   1.000  H
  H20      1.0000 0.37500  0.83800  0.11880  Biso   1.000  H
  C21      1.0000 0.99100  0.83460  0.61700  Biso   1.000  C
  C22      1.0000 0.50900  0.33460  0.88300  Biso   1.000  C
  C23      1.0000 0.00900  0.16540  0.38300  Biso   1.000  C
  C24      1.0000 0.49100  0.66540  0.11700  Biso   1.000  C
  C25      1.0000 0.97230  0.96630  0.59610  Biso   1.000  C
  C26      1.0000 0.52770  0.46630  0.90390  Biso   1.000  C
  C27      1.0000 0.02770  0.03370  0.40390  Biso   1.000  C
  C28      1.0000 0.47230  0.53370  0.09610  Biso   1.000  C
  H21      1.0000 0.05640  0.02490  0.60480  Biso   1.000  H
  H22      1.0000 0.44360  0.52490  0.89520  Biso   1.000  H
  H23      1.0000 0.94360  0.97510  0.39520  Biso   1.000  H
  H24      1.0000 0.55640  0.47510  0.10480  Biso   1.000  H
  C29      1.0000 0.83330  0.01190  0.56290  Biso   1.000  C
  C30      1.0000 0.66670  0.51190  0.93710  Biso   1.000  C
  C31      1.0000 0.16670  0.98810  0.43710  Biso   1.000  C
  C32      1.0000 0.33330  0.48810  0.06290  Biso   1.000  C
  H25      1.0000 0.82340  0.10150  0.54800  Biso   1.000  H
  H26      1.0000 0.67660  0.60150  0.95200  Biso   1.000  H
  H27      1.0000 0.17660  0.89850  0.45200  Biso   1.000  H
  H28      1.0000 0.32340  0.39850  0.04800  Biso   1.000  H
  C33      1.0000 0.58710  0.09150  0.68630  Biso   1.000  C
  C34      1.0000 0.91290  0.59150  0.81370  Biso   1.000  C
  C35      1.0000 0.41290  0.90850  0.31370  Biso   1.000  C
  C36      1.0000 0.08710  0.40850  0.18630  Biso   1.000  C
  H29      1.0000 0.54820  0.16420  0.71200  Biso   1.000  H
  H30      1.0000 0.95180  0.66420  0.78800  Biso   1.000  H
  H31      1.0000 0.45180  0.83580  0.28800  Biso   1.000  H
  H32      1.0000 0.04820  0.33580  0.21200  Biso   1.000  H
  H33      1.0000 0.62500  0.13110  0.64650  Biso   1.000  H
  H34      1.0000 0.87500  0.63110  0.85350  Biso   1.000  H
  H35      1.0000 0.37500  0.86890  0.35350  Biso   1.000  H
  H36      1.0000 0.12500  0.36890  0.14650  Biso   1.000  H
  C37      1.0000 0.71890  0.02500  0.73520  Biso   1.000  C
  C38      1.0000 0.78110  0.52500  0.76480  Biso   1.000  C
  C39      1.0000 0.28110  0.97500  0.26480  Biso   1.000  C
  C40      1.0000 0.21890  0.47500  0.23520  Biso   1.000  C
  H37      1.0000 0.68280  0.98890  0.77630  Biso   1.000  H
  H38      1.0000 0.81720  0.48890  0.72370  Biso   1.000  H
  H39      1.0000 0.31720  0.01110  0.22370  Biso   1.000  H
  H40      1.0000 0.18280  0.51110  0.27630  Biso   1.000  H
  H41      1.0000 0.75580  0.95000  0.71040  Biso   1.000  H
  H42      1.0000 0.74420  0.45000  0.78960  Biso   1.000  H
  H43      1.0000 0.24420  0.05000  0.28960  Biso   1.000  H
  H44      1.0000 0.25580  0.55000  0.21040  Biso   1.000  H
  C41      1.0000 0.84960  0.11990  0.76030  Biso   1.000  C
  C42      1.0000 0.65040  0.61990  0.73970  Biso   1.000  C
  C43      1.0000 0.15040  0.88010  0.23970  Biso   1.000  C
  C44      1.0000 0.34960  0.38010  0.26030  Biso   1.000  C
  H45      1.0000 0.88750  0.15490  0.71940  Biso   1.000  H
  H46      1.0000 0.61250  0.65490  0.78060  Biso   1.000  H
  H47      1.0000 0.11250  0.84510  0.28060  Biso   1.000  H
  H48      1.0000 0.38750  0.34510  0.21940  Biso   1.000  H
  H49      1.0000 0.81310  0.19550  0.78480  Biso   1.000  H
  H50      1.0000 0.68690  0.69550  0.71520  Biso   1.000  H
  H51      1.0000 0.18690  0.80450  0.21520  Biso   1.000  H
  H52      1.0000 0.31310  0.30450  0.28480  Biso   1.000  H
  C45      1.0000 0.97780  0.05070  0.80960  Biso   1.000  C
  C46      1.0000 0.52220  0.55070  0.69040  Biso   1.000  C
  C47      1.0000 0.02220  0.94930  0.19040  Biso   1.000  C
  C48      1.0000 0.47780  0.44930  0.30960  Biso   1.000  C
  H53      1.0000 0.94120  0.01880  0.85090  Biso   1.000  H
  H54      1.0000 0.55880  0.51880  0.64910  Biso   1.000  H
  H55      1.0000 0.05880  0.98120  0.14910  Biso   1.000  H
  H56      1.0000 0.44120  0.48120  0.35090  Biso   1.000  H
  H57      1.0000 0.06130  0.11310  0.82430  Biso   1.000  H
  H58      1.0000 0.43870  0.61310  0.67570  Biso   1.000  H
  H59      1.0000 0.93870  0.88690  0.17570  Biso   1.000  H
  H60      1.0000 0.56130  0.38690  0.32430  Biso   1.000  H
  H61      1.0000 0.01370  0.97560  0.78540  Biso   1.000  H
  H62      1.0000 0.48630  0.47560  0.71460  Biso   1.000  H
  H63      1.0000 0.98630  0.02440  0.21460  Biso   1.000  H
  H64      1.0000 0.51370  0.52440  0.28540  Biso   1.000  H
  N13      1.0000 0.70900  0.93180  0.55063  Biso   1.000  N
  N14      1.0000 0.79100  0.43180  0.94937  Biso   1.000  N
  N15      1.0000 0.29100  0.06820  0.44937  Biso   1.000  N
  N16      1.0000 0.20900  0.56820  0.05063  Biso   1.000  N
  O1       1.0000 0.55050  0.23640  0.53870  Biso   1.000  O
  O2       1.0000 0.94950  0.73640  0.96130  Biso   1.000  O
  O3       1.0000 0.44950  0.76360  0.46130  Biso   1.000  O
  O4       1.0000 0.05050  0.26360  0.03870  Biso   1.000  O
  H65      1.0000 0.47800  0.27400  0.55600  Biso   1.000  H
  H66      1.0000 0.02200  0.77400  0.94400  Biso   1.000  H
  H67      1.0000 0.52200  0.72600  0.44400  Biso   1.000  H
  H68      1.0000 0.97800  0.22600  0.05600  Biso   1.000  H
  H69      1.0000 0.61300  0.30500  0.53600  Biso   1.000  H
  H70      1.0000 0.88700  0.80500  0.96400  Biso   1.000  H
  H71      1.0000 0.38700  0.69500  0.46400  Biso   1.000  H
  H72      1.0000 0.11300  0.19500  0.03600  Biso   1.000  H
  Cl1      1.0000 0.33678  0.83496  0.89138  Biso   1.000  Cl
  Cl2      1.0000 0.16322  0.33496  0.60862  Biso   1.000  Cl
  Cl3      1.0000 0.66322  0.16504  0.10862  Biso   1.000  Cl
  Cl4      1.0000 0.83678  0.66504  0.39138  Biso   1.000  Cl
  O5       1.0000 0.39500  0.95310  0.86690  Biso   1.000  O
  O6       1.0000 0.10500  0.45310  0.63310  Biso   1.000  O
  O7       1.0000 0.60500  0.04690  0.13310  Biso   1.000  O
  O8       1.0000 0.89500  0.54690  0.36690  Biso   1.000  O
  O9       1.0000 0.45190  0.77150  0.94170  Biso   1.000  O
  O10      1.0000 0.04810  0.27150  0.55830  Biso   1.000  O
  O11      1.0000 0.54810  0.22850  0.05830  Biso   1.000  O
  O12      1.0000 0.95190  0.72850  0.44170  Biso   1.000  O
  O13      1.0000 0.21560  0.86980  0.92560  Biso   1.000  O
  O14      1.0000 0.28440  0.36980  0.57440  Biso   1.000  O
  O15      1.0000 0.78440  0.13020  0.07440  Biso   1.000  O
  O16      1.0000 0.71560  0.63020  0.42560  Biso   1.000  O
  O17      1.0000 0.28450  0.74870  0.83350  Biso   1.000  O
  O18      1.0000 0.21550  0.24870  0.66650  Biso   1.000  O
  O19      1.0000 0.71550  0.25130  0.16650  Biso   1.000  O
  O20      1.0000 0.78450  0.75130  0.33350  Biso   1.000  O
  O21      1.0000 0.76040  0.43150  0.53530  Biso   1.000  O
  O22      1.0000 0.73960  0.93150  0.96470  Biso   1.000  O
  O23      1.0000 0.23960  0.56850  0.46470  Biso   1.000  O
  O24      1.0000 0.26040  0.06850  0.03530  Biso   1.000  O
  H73      1.0000 0.77600  0.49300  0.50400  Biso   1.000  H
  H74      1.0000 0.72400  0.99300  0.99600  Biso   1.000  H
  H75      1.0000 0.22400  0.50700  0.49600  Biso   1.000  H
  H76      1.0000 0.27600  0.00700  0.00400  Biso   1.000  H
  H77      1.0000 0.84300  0.38200  0.54100  Biso   1.000  H
  H78      1.0000 0.65700  0.88200  0.95900  Biso   1.000  H
  H79      1.0000 0.15700  0.61800  0.45900  Biso   1.000  H
  H80      1.0000 0.34300  0.11800  0.04100  Biso   1.000  H
