data_image0
_cell_length_a       8.571
_cell_length_b       16.022
_cell_length_c       27.569
_cell_angle_alpha    90
_cell_angle_beta     90
_cell_angle_gamma    90

_symmetry_space_group_name_H-M    "P 1"
_symmetry_int_tables_number       1

loop_
  _symmetry_equiv_pos_as_xyz
  'x, y, z'

loop_
  _atom_site_label
  _atom_site_occupancy
  _atom_site_fract_x
  _atom_site_fract_y
  _atom_site_fract_z
  _atom_site_thermal_displace_type
  _atom_site_B_iso_or_equiv
  _atom_site_type_symbol
  O1       1.0000 0.07190  0.66600  0.12019  Biso   1.000  O
  O2       1.0000 0.42810  0.33400  0.62019  Biso   1.000  O
  O3       1.0000 0.57190  0.83400  0.87981  Biso   1.000  O
  O4       1.0000 0.92810  0.16600  0.37981  Biso   1.000  O
  O5       1.0000 0.53630  0.28727  0.12363  Biso   1.000  O
  O6       1.0000 0.96370  0.71273  0.62363  Biso   1.000  O
  O7       1.0000 0.03630  0.21273  0.87637  Biso   1.000  O
  O8       1.0000 0.46370  0.78727  0.37637  Biso   1.000  O
  C1       1.0000 0.53670  0.69530  0.16662  Biso   1.000  C
  C2       1.0000 0.96330  0.30470  0.66662  Biso   1.000  C
  C3       1.0000 0.03670  0.80470  0.83338  Biso   1.000  C
  C4       1.0000 0.46330  0.19530  0.33338  Biso   1.000  C
  C5       1.0000 0.62380  0.69410  0.11925  Biso   1.000  C
  C6       1.0000 0.87620  0.30590  0.61925  Biso   1.000  C
  C7       1.0000 0.12380  0.80590  0.88075  Biso   1.000  C
  C8       1.0000 0.37620  0.19410  0.38075  Biso   1.000  C
  H1       1.0000 0.67890  0.64000  0.11680  Biso   1.000  H
  H2       1.0000 0.82110  0.36000  0.61680  Biso   1.000  H
  H3       1.0000 0.17890  0.86000  0.88320  Biso   1.000  H
  H4       1.0000 0.32110  0.14000  0.38320  Biso   1.000  H
  H5       1.0000 0.70440  0.73830  0.12050  Biso   1.000  H
  H6       1.0000 0.79560  0.26170  0.62050  Biso   1.000  H
  H7       1.0000 0.20440  0.76170  0.87950  Biso   1.000  H
  H8       1.0000 0.29560  0.23830  0.37950  Biso   1.000  H
  C9       1.0000 0.53080  0.70610  0.07344  Biso   1.000  C
  C10      1.0000 0.96920  0.29390  0.57344  Biso   1.000  C
  C11      1.0000 0.03080  0.79390  0.92656  Biso   1.000  C
  C12      1.0000 0.46920  0.20610  0.42656  Biso   1.000  C
  C13      1.0000 0.26090  0.43680  0.05820  Biso   1.000  C
  C14      1.0000 0.23910  0.56320  0.55820  Biso   1.000  C
  C15      1.0000 0.76090  0.06320  0.94180  Biso   1.000  C
  C16      1.0000 0.73910  0.93680  0.44180  Biso   1.000  C
  H9       1.0000 0.30680  0.40000  0.08120  Biso   1.000  H
  H10      1.0000 0.19320  0.60000  0.58120  Biso   1.000  H
  H11      1.0000 0.80680  0.10000  0.91880  Biso   1.000  H
  H12      1.0000 0.69320  0.90000  0.41880  Biso   1.000  H
  C17      1.0000 0.19790  0.41380  0.01473  Biso   1.000  C
  C18      1.0000 0.30210  0.58620  0.51473  Biso   1.000  C
  C19      1.0000 0.69790  0.08620  0.98527  Biso   1.000  C
  C20      1.0000 0.80210  0.91380  0.48527  Biso   1.000  C
  H13      1.0000 0.19140  0.35880  0.00190  Biso   1.000  H
  H14      1.0000 0.30860  0.64120  0.50190  Biso   1.000  H
  H15      1.0000 0.69140  0.14120  0.99810  Biso   1.000  H
  H16      1.0000 0.80860  0.85880  0.49810  Biso   1.000  H
  C21      1.0000 0.17810  0.54890  0.02290  Biso   1.000  C
  C22      1.0000 0.32190  0.45110  0.52290  Biso   1.000  C
  C23      1.0000 0.67810  0.95110  0.97710  Biso   1.000  C
  C24      1.0000 0.82190  0.04890  0.47710  Biso   1.000  C
  H17      1.0000 0.15460  0.60550  0.01590  Biso   1.000  H
  H18      1.0000 0.34540  0.39450  0.51590  Biso   1.000  H
  H19      1.0000 0.65460  0.89450  0.98410  Biso   1.000  H
  H20      1.0000 0.84540  0.10550  0.48410  Biso   1.000  H
  C25      1.0000 0.06570  0.48910  0.94662  Biso   1.000  C
  C26      1.0000 0.43430  0.51090  0.44662  Biso   1.000  C
  C27      1.0000 0.56570  0.01090  0.05338  Biso   1.000  C
  C28      1.0000 0.93430  0.98910  0.55338  Biso   1.000  C
  H21      1.0000 0.99190  0.53660  0.94690  Biso   1.000  H
  H22      1.0000 0.50810  0.46340  0.44690  Biso   1.000  H
  H23      1.0000 0.49190  0.96340  0.05310  Biso   1.000  H
  H24      1.0000 0.00810  0.03660  0.55310  Biso   1.000  H
  H25      1.0000 0.00440  0.43740  0.94200  Biso   1.000  H
  H26      1.0000 0.49560  0.56260  0.44200  Biso   1.000  H
  H27      1.0000 0.50440  0.06260  0.05800  Biso   1.000  H
  H28      1.0000 0.99560  0.93740  0.55800  Biso   1.000  H
  C29      1.0000 0.17760  0.49930  0.90413  Biso   1.000  C
  C30      1.0000 0.32240  0.50070  0.40413  Biso   1.000  C
  C31      1.0000 0.67760  0.00070  0.09587  Biso   1.000  C
  C32      1.0000 0.82240  0.99930  0.59587  Biso   1.000  C
  C33      1.0000 0.20450  0.43330  0.87267  Biso   1.000  C
  C34      1.0000 0.29550  0.56670  0.37267  Biso   1.000  C
  C35      1.0000 0.70450  0.06670  0.12733  Biso   1.000  C
  C36      1.0000 0.79550  0.93330  0.62733  Biso   1.000  C
  H29      1.0000 0.15790  0.38050  0.87890  Biso   1.000  H
  H30      1.0000 0.34210  0.61950  0.37890  Biso   1.000  H
  H31      1.0000 0.65790  0.11950  0.12110  Biso   1.000  H
  H32      1.0000 0.84210  0.88050  0.62110  Biso   1.000  H
  C37      1.0000 0.29860  0.44370  0.83236  Biso   1.000  C
  C38      1.0000 0.20140  0.55630  0.33236  Biso   1.000  C
  C39      1.0000 0.79860  0.05630  0.16764  Biso   1.000  C
  C40      1.0000 0.70140  0.94370  0.66764  Biso   1.000  C
  H33      1.0000 0.31440  0.39840  0.81060  Biso   1.000  H
  H34      1.0000 0.18560  0.60160  0.31060  Biso   1.000  H
  H35      1.0000 0.81440  0.10160  0.18940  Biso   1.000  H
  H36      1.0000 0.68560  0.89840  0.68940  Biso   1.000  H
  C41      1.0000 0.37040  0.52010  0.82354  Biso   1.000  C
  C42      1.0000 0.12960  0.47990  0.32354  Biso   1.000  C
  C43      1.0000 0.87040  0.97990  0.17646  Biso   1.000  C
  C44      1.0000 0.62960  0.02010  0.67646  Biso   1.000  C
  C45      1.0000 0.34540  0.58530  0.85551  Biso   1.000  C
  C46      1.0000 0.15460  0.41470  0.35551  Biso   1.000  C
  C47      1.0000 0.84540  0.91470  0.14449  Biso   1.000  C
  C48      1.0000 0.65460  0.08530  0.64449  Biso   1.000  C
  H37      1.0000 0.39460  0.63760  0.85010  Biso   1.000  H
  H38      1.0000 0.10540  0.36240  0.35010  Biso   1.000  H
  H39      1.0000 0.89460  0.86240  0.14990  Biso   1.000  H
  H40      1.0000 0.60540  0.13760  0.64990  Biso   1.000  H
  C49      1.0000 0.24890  0.57460  0.89546  Biso   1.000  C
  C50      1.0000 0.25110  0.42540  0.39546  Biso   1.000  C
  C51      1.0000 0.74890  0.92540  0.10454  Biso   1.000  C
  C52      1.0000 0.75110  0.07460  0.60454  Biso   1.000  C
  H41      1.0000 0.23190  0.61990  0.91710  Biso   1.000  H
  H42      1.0000 0.26810  0.38010  0.41710  Biso   1.000  H
  H43      1.0000 0.73190  0.88010  0.08290  Biso   1.000  H
  H44      1.0000 0.76810  0.11990  0.58290  Biso   1.000  H
  C53      1.0000 0.47130  0.53300  0.77916  Biso   1.000  C
  C54      1.0000 0.02870  0.46700  0.27916  Biso   1.000  C
  C55      1.0000 0.97130  0.96700  0.22084  Biso   1.000  C
  C56      1.0000 0.52870  0.03300  0.72084  Biso   1.000  C
  H45      1.0000 0.52520  0.58750  0.78150  Biso   1.000  H
  H46      1.0000 0.97480  0.41250  0.28150  Biso   1.000  H
  H47      1.0000 0.02520  0.91250  0.21850  Biso   1.000  H
  H48      1.0000 0.47480  0.08750  0.71850  Biso   1.000  H
  H49      1.0000 0.55160  0.48870  0.77760  Biso   1.000  H
  H50      1.0000 0.94840  0.51130  0.27760  Biso   1.000  H
  H51      1.0000 0.05160  0.01130  0.22240  Biso   1.000  H
  H52      1.0000 0.44840  0.98870  0.72240  Biso   1.000  H
  C57      1.0000 0.26680  0.59060  0.72129  Biso   1.000  C
  C58      1.0000 0.23320  0.40940  0.22129  Biso   1.000  C
  C59      1.0000 0.76680  0.90940  0.27871  Biso   1.000  C
  C60      1.0000 0.73320  0.09060  0.77871  Biso   1.000  C
  H53      1.0000 0.24660  0.64190  0.73730  Biso   1.000  H
  H54      1.0000 0.25340  0.35810  0.23730  Biso   1.000  H
  H55      1.0000 0.74660  0.85810  0.26270  Biso   1.000  H
  H56      1.0000 0.75340  0.14190  0.76270  Biso   1.000  H
  C61      1.0000 0.19520  0.56160  0.68058  Biso   1.000  C
  C62      1.0000 0.30480  0.43840  0.18058  Biso   1.000  C
  C63      1.0000 0.69520  0.93840  0.31942  Biso   1.000  C
  C64      1.0000 0.80480  0.06160  0.81942  Biso   1.000  C
  H57      1.0000 0.11470  0.58940  0.66320  Biso   1.000  H
  H58      1.0000 0.38530  0.41060  0.16320  Biso   1.000  H
  H59      1.0000 0.61470  0.91060  0.33680  Biso   1.000  H
  H60      1.0000 0.88530  0.08940  0.83680  Biso   1.000  H
  C65      1.0000 0.36660  0.46910  0.70206  Biso   1.000  C
  C66      1.0000 0.13340  0.53090  0.20206  Biso   1.000  C
  C67      1.0000 0.86660  0.03090  0.29794  Biso   1.000  C
  C68      1.0000 0.63340  0.96910  0.79794  Biso   1.000  C
  H61      1.0000 0.42970  0.42040  0.70270  Biso   1.000  H
  H62      1.0000 0.07030  0.57960  0.20270  Biso   1.000  H
  H63      1.0000 0.92970  0.07960  0.29730  Biso   1.000  H
  H64      1.0000 0.57030  0.92040  0.79730  Biso   1.000  H
  C69      1.0000 0.01440  0.23320  0.16833  Biso   1.000  C
  C70      1.0000 0.48560  0.76680  0.66833  Biso   1.000  C
  C71      1.0000 0.51440  0.26680  0.83167  Biso   1.000  C
  C72      1.0000 0.98560  0.73320  0.33167  Biso   1.000  C
  C73      1.0000 0.09710  0.25690  0.12170  Biso   1.000  C
  C74      1.0000 0.40290  0.74310  0.62170  Biso   1.000  C
  C75      1.0000 0.59710  0.24310  0.87830  Biso   1.000  C
  C76      1.0000 0.90290  0.75690  0.37830  Biso   1.000  C
  H65      1.0000 0.19400  0.22350  0.11910  Biso   1.000  H
  H66      1.0000 0.30600  0.77650  0.61910  Biso   1.000  H
  H67      1.0000 0.69400  0.27650  0.88090  Biso   1.000  H
  H68      1.0000 0.80600  0.72350  0.38090  Biso   1.000  H
  H69      1.0000 0.12780  0.31630  0.12370  Biso   1.000  H
  H70      1.0000 0.37220  0.68370  0.62370  Biso   1.000  H
  H71      1.0000 0.62780  0.18370  0.87630  Biso   1.000  H
  H72      1.0000 0.87220  0.81630  0.37630  Biso   1.000  H
  C77      1.0000 0.00220  0.24430  0.07562  Biso   1.000  C
  C78      1.0000 0.49780  0.75570  0.57562  Biso   1.000  C
  C79      1.0000 0.50220  0.25570  0.92438  Biso   1.000  C
  C80      1.0000 0.99780  0.74430  0.42438  Biso   1.000  C
  C81      1.0000 0.83410  0.50150  0.07496  Biso   1.000  C
  C82      1.0000 0.66590  0.49850  0.57496  Biso   1.000  C
  C83      1.0000 0.33410  0.99850  0.92504  Biso   1.000  C
  C84      1.0000 0.16590  0.00150  0.42504  Biso   1.000  C
  H73      1.0000 0.91720  0.51900  0.09530  Biso   1.000  H
  H74      1.0000 0.58280  0.48100  0.59530  Biso   1.000  H
  H75      1.0000 0.41720  0.98100  0.90470  Biso   1.000  H
  H76      1.0000 0.08280  0.01900  0.40470  Biso   1.000  H
  C85      1.0000 0.77950  0.54410  0.03654  Biso   1.000  C
  C86      1.0000 0.72050  0.45590  0.53654  Biso   1.000  C
  C87      1.0000 0.27950  0.95590  0.96346  Biso   1.000  C
  C88      1.0000 0.22050  0.04410  0.46346  Biso   1.000  C
  H77      1.0000 0.81610  0.59640  0.02500  Biso   1.000  H
  H78      1.0000 0.68390  0.40360  0.52500  Biso   1.000  H
  H79      1.0000 0.31610  0.90360  0.97500  Biso   1.000  H
  H80      1.0000 0.18390  0.09640  0.47500  Biso   1.000  H
  C89      1.0000 0.64820  0.42790  0.04437  Biso   1.000  C
  C90      1.0000 0.85180  0.57210  0.54437  Biso   1.000  C
  C91      1.0000 0.14820  0.07210  0.95563  Biso   1.000  C
  C92      1.0000 0.35180  0.92790  0.45563  Biso   1.000  C
  H81      1.0000 0.57540  0.38430  0.03850  Biso   1.000  H
  H82      1.0000 0.92460  0.61570  0.53850  Biso   1.000  H
  H83      1.0000 0.07540  0.11570  0.96150  Biso   1.000  H
  H84      1.0000 0.42460  0.88430  0.46150  Biso   1.000  H
  C93      1.0000 0.55950  0.52190  0.97630  Biso   1.000  C
  C94      1.0000 0.94050  0.47810  0.47630  Biso   1.000  C
  C95      1.0000 0.05950  0.97810  0.02370  Biso   1.000  C
  C96      1.0000 0.44050  0.02190  0.52370  Biso   1.000  C
  H85      1.0000 0.50140  0.57320  0.98500  Biso   1.000  H
  H86      1.0000 0.99860  0.42680  0.48500  Biso   1.000  H
  H87      1.0000 0.00140  0.92680  0.01500  Biso   1.000  H
  H88      1.0000 0.49860  0.07320  0.51500  Biso   1.000  H
  H89      1.0000 0.48250  0.47700  0.97020  Biso   1.000  H
  H90      1.0000 0.01750  0.52300  0.47020  Biso   1.000  H
  H91      1.0000 0.98250  0.02300  0.02980  Biso   1.000  H
  H92      1.0000 0.51750  0.97700  0.52980  Biso   1.000  H
  C97      1.0000 0.65200  0.53740  0.93087  Biso   1.000  C
  C98      1.0000 0.84800  0.46260  0.43087  Biso   1.000  C
  C99      1.0000 0.15200  0.96260  0.06913  Biso   1.000  C
  C100     1.0000 0.34800  0.03740  0.56913  Biso   1.000  C
  C101     1.0000 0.69550  0.61710  0.91763  Biso   1.000  C
  C102     1.0000 0.80450  0.38290  0.41763  Biso   1.000  C
  C103     1.0000 0.19550  0.88290  0.08237  Biso   1.000  C
  C104     1.0000 0.30450  0.11710  0.58237  Biso   1.000  C
  H93      1.0000 0.66430  0.66330  0.93690  Biso   1.000  H
  H94      1.0000 0.83570  0.33670  0.43690  Biso   1.000  H
  H95      1.0000 0.16430  0.83670  0.06310  Biso   1.000  H
  H96      1.0000 0.33570  0.16330  0.56310  Biso   1.000  H
  C105     1.0000 0.78550  0.63000  0.87592  Biso   1.000  C
  C106     1.0000 0.71450  0.37000  0.37592  Biso   1.000  C
  C107     1.0000 0.28550  0.87000  0.12408  Biso   1.000  C
  C108     1.0000 0.21450  0.13000  0.62408  Biso   1.000  C
  H97      1.0000 0.81330  0.68530  0.86700  Biso   1.000  H
  H98      1.0000 0.68670  0.31470  0.36700  Biso   1.000  H
  H99      1.0000 0.31330  0.81470  0.13300  Biso   1.000  H
  H100     1.0000 0.18670  0.18530  0.63300  Biso   1.000  H
  C109     1.0000 0.83440  0.56450  0.84768  Biso   1.000  C
  C110     1.0000 0.66560  0.43550  0.34768  Biso   1.000  C
  C111     1.0000 0.33440  0.93550  0.15232  Biso   1.000  C
  C112     1.0000 0.16560  0.06450  0.65232  Biso   1.000  C
  C113     1.0000 0.78720  0.48360  0.86056  Biso   1.000  C
  C114     1.0000 0.71280  0.51640  0.36056  Biso   1.000  C
  C115     1.0000 0.28720  0.01640  0.13944  Biso   1.000  C
  C116     1.0000 0.21280  0.98360  0.63944  Biso   1.000  C
  H101     1.0000 0.81750  0.43750  0.84110  Biso   1.000  H
  H102     1.0000 0.68250  0.56250  0.34110  Biso   1.000  H
  H103     1.0000 0.31750  0.06250  0.15890  Biso   1.000  H
  H104     1.0000 0.18250  0.93750  0.65890  Biso   1.000  H
  C117     1.0000 0.69630  0.47040  0.90171  Biso   1.000  C
  C118     1.0000 0.80370  0.52960  0.40171  Biso   1.000  C
  C119     1.0000 0.19630  0.02960  0.09829  Biso   1.000  C
  C120     1.0000 0.30370  0.97040  0.59829  Biso   1.000  C
  H105     1.0000 0.66420  0.41550  0.90990  Biso   1.000  H
  H106     1.0000 0.83580  0.58450  0.40990  Biso   1.000  H
  H107     1.0000 0.16420  0.08450  0.09010  Biso   1.000  H
  H108     1.0000 0.33580  0.91550  0.59010  Biso   1.000  H
  C121     1.0000 0.94420  0.57850  0.80562  Biso   1.000  C
  C122     1.0000 0.55580  0.42150  0.30562  Biso   1.000  C
  C123     1.0000 0.44420  0.92150  0.19438  Biso   1.000  C
  C124     1.0000 0.05580  0.07850  0.69438  Biso   1.000  C
  H109     1.0000 0.98330  0.63660  0.80700  Biso   1.000  H
  H110     1.0000 0.51670  0.36340  0.30700  Biso   1.000  H
  H111     1.0000 0.48330  0.86340  0.19300  Biso   1.000  H
  H112     1.0000 0.01670  0.13660  0.69300  Biso   1.000  H
  H113     1.0000 0.03510  0.54090  0.80940  Biso   1.000  H
  H114     1.0000 0.46490  0.45910  0.30940  Biso   1.000  H
  H115     1.0000 0.53510  0.95910  0.19060  Biso   1.000  H
  H116     1.0000 0.96490  0.04090  0.69060  Biso   1.000  H
  C125     1.0000 0.86030  0.48960  0.73453  Biso   1.000  C
  C126     1.0000 0.63970  0.51040  0.23453  Biso   1.000  C
  C127     1.0000 0.36030  0.01040  0.26547  Biso   1.000  C
  C128     1.0000 0.13970  0.98960  0.76547  Biso   1.000  C
  H117     1.0000 0.89000  0.43630  0.74650  Biso   1.000  H
  H118     1.0000 0.61000  0.56370  0.24650  Biso   1.000  H
  H119     1.0000 0.39000  0.06370  0.25350  Biso   1.000  H
  H120     1.0000 0.11000  0.93630  0.75350  Biso   1.000  H
  C129     1.0000 0.79450  0.50730  0.69029  Biso   1.000  C
  C130     1.0000 0.70550  0.49270  0.19029  Biso   1.000  C
  C131     1.0000 0.29450  0.99270  0.30971  Biso   1.000  C
  C132     1.0000 0.20550  0.00730  0.80971  Biso   1.000  C
  H121     1.0000 0.76760  0.46720  0.66630  Biso   1.000  H
  H122     1.0000 0.73240  0.53280  0.16630  Biso   1.000  H
  H123     1.0000 0.26760  0.03280  0.33370  Biso   1.000  H
  H124     1.0000 0.23240  0.96720  0.83370  Biso   1.000  H
  C133     1.0000 0.82210  0.62400  0.72771  Biso   1.000  C
  C134     1.0000 0.67790  0.37600  0.22771  Biso   1.000  C
  C135     1.0000 0.32210  0.87600  0.27229  Biso   1.000  C
  C136     1.0000 0.17790  0.12400  0.77229  Biso   1.000  C
  H125     1.0000 0.82020  0.68180  0.73530  Biso   1.000  H
  H126     1.0000 0.67980  0.31820  0.23530  Biso   1.000  H
  H127     1.0000 0.32020  0.81820  0.26470  Biso   1.000  H
  H128     1.0000 0.17980  0.18180  0.76470  Biso   1.000  H
  N1       1.0000 0.24700  0.52280  0.06342  Biso   1.000  N
  N2       1.0000 0.25300  0.47720  0.56342  Biso   1.000  N
  N3       1.0000 0.74700  0.97720  0.93658  Biso   1.000  N
  N4       1.0000 0.75300  0.02280  0.43658  Biso   1.000  N
  N5       1.0000 0.14620  0.48510  0.99350  Biso   1.000  N
  N6       1.0000 0.35380  0.51490  0.49350  Biso   1.000  N
  N7       1.0000 0.64620  0.01490  0.00650  Biso   1.000  N
  N8       1.0000 0.85380  0.98510  0.50650  Biso   1.000  N
  N9       1.0000 0.37470  0.53080  0.73483  Biso   1.000  N
  N10      1.0000 0.12530  0.46920  0.23483  Biso   1.000  N
  N11      1.0000 0.87470  0.96920  0.26517  Biso   1.000  N
  N12      1.0000 0.62530  0.03080  0.76517  Biso   1.000  N
  N13      1.0000 0.25970  0.48460  0.66867  Biso   1.000  N
  N14      1.0000 0.24030  0.51540  0.16867  Biso   1.000  N
  N15      1.0000 0.75970  0.01540  0.33133  Biso   1.000  N
  N16      1.0000 0.74030  0.98460  0.83133  Biso   1.000  N
  N17      1.0000 0.75100  0.42840  0.08026  Biso   1.000  N
  N18      1.0000 0.74900  0.57160  0.58026  Biso   1.000  N
  N19      1.0000 0.25100  0.07160  0.91974  Biso   1.000  N
  N20      1.0000 0.24900  0.92840  0.41974  Biso   1.000  N
  N21      1.0000 0.66120  0.49750  0.01739  Biso   1.000  N
  N22      1.0000 0.83880  0.50250  0.51739  Biso   1.000  N
  N23      1.0000 0.16120  0.00250  0.98261  Biso   1.000  N
  N24      1.0000 0.33880  0.99750  0.48261  Biso   1.000  N
  N25      1.0000 0.87410  0.56420  0.75777  Biso   1.000  N
  N26      1.0000 0.62590  0.43580  0.25777  Biso   1.000  N
  N27      1.0000 0.37410  0.93580  0.24223  Biso   1.000  N
  N28      1.0000 0.12590  0.06420  0.74223  Biso   1.000  N
  N29      1.0000 0.77360  0.59190  0.68603  Biso   1.000  N
  N30      1.0000 0.72640  0.40810  0.18603  Biso   1.000  N
  N31      1.0000 0.27360  0.90810  0.31397  Biso   1.000  N
  N32      1.0000 0.22640  0.09190  0.81397  Biso   1.000  N
  O9       1.0000 0.40340  0.66330  0.17006  Biso   1.000  O
  O10      1.0000 0.09660  0.33670  0.67006  Biso   1.000  O
  O11      1.0000 0.90340  0.83670  0.82994  Biso   1.000  O
  O12      1.0000 0.59660  0.16330  0.32994  Biso   1.000  O
  O13      1.0000 0.60500  0.72810  0.20193  Biso   1.000  O
  O14      1.0000 0.89500  0.27190  0.70193  Biso   1.000  O
  O15      1.0000 0.10500  0.77190  0.79807  Biso   1.000  O
  O16      1.0000 0.39500  0.22810  0.29807  Biso   1.000  O
  O17      1.0000 0.59190  0.74900  0.04036  Biso   1.000  O
  O18      1.0000 0.90810  0.25100  0.54036  Biso   1.000  O
  O19      1.0000 0.09190  0.75100  0.95964  Biso   1.000  O
  O20      1.0000 0.40810  0.24900  0.45964  Biso   1.000  O
  O21      1.0000 0.39700  0.67270  0.06955  Biso   1.000  O
  O22      1.0000 0.10300  0.32730  0.56955  Biso   1.000  O
  O23      1.0000 0.89700  0.82730  0.93045  Biso   1.000  O
  O24      1.0000 0.60300  0.17270  0.43045  Biso   1.000  O
  O25      1.0000 0.87580  0.25942  0.17469  Biso   1.000  O
  O26      1.0000 0.62420  0.74058  0.67469  Biso   1.000  O
  O27      1.0000 0.37580  0.24058  0.82531  Biso   1.000  O
  O28      1.0000 0.12420  0.75942  0.32531  Biso   1.000  O
  O29      1.0000 0.08780  0.19140  0.19906  Biso   1.000  O
  O30      1.0000 0.41220  0.80860  0.69906  Biso   1.000  O
  O31      1.0000 0.58780  0.30860  0.80094  Biso   1.000  O
  O32      1.0000 0.91220  0.69140  0.30094  Biso   1.000  O
  O33      1.0000 0.06860  0.21260  0.03952  Biso   1.000  O
  O34      1.0000 0.43140  0.78740  0.53952  Biso   1.000  O
  O35      1.0000 0.56860  0.28740  0.96048  Biso   1.000  O
  O36      1.0000 0.93140  0.71260  0.46048  Biso   1.000  O
  O37      1.0000 0.86120  0.26850  0.07509  Biso   1.000  O
  O38      1.0000 0.63880  0.73150  0.57509  Biso   1.000  O
  O39      1.0000 0.36120  0.23150  0.92491  Biso   1.000  O
  O40      1.0000 0.13880  0.76850  0.42491  Biso   1.000  O
  Cu1      1.0000 0.30526  0.59817  0.11793  Biso   1.000  Cu
  Cu2      1.0000 0.19474  0.40183  0.61793  Biso   1.000  Cu
  Cu3      1.0000 0.80526  0.90183  0.88207  Biso   1.000  Cu
  Cu4      1.0000 0.69474  0.09817  0.38207  Biso   1.000  Cu
  Cu5      1.0000 0.78249  0.33736  0.12850  Biso   1.000  Cu
  Cu6      1.0000 0.71751  0.66264  0.62850  Biso   1.000  Cu
  Cu7      1.0000 0.28249  0.16264  0.87151  Biso   1.000  Cu
  Cu8      1.0000 0.21751  0.83736  0.37151  Biso   1.000  Cu
  O41      1.0000 0.58720  0.70100  0.30019  Biso   1.000  O
  O42      1.0000 0.91280  0.29900  0.80019  Biso   1.000  O
  O43      1.0000 0.08720  0.79900  0.69981  Biso   1.000  O
  O44      1.0000 0.41280  0.20100  0.19981  Biso   1.000  O
  H129     1.0000 0.56300  0.70600  0.27090  Biso   1.000  H
  H130     1.0000 0.93700  0.29400  0.77090  Biso   1.000  H
  H131     1.0000 0.06300  0.79400  0.72910  Biso   1.000  H
  H132     1.0000 0.43700  0.20600  0.22910  Biso   1.000  H
  H133     1.0000 0.68480  0.70200  0.30240  Biso   1.000  H
  H134     1.0000 0.81520  0.29800  0.80240  Biso   1.000  H
  H135     1.0000 0.18480  0.79800  0.69760  Biso   1.000  H
  H136     1.0000 0.31520  0.20200  0.19760  Biso   1.000  H
  O45      1.0000 0.42080  0.76190  0.95738  Biso   1.000  O
  O46      1.0000 0.07920  0.23810  0.45738  Biso   1.000  O
  O47      1.0000 0.92080  0.73810  0.04262  Biso   1.000  O
  O48      1.0000 0.57920  0.26190  0.54262  Biso   1.000  O
  H137     1.0000 0.46200  0.76100  0.98510  Biso   1.000  H
  H138     1.0000 0.03800  0.23900  0.48510  Biso   1.000  H
  H139     1.0000 0.96200  0.73900  0.01490  Biso   1.000  H
  H140     1.0000 0.53800  0.26100  0.51490  Biso   1.000  H
  H141     1.0000 0.32420  0.75500  0.96060  Biso   1.000  H
  H142     1.0000 0.17580  0.24500  0.46060  Biso   1.000  H
  H143     1.0000 0.82420  0.74500  0.03940  Biso   1.000  H
  H144     1.0000 0.67580  0.25500  0.53940  Biso   1.000  H
  O49      1.0000 0.40500  0.21950  0.04158  Biso   1.000  O
  O50      1.0000 0.09500  0.78050  0.54158  Biso   1.000  O
  O51      1.0000 0.90500  0.28050  0.95842  Biso   1.000  O
  O52      1.0000 0.59500  0.71950  0.45842  Biso   1.000  O
  H145     1.0000 0.30950  0.21700  0.03500  Biso   1.000  H
  H146     1.0000 0.19050  0.78300  0.53500  Biso   1.000  H
  H147     1.0000 0.80950  0.28300  0.96500  Biso   1.000  H
  H148     1.0000 0.69050  0.71700  0.46500  Biso   1.000  H
  H149     1.0000 0.45300  0.23500  0.01650  Biso   1.000  H
  H150     1.0000 0.04700  0.76500  0.51650  Biso   1.000  H
  H151     1.0000 0.95300  0.26500  0.98350  Biso   1.000  H
  H152     1.0000 0.54700  0.73500  0.48350  Biso   1.000  H
  O53      1.0000 0.06400  0.22640  0.29624  Biso   1.000  O
  O54      1.0000 0.43600  0.77360  0.79624  Biso   1.000  O
  O55      1.0000 0.56400  0.27360  0.70376  Biso   1.000  O
  O56      1.0000 0.93600  0.72640  0.20376  Biso   1.000  O
  H153     1.0000 0.15900  0.23900  0.29700  Biso   1.000  H
  H154     1.0000 0.34100  0.76100  0.79700  Biso   1.000  H
  H155     1.0000 0.65900  0.26100  0.70300  Biso   1.000  H
  H156     1.0000 0.84100  0.73900  0.20300  Biso   1.000  H
  H157     1.0000 0.04500  0.20400  0.26940  Biso   1.000  H
  H158     1.0000 0.45500  0.79600  0.76940  Biso   1.000  H
  H159     1.0000 0.54500  0.29600  0.73060  Biso   1.000  H
  H160     1.0000 0.95500  0.70400  0.23060  Biso   1.000  H
