data_image0
_cell_length_a       5.378
_cell_length_b       5.619
_cell_length_c       13.569
_cell_angle_alpha    93.32
_cell_angle_beta     100.25
_cell_angle_gamma    98.45

_symmetry_space_group_name_H-M    "P 1"
_symmetry_int_tables_number       1

loop_
  _symmetry_equiv_pos_as_xyz
  'x, y, z'

loop_
  _atom_site_label
  _atom_site_occupancy
  _atom_site_fract_x
  _atom_site_fract_y
  _atom_site_fract_z
  _atom_site_thermal_displace_type
  _atom_site_B_iso_or_equiv
  _atom_site_type_symbol
  Cu1      1.0000 0.81850  0.48460  0.89970  Biso   1.000  Cu
  Cu2      1.0000 0.18150  0.51540  0.10030  Biso   1.000  Cu
  Cu3      1.0000 0.00000  0.00000  0.00000  Biso   1.000  Cu
  Cr1      1.0000 0.37850  0.84830  0.84740  Biso   1.000  Cr
  Cr2      1.0000 0.62150  0.15170  0.15260  Biso   1.000  Cr
  O1       1.0000 0.10940  0.33160  0.96470  Biso   1.000  O
  O2       1.0000 0.89060  0.66840  0.03530  Biso   1.000  O
  O3       1.0000 0.09250  0.84660  0.88350  Biso   1.000  O
  O4       1.0000 0.90750  0.15340  0.11650  Biso   1.000  O
  O5       1.0000 0.48520  0.58690  0.87420  Biso   1.000  O
  O6       1.0000 0.51480  0.41310  0.12580  Biso   1.000  O
  O7       1.0000 0.58630  0.07540  0.90390  Biso   1.000  O
  O8       1.0000 0.41370  0.92460  0.09610  Biso   1.000  O
  O9       1.0000 0.33820  0.86730  0.72860  Biso   1.000  O
  O10      1.0000 0.66180  0.13270  0.27140  Biso   1.000  O
  N1       1.0000 0.82500  0.39700  0.75600  Biso   1.000  N
  N2       1.0000 0.17500  0.60300  0.24400  Biso   1.000  N
  C1       1.0000 0.85900  0.17900  0.71900  Biso   1.000  C
  C2       1.0000 0.14100  0.82100  0.28100  Biso   1.000  C
  C3       1.0000 0.85100  0.12200  0.61800  Biso   1.000  C
  C4       1.0000 0.14900  0.87800  0.38200  Biso   1.000  C
  C5       1.0000 0.80400  0.28900  0.55100  Biso   1.000  C
  C6       1.0000 0.19600  0.71100  0.44900  Biso   1.000  C
  C7       1.0000 0.76700  0.51000  0.58700  Biso   1.000  C
  C8       1.0000 0.23300  0.49000  0.41300  Biso   1.000  C
  C9       1.0000 0.78100  0.55700  0.68900  Biso   1.000  C
  C10      1.0000 0.21900  0.44300  0.31100  Biso   1.000  C
