data_image0
_cell_length_a       8.336
_cell_length_b       10.253
_cell_length_c       10.893
_cell_angle_alpha    85.136
_cell_angle_beta     89.657
_cell_angle_gamma    85.96

_symmetry_space_group_name_H-M    "P 1"
_symmetry_int_tables_number       1

loop_
  _symmetry_equiv_pos_as_xyz
  'x, y, z'

loop_
  _atom_site_label
  _atom_site_occupancy
  _atom_site_fract_x
  _atom_site_fract_y
  _atom_site_fract_z
  _atom_site_thermal_displace_type
  _atom_site_B_iso_or_equiv
  _atom_site_type_symbol
  C1       1.0000 0.89270  0.28350  0.03160  Biso   1.000  C
  C2       1.0000 0.80100  0.16180  0.00300  Biso   1.000  C
  H1       1.0000 0.80730  0.09820  0.07310  Biso   1.000  H
  H2       1.0000 0.84920  0.12350  0.93300  Biso   1.000  H
  H3       1.0000 0.69040  0.18880  0.98540  Biso   1.000  H
  C3       1.0000 0.16780  0.74410  0.95150  Biso   1.000  C
  C4       1.0000 0.25200  0.85540  0.98430  Biso   1.000  C
  H4       1.0000 0.28610  0.84100  0.06880  Biso   1.000  H
  H5       1.0000 0.18160  0.93360  0.97380  Biso   1.000  H
  H6       1.0000 0.34450  0.86500  0.93220  Biso   1.000  H
  C5       1.0000 0.35180  0.45430  0.87660  Biso   1.000  C
  H7       1.0000 0.38300  0.53660  0.89240  Biso   1.000  H
  C6       1.0000 0.35950  0.26640  0.81220  Biso   1.000  C
  H8       1.0000 0.39260  0.19140  0.77400  Biso   1.000  H
  C7       1.0000 0.22410  0.28950  0.87180  Biso   1.000  C
  H9       1.0000 0.14480  0.23040  0.88470  Biso   1.000  H
  C8       1.0000 0.59280  0.40090  0.75080  Biso   1.000  C
  H10      1.0000 0.65740  0.31850  0.75000  Biso   1.000  H
  H11      1.0000 0.65320  0.46040  0.79390  Biso   1.000  H
  C9       1.0000 0.56470  0.45840  0.61900  Biso   1.000  C
  C10      1.0000 0.55650  0.58760  0.59030  Biso   1.000  C
  H12      1.0000 0.57360  0.64300  0.65160  Biso   1.000  H
  C11      1.0000 0.52190  0.64320  0.46690  Biso   1.000  C
  H13      1.0000 0.51270  0.73370  0.44890  Biso   1.000  H
  C12      1.0000 0.50260  0.56020  0.37530  Biso   1.000  C
  C13      1.0000 0.51130  0.42120  0.40950  Biso   1.000  C
  H14      1.0000 0.49740  0.36260  0.35040  Biso   1.000  H
  C14      1.0000 0.53970  0.37670  0.52760  Biso   1.000  C
  H15      1.0000 0.54270  0.28670  0.54860  Biso   1.000  H
  C15      1.0000 0.47110  0.61040  0.24480  Biso   1.000  C
  H16      1.0000 0.41930  0.54510  0.20260  Biso   1.000  H
  H17      1.0000 0.39910  0.68920  0.24220  Biso   1.000  H
  C16      1.0000 0.71510  0.54520  0.11940  Biso   1.000  C
  H18      1.0000 0.69080  0.45990  0.10830  Biso   1.000  H
  C17      1.0000 0.84400  0.73050  0.11670  Biso   1.000  C
  H19      1.0000 0.92230  0.79040  0.10360  Biso   1.000  H
  C18      1.0000 0.70010  0.75160  0.17890  Biso   1.000  C
  H20      1.0000 0.66390  0.82870  0.21250  Biso   1.000  H
  C19      1.0000 0.64670  0.94990  0.72770  Biso   1.000  C
  C20      1.0000 0.69660  0.87150  0.84290  Biso   1.000  C
  H21      1.0000 0.67220  0.78200  0.83770  Biso   1.000  H
  H22      1.0000 0.63980  0.90630  0.91110  Biso   1.000  H
  H23      1.0000 0.81020  0.87530  0.85450  Biso   1.000  H
  C21      1.0000 0.42290  0.06700  0.27100  Biso   1.000  C
  C22      1.0000 0.36510  0.15310  0.15460  Biso   1.000  C
  H24      1.0000 0.31630  0.09980  0.09900  Biso   1.000  H
  H25      1.0000 0.45510  0.19240  0.11510  Biso   1.000  H
  H26      1.0000 0.28770  0.22060  0.17740  Biso   1.000  H
  C23      1.0000 0.84720  0.86500  0.46690  Biso   1.000  C
  H27      1.0000 0.82400  0.79980  0.52780  Biso   1.000  H
  C24      1.0000 0.98100  0.97650  0.32340  Biso   1.000  C
  H28      1.0000 0.05970  0.00210  0.26720  Biso   1.000  H
  C25      1.0000 0.83860  0.04330  0.34220  Biso   1.000  C
  H29      1.0000 0.80380  0.12440  0.30300  Biso   1.000  H
  C26      1.0000 0.13230  0.76860  0.43290  Biso   1.000  C
  H30      1.0000 0.20670  0.76990  0.36410  Biso   1.000  H
  H31      1.0000 0.18790  0.79540  0.50360  Biso   1.000  H
  C27      1.0000 0.08160  0.63080  0.46160  Biso   1.000  C
  C28      1.0000 0.04100  0.54050  0.37230  Biso   1.000  C
  H32      1.0000 0.04470  0.56450  0.28810  Biso   1.000  H
  C29      1.0000 0.99890  0.42380  0.41460  Biso   1.000  C
  H33      1.0000 0.97490  0.36650  0.35660  Biso   1.000  H
  C30      1.0000 0.98740  0.37910  0.53540  Biso   1.000  C
  C31      1.0000 0.01640  0.46180  0.61780  Biso   1.000  C
  H34      1.0000 0.00290  0.43420  0.70050  Biso   1.000  H
  C32      1.0000 0.06840  0.59400  0.58740  Biso   1.000  C
  H35      1.0000 0.09100  0.64940  0.64740  Biso   1.000  H
  C33      1.0000 0.94280  0.24830  0.59150  Biso   1.000  C
  H36      1.0000 0.90860  0.25600  0.67600  Biso   1.000  H
  H37      1.0000 0.85340  0.21990  0.54630  Biso   1.000  H
  C34      1.0000 0.21500  0.15430  0.52940  Biso   1.000  C
  H38      1.0000 0.24110  0.22120  0.47120  Biso   1.000  H
  C35      1.0000 0.23530  0.98130  0.64840  Biso   1.000  C
  H39      1.0000 0.27770  0.90450  0.69160  Biso   1.000  H
  C36      1.0000 0.08600  0.03680  0.66630  Biso   1.000  C
  H40      1.0000 0.00680  0.00530  0.71880  Biso   1.000  H
  N1       1.0000 0.21620  0.41550  0.91300  Biso   1.000  N
  N2       1.0000 0.44150  0.37750  0.81890  Biso   1.000  N
  N3       1.0000 0.62150  0.64000  0.18220  Biso   1.000  N
  N4       1.0000 0.85130  0.60760  0.07800  Biso   1.000  N
  N5       1.0000 0.74860  0.96660  0.43430  Biso   1.000  N
  N6       1.0000 0.98920  0.86500  0.40150  Biso   1.000  N
  N7       1.0000 0.07840  0.15050  0.58920  Biso   1.000  N
  N8       1.0000 0.31170  0.04770  0.56410  Biso   1.000  N
  O1       1.0000 0.89280  0.37380  0.95390  Biso   1.000  O
  O2       1.0000 0.96700  0.27390  0.13410  Biso   1.000  O
  O3       1.0000 0.17610  0.64010  0.04020  Biso   1.000  O
  O4       1.0000 0.09820  0.73760  0.85690  Biso   1.000  O
  O5       1.0000 0.58440  0.88580  0.64310  Biso   1.000  O
  O6       1.0000 0.66390  0.06870  0.71380  Biso   1.000  O
  O7       1.0000 0.48740  0.12660  0.35250  Biso   1.000  O
  O8       1.0000 0.40060  0.94770  0.28240  Biso   1.000  O
  Cu1      1.0000 0.03330  0.50770  0.99670  Biso   1.000  Cu
  Cu2      1.0000 0.53300  0.00770  0.49680  Biso   1.000  Cu
